MODEL 1
REMARK VINA RESULT:      -7.9      0.000      0.000
REMARK  Name = 
REMARK  5 active torsions:
REMARK  status: ('A' for Active; 'I' for Inactive)
REMARK    1  A    between atoms: C_1  and  C_2
REMARK    2  A    between atoms: C_2  and  N_3
REMARK    3  A    between atoms: C_2  and  C_18
REMARK    4  A    between atoms: C_4  and  C_6
REMARK    5  A    between atoms: C_12  and  C_13
REMARK                            x       y       z     vdW  Elec       q    Type
REMARK                         _______ _______ _______ _____ _____    ______ ____
ROOT
ATOM      1  N   UNL     1       4.158   5.983  17.016  0.00  0.00    +0.000 N 
ATOM      2  C   UNL     1       4.591   4.805  16.449  0.00  0.00    +0.000 C 
ATOM      3  O   UNL     1       4.041   3.728  16.678  0.00  0.00    +0.000 OA
ATOM      4  H   UNL     1       4.634   6.859  16.794  0.00  0.00    +0.000 HD
ENDROOT
BRANCH   2   5
ATOM      5  C   UNL     1       5.747   4.902  15.578  0.00  0.00    +0.000 A 
ATOM      6  C   UNL     1       6.944   5.524  15.917  0.00  0.00    +0.000 A 
ATOM      7  N   UNL     1       7.800   5.441  14.849  0.00  0.00    +0.000 N 
ATOM      8  C   UNL     1       7.180   4.794  13.819  0.00  0.00    +0.000 A 
ATOM      9  N   UNL     1       7.702   4.561  12.601  0.00  0.00    +0.000 NA
ATOM     10  C   UNL     1       6.795   3.929  11.809  0.00  0.00    +0.000 A 
ATOM     11  C   UNL     1       5.500   3.544  12.189  0.00  0.00    +0.000 A 
ATOM     12  N   UNL     1       5.038   3.779  13.444  0.00  0.00    +0.000 NA
ATOM     13  C   UNL     1       5.908   4.436  14.251  0.00  0.00    +0.000 A 
ATOM     14  H   UNL     1       8.738   5.814  14.799  0.00  0.00    +0.000 HD
BRANCH  11  15
ATOM     15  C   UNL     1       4.572   2.872  11.204  0.00  0.00    +0.000 C 
ATOM     16  C   UNL     1       3.073   3.002  11.374  0.00  0.00    +0.000 C 
ATOM     17  C   UNL     1       3.759   3.719  10.249  0.00  0.00    +0.000 C 
ENDBRANCH  11  15
ENDBRANCH   2   5
BRANCH   1  19
ATOM     18  C   UNL     1       2.516   7.445  18.103  0.00  0.00    +0.000 C 
ATOM     19  C   UNL     1       3.010   6.013  17.912  0.00  0.00    +0.000 C 
BRANCH  19  20
ATOM     20  C   UNL     1       3.331   5.411  19.300  0.00  0.00    +0.000 C 
ATOM     21  O   UNL     1       4.451   5.567  19.800  0.00  0.00    +0.000 OA
ATOM     22  N   UNL     1       2.284   4.814  20.010  0.00  0.00    +0.000 N 
ATOM     23  C   UNL     1       2.473   4.470  21.418  0.00  0.00    +0.000 C 
ATOM     24  C   UNL     1       2.477   2.956  21.625  0.00  0.00    +0.000 C 
ATOM     25  C   UNL     1       1.246   2.301  20.997  0.00  0.00    +0.000 C 
ATOM     26  C   UNL     1       1.084   2.727  19.538  0.00  0.00    +0.000 C 
ATOM     27  C   UNL     1       1.067   4.252  19.417  0.00  0.00    +0.000 C 
ENDBRANCH  19  20
ENDBRANCH   1  19
TORSDOF 4
ENDMDL
MODEL 2
REMARK VINA RESULT:      -7.8      1.745      3.233
REMARK  Name = 
REMARK  5 active torsions:
REMARK  status: ('A' for Active; 'I' for Inactive)
REMARK    1  A    between atoms: C_1  and  C_2
REMARK    2  A    between atoms: C_2  and  N_3
REMARK    3  A    between atoms: C_2  and  C_18
REMARK    4  A    between atoms: C_4  and  C_6
REMARK    5  A    between atoms: C_12  and  C_13
REMARK                            x       y       z     vdW  Elec       q    Type
REMARK                         _______ _______ _______ _____ _____    ______ ____
ROOT
ATOM      1  N   UNL     1       3.626   4.896  18.213  0.00  0.00    +0.000 N 
ATOM      2  C   UNL     1       4.909   4.434  18.404  0.00  0.00    +0.000 C 
ATOM      3  O   UNL     1       5.183   3.603  19.270  0.00  0.00    +0.000 OA
ATOM      4  H   UNL     1       3.436   5.579  17.478  0.00  0.00    +0.000 HD
ENDROOT
BRANCH   2   5
ATOM      5  C   UNL     1       5.927   4.998  17.538  0.00  0.00    +0.000 A 
ATOM      6  C   UNL     1       6.827   5.989  17.915  0.00  0.00    +0.000 A 
ATOM      7  N   UNL     1       7.625   6.290  16.840  0.00  0.00    +0.000 N 
ATOM      8  C   UNL     1       7.250   5.529  15.770  0.00  0.00    +0.000 A 
ATOM      9  N   UNL     1       7.787   5.579  14.537  0.00  0.00    +0.000 NA
ATOM     10  C   UNL     1       7.146   4.713  13.706  0.00  0.00    +0.000 A 
ATOM     11  C   UNL     1       6.089   3.862  14.063  0.00  0.00    +0.000 A 
ATOM     12  N   UNL     1       5.609   3.833  15.333  0.00  0.00    +0.000 NA
ATOM     13  C   UNL     1       6.206   4.708  16.180  0.00  0.00    +0.000 A 
ATOM     14  H   UNL     1       8.363   6.979  16.813  0.00  0.00    +0.000 HD
BRANCH  11  15
ATOM     15  C   UNL     1       5.438   2.964  13.037  0.00  0.00    +0.000 C 
ATOM     16  C   UNL     1       4.779   3.571  11.817  0.00  0.00    +0.000 C 
ATOM     17  C   UNL     1       6.066   2.817  11.669  0.00  0.00    +0.000 C 
ENDBRANCH  11  15
ENDBRANCH   2   5
BRANCH   1  19
ATOM     18  C   UNL     1       1.414   3.838  18.138  0.00  0.00    +0.000 C 
ATOM     19  C   UNL     1       2.519   4.408  19.024  0.00  0.00    +0.000 C 
BRANCH  19  20
ATOM     20  C   UNL     1       1.913   5.515  19.920  0.00  0.00    +0.000 C 
ATOM     21  O   UNL     1       1.211   5.211  20.891  0.00  0.00    +0.000 OA
ATOM     22  N   UNL     1       2.296   6.837  19.673  0.00  0.00    +0.000 N 
ATOM     23  C   UNL     1       1.962   7.877  20.644  0.00  0.00    +0.000 C 
ATOM     24  C   UNL     1       0.936   8.858  20.078  0.00  0.00    +0.000 C 
ATOM     25  C   UNL     1       1.378   9.410  18.722  0.00  0.00    +0.000 C 
ATOM     26  C   UNL     1       1.746   8.277  17.764  0.00  0.00    +0.000 C 
ATOM     27  C   UNL     1       2.790   7.353  18.393  0.00  0.00    +0.000 C 
ENDBRANCH  19  20
ENDBRANCH   1  19
TORSDOF 4
ENDMDL
MODEL 3
REMARK VINA RESULT:      -7.7      4.424      8.415
REMARK  Name = 
REMARK  5 active torsions:
REMARK  status: ('A' for Active; 'I' for Inactive)
REMARK    1  A    between atoms: C_1  and  C_2
REMARK    2  A    between atoms: C_2  and  N_3
REMARK    3  A    between atoms: C_2  and  C_18
REMARK    4  A    between atoms: C_4  and  C_6
REMARK    5  A    between atoms: C_12  and  C_13
REMARK                            x       y       z     vdW  Elec       q    Type
REMARK                         _______ _______ _______ _____ _____    ______ ____
ROOT
ATOM      1  N   UNL     1       2.036   7.340  18.835  0.00  0.00    +0.000 N 
ATOM      2  C   UNL     1       1.834   8.580  18.269  0.00  0.00    +0.000 C 
ATOM      3  O   UNL     1       2.262   8.866  17.151  0.00  0.00    +0.000 OA
ATOM      4  H   UNL     1       1.656   7.137  19.761  0.00  0.00    +0.000 HD
ENDROOT
BRANCH   2   5
ATOM      5  C   UNL     1       1.103   9.539  19.075  0.00  0.00    +0.000 A 
ATOM      6  C   UNL     1       1.535  10.036  20.300  0.00  0.00    +0.000 A 
ATOM      7  N   UNL     1       0.586  10.902  20.782  0.00  0.00    +0.000 N 
ATOM      8  C   UNL     1      -0.458  10.964  19.905  0.00  0.00    +0.000 A 
ATOM      9  N   UNL     1      -1.584  11.685  20.064  0.00  0.00    +0.000 NA
ATOM     10  C   UNL     1      -2.429  11.482  19.017  0.00  0.00    +0.000 A 
ATOM     11  C   UNL     1      -2.178  10.662  17.906  0.00  0.00    +0.000 A 
ATOM     12  N   UNL     1      -1.009   9.982  17.785  0.00  0.00    +0.000 NA
ATOM     13  C   UNL     1      -0.157  10.138  18.829  0.00  0.00    +0.000 A 
ATOM     14  H   UNL     1       0.621  11.405  21.657  0.00  0.00    +0.000 HD
BRANCH  11  15
ATOM     15  C   UNL     1      -3.214  10.495  16.819  0.00  0.00    +0.000 C 
ATOM     16  C   UNL     1      -2.991  11.132  15.464  0.00  0.00    +0.000 C 
ATOM     17  C   UNL     1      -2.894   9.643  15.610  0.00  0.00    +0.000 C 
ENDBRANCH  11  15
ENDBRANCH   2   5
BRANCH   1  19
ATOM     18  C   UNL     1       1.836   5.120  17.814  0.00  0.00    +0.000 C 
ATOM     19  C   UNL     1       2.759   6.295  18.125  0.00  0.00    +0.000 C 
BRANCH  19  20
ATOM     20  C   UNL     1       3.974   5.771  18.927  0.00  0.00    +0.000 C 
ATOM     21  O   UNL     1       3.823   5.363  20.084  0.00  0.00    +0.000 OA
ATOM     22  N   UNL     1       5.196   5.654  18.258  0.00  0.00    +0.000 N 
ATOM     23  C   UNL     1       6.296   4.926  18.889  0.00  0.00    +0.000 C 
ATOM     24  C   UNL     1       7.444   5.864  19.259  0.00  0.00    +0.000 C 
ATOM     25  C   UNL     1       7.881   6.714  18.065  0.00  0.00    +0.000 C 
ATOM     26  C   UNL     1       6.684   7.420  17.428  0.00  0.00    +0.000 C 
ATOM     27  C   UNL     1       5.590   6.414  17.068  0.00  0.00    +0.000 C 
ENDBRANCH  19  20
ENDBRANCH   1  19
TORSDOF 4
ENDMDL
MODEL 4
REMARK VINA RESULT:      -7.7      4.049      8.493
REMARK  Name = 
REMARK  5 active torsions:
REMARK  status: ('A' for Active; 'I' for Inactive)
REMARK    1  A    between atoms: C_1  and  C_2
REMARK    2  A    between atoms: C_2  and  N_3
REMARK    3  A    between atoms: C_2  and  C_18
REMARK    4  A    between atoms: C_4  and  C_6
REMARK    5  A    between atoms: C_12  and  C_13
REMARK                            x       y       z     vdW  Elec       q    Type
REMARK                         _______ _______ _______ _____ _____    ______ ____
ROOT
ATOM      1  N   UNL     1       2.122   6.529  19.013  0.00  0.00    +0.000 N 
ATOM      2  C   UNL     1       2.127   7.890  18.802  0.00  0.00    +0.000 C 
ATOM      3  O   UNL     1       2.697   8.402  17.838  0.00  0.00    +0.000 OA
ATOM      4  H   UNL     1       1.629   6.142  19.819  0.00  0.00    +0.000 HD
ENDROOT
BRANCH   2   5
ATOM      5  C   UNL     1       1.436   8.693  19.794  0.00  0.00    +0.000 A 
ATOM      6  C   UNL     1       1.644   8.606  21.166  0.00  0.00    +0.000 A 
ATOM      7  N   UNL     1       0.808   9.495  21.794  0.00  0.00    +0.000 N 
ATOM      8  C   UNL     1       0.052  10.144  20.860  0.00  0.00    +0.000 A 
ATOM      9  N   UNL     1      -0.901  11.061  21.111  0.00  0.00    +0.000 NA
ATOM     10  C   UNL     1      -1.481  11.471  19.951  0.00  0.00    +0.000 A 
ATOM     11  C   UNL     1      -1.141  11.033  18.662  0.00  0.00    +0.000 A 
ATOM     12  N   UNL     1      -0.147  10.127  18.469  0.00  0.00    +0.000 NA
ATOM     13  C   UNL     1       0.432   9.674  19.608  0.00  0.00    +0.000 A 
ATOM     14  H   UNL     1       0.729   9.646  22.790  0.00  0.00    +0.000 HD
BRANCH  11  15
ATOM     15  C   UNL     1      -1.884  11.542  17.450  0.00  0.00    +0.000 C 
ATOM     16  C   UNL     1      -2.570  10.563  16.521  0.00  0.00    +0.000 C 
ATOM     17  C   UNL     1      -3.393  11.449  17.407  0.00  0.00    +0.000 C 
ENDBRANCH  11  15
ENDBRANCH   2   5
BRANCH   1  19
ATOM     18  C   UNL     1       1.903   4.407  17.803  0.00  0.00    +0.000 C 
ATOM     19  C   UNL     1       2.785   5.620  18.088  0.00  0.00    +0.000 C 
BRANCH  19  20
ATOM     20  C   UNL     1       4.148   5.125  18.627  0.00  0.00    +0.000 C 
ATOM     21  O   UNL     1       4.196   4.434  19.651  0.00  0.00    +0.000 OA
ATOM     22  N   UNL     1       5.285   5.369  17.849  0.00  0.00    +0.000 N 
ATOM     23  C   UNL     1       6.542   4.699  18.180  0.00  0.00    +0.000 C 
ATOM     24  C   UNL     1       7.587   5.696  18.678  0.00  0.00    +0.000 C 
ATOM     25  C   UNL     1       7.757   6.863  17.706  0.00  0.00    +0.000 C 
ATOM     26  C   UNL     1       6.407   7.498  17.371  0.00  0.00    +0.000 C 
ATOM     27  C   UNL     1       5.423   6.442  16.861  0.00  0.00    +0.000 C 
ENDBRANCH  19  20
ENDBRANCH   1  19
TORSDOF 4
ENDMDL
MODEL 5
REMARK VINA RESULT:      -7.5      3.728      8.369
REMARK  Name = 
REMARK  5 active torsions:
REMARK  status: ('A' for Active; 'I' for Inactive)
REMARK    1  A    between atoms: C_1  and  C_2
REMARK    2  A    between atoms: C_2  and  N_3
REMARK    3  A    between atoms: C_2  and  C_18
REMARK    4  A    between atoms: C_4  and  C_6
REMARK    5  A    between atoms: C_12  and  C_13
REMARK                            x       y       z     vdW  Elec       q    Type
REMARK                         _______ _______ _______ _____ _____    ______ ____
ROOT
ATOM      1  N   UNL     1       3.027   5.742  17.681  0.00  0.00    +0.000 N 
ATOM      2  C   UNL     1       2.802   6.515  18.798  0.00  0.00    +0.000 C 
ATOM      3  O   UNL     1       3.004   6.095  19.937  0.00  0.00    +0.000 OA
ATOM      4  H   UNL     1       2.857   6.130  16.752  0.00  0.00    +0.000 HD
ENDROOT
BRANCH   2   5
ATOM      5  C   UNL     1       2.293   7.852  18.558  0.00  0.00    +0.000 A 
ATOM      6  C   UNL     1       2.622   8.640  17.460  0.00  0.00    +0.000 A 
ATOM      7  N   UNL     1       1.974   9.844  17.572  0.00  0.00    +0.000 N 
ATOM      8  C   UNL     1       1.245   9.860  18.726  0.00  0.00    +0.000 A 
ATOM      9  N   UNL     1       0.509  10.891  19.183  0.00  0.00    +0.000 NA
ATOM     10  C   UNL     1      -0.052  10.578  20.382  0.00  0.00    +0.000 A 
ATOM     11  C   UNL     1       0.084   9.356  21.059  0.00  0.00    +0.000 A 
ATOM     12  N   UNL     1       0.816   8.340  20.533  0.00  0.00    +0.000 NA
ATOM     13  C   UNL     1       1.414   8.630  19.351  0.00  0.00    +0.000 A 
ATOM     14  H   UNL     1       2.031  10.620  16.928  0.00  0.00    +0.000 HD
BRANCH  11  15
ATOM     15  C   UNL     1      -0.566   9.141  22.406  0.00  0.00    +0.000 C 
ATOM     16  C   UNL     1       0.193   9.483  23.670  0.00  0.00    +0.000 C 
ATOM     17  C   UNL     1      -0.963  10.337  23.242  0.00  0.00    +0.000 C 
ENDBRANCH  11  15
ENDBRANCH   2   5
BRANCH   1  19
ATOM     18  C   UNL     1       2.585   3.524  18.630  0.00  0.00    +0.000 C 
ATOM     19  C   UNL     1       3.533   4.382  17.794  0.00  0.00    +0.000 C 
BRANCH  19  20
ATOM     20  C   UNL     1       4.941   4.329  18.433  0.00  0.00    +0.000 C 
ATOM     21  O   UNL     1       5.138   3.643  19.442  0.00  0.00    +0.000 OA
ATOM     22  N   UNL     1       5.988   4.964  17.757  0.00  0.00    +0.000 N 
ATOM     23  C   UNL     1       7.368   4.722  18.177  0.00  0.00    +0.000 C 
ATOM     24  C   UNL     1       7.993   5.978  18.781  0.00  0.00    +0.000 C 
ATOM     25  C   UNL     1       7.841   7.183  17.852  0.00  0.00    +0.000 C 
ATOM     26  C   UNL     1       6.385   7.361  17.420  0.00  0.00    +0.000 C 
ATOM     27  C   UNL     1       5.839   6.070  16.808  0.00  0.00    +0.000 C 
ENDBRANCH  19  20
ENDBRANCH   1  19
TORSDOF 4
ENDMDL
MODEL 6
REMARK VINA RESULT:      -7.5      4.556      7.147
REMARK  Name = 
REMARK  5 active torsions:
REMARK  status: ('A' for Active; 'I' for Inactive)
REMARK    1  A    between atoms: C_1  and  C_2
REMARK    2  A    between atoms: C_2  and  N_3
REMARK    3  A    between atoms: C_2  and  C_18
REMARK    4  A    between atoms: C_4  and  C_6
REMARK    5  A    between atoms: C_12  and  C_13
REMARK                            x       y       z     vdW  Elec       q    Type
REMARK                         _______ _______ _______ _____ _____    ______ ____
ROOT
ATOM      1  N   UNL     1       1.017   9.519  19.205  0.00  0.00    +0.000 N 
ATOM      2  C   UNL     1       1.841   8.742  18.422  0.00  0.00    +0.000 C 
ATOM      3  O   UNL     1       2.144   9.060  17.273  0.00  0.00    +0.000 OA
ATOM      4  H   UNL     1       0.797   9.226  20.158  0.00  0.00    +0.000 HD
ENDROOT
BRANCH   2   5
ATOM      5  C   UNL     1       2.319   7.511  19.024  0.00  0.00    +0.000 A 
ATOM      6  C   UNL     1       1.996   7.078  20.306  0.00  0.00    +0.000 A 
ATOM      7  N   UNL     1       2.640   5.891  20.544  0.00  0.00    +0.000 N 
ATOM      8  C   UNL     1       3.387   5.552  19.452  0.00  0.00    +0.000 A 
ATOM      9  N   UNL     1       4.178   4.470  19.340  0.00  0.00    +0.000 NA
ATOM     10  C   UNL     1       4.805   4.465  18.132  0.00  0.00    +0.000 A 
ATOM     11  C   UNL     1       4.651   5.427  17.122  0.00  0.00    +0.000 A 
ATOM     12  N   UNL     1       3.813   6.484  17.282  0.00  0.00    +0.000 NA
ATOM     13  C   UNL     1       3.195   6.535  18.488  0.00  0.00    +0.000 A 
ATOM     14  H   UNL     1       2.603   5.347  21.395  0.00  0.00    +0.000 HD
BRANCH  11  15
ATOM     15  C   UNL     1       5.431   5.327  15.832  0.00  0.00    +0.000 C 
ATOM     16  C   UNL     1       6.925   5.087  15.873  0.00  0.00    +0.000 C 
ATOM     17  C   UNL     1       6.008   3.993  15.412  0.00  0.00    +0.000 C 
ENDBRANCH  11  15
ENDBRANCH   2   5
BRANCH   1  19
ATOM     18  C   UNL     1       1.419  11.931  19.019  0.00  0.00    +0.000 C 
ATOM     19  C   UNL     1       0.471  10.775  18.710  0.00  0.00    +0.000 C 
BRANCH  19  20
ATOM     20  C   UNL     1      -0.915  11.095  19.319  0.00  0.00    +0.000 C 
ATOM     21  O   UNL     1      -1.089  11.012  20.540  0.00  0.00    +0.000 OA
ATOM     22  N   UNL     1      -1.901  11.603  18.467  0.00  0.00    +0.000 N 
ATOM     23  C   UNL     1      -3.126  12.161  19.035  0.00  0.00    +0.000 C 
ATOM     24  C   UNL     1      -4.340  11.297  18.698  0.00  0.00    +0.000 C 
ATOM     25  C   UNL     1      -4.434  11.024  17.196  0.00  0.00    +0.000 C 
ATOM     26  C   UNL     1      -3.113  10.476  16.656  0.00  0.00    +0.000 C 
ATOM     27  C   UNL     1      -1.953  11.405  17.015  0.00  0.00    +0.000 C 
ENDBRANCH  19  20
ENDBRANCH   1  19
TORSDOF 4
ENDMDL
MODEL 7
REMARK VINA RESULT:      -7.4      4.746      8.065
REMARK  Name = 
REMARK  5 active torsions:
REMARK  status: ('A' for Active; 'I' for Inactive)
REMARK    1  A    between atoms: C_1  and  C_2
REMARK    2  A    between atoms: C_2  and  N_3
REMARK    3  A    between atoms: C_2  and  C_18
REMARK    4  A    between atoms: C_4  and  C_6
REMARK    5  A    between atoms: C_12  and  C_13
REMARK                            x       y       z     vdW  Elec       q    Type
REMARK                         _______ _______ _______ _____ _____    ______ ____
ROOT
ATOM      1  N   UNL     1       2.043   8.161  18.896  0.00  0.00    +0.000 N 
ATOM      2  C   UNL     1       1.514   8.408  20.143  0.00  0.00    +0.000 C 
ATOM      3  O   UNL     1       1.704   7.653  21.096  0.00  0.00    +0.000 OA
ATOM      4  H   UNL     1       1.871   8.817  18.132  0.00  0.00    +0.000 HD
ENDROOT
BRANCH   2   5
ATOM      5  C   UNL     1       0.701   9.604  20.267  0.00  0.00    +0.000 A 
ATOM      6  C   UNL     1       0.695  10.446  21.374  0.00  0.00    +0.000 A 
ATOM      7  N   UNL     1      -0.204  11.458  21.151  0.00  0.00    +0.000 N 
ATOM      8  C   UNL     1      -0.793  11.282  19.932  0.00  0.00    +0.000 A 
ATOM      9  N   UNL     1      -1.750  12.061  19.395  0.00  0.00    +0.000 NA
ATOM     10  C   UNL     1      -2.136  11.571  18.186  0.00  0.00    +0.000 A 
ATOM     11  C   UNL     1      -1.614  10.431  17.556  0.00  0.00    +0.000 A 
ATOM     12  N   UNL     1      -0.626   9.700  18.134  0.00  0.00    +0.000 NA
ATOM     13  C   UNL     1      -0.239  10.144  19.356  0.00  0.00    +0.000 A 
ATOM     14  H   UNL     1      -0.430  12.212  21.785  0.00  0.00    +0.000 HD
BRANCH  11  15
ATOM     15  C   UNL     1      -2.152   9.970  16.222  0.00  0.00    +0.000 C 
ATOM     16  C   UNL     1      -3.636   9.728  16.052  0.00  0.00    +0.000 C 
ATOM     17  C   UNL     1      -2.995  10.912  15.391  0.00  0.00    +0.000 C 
ENDBRANCH  11  15
ENDBRANCH   2   5
BRANCH   1  19
ATOM     18  C   UNL     1       3.820   7.244  17.477  0.00  0.00    +0.000 C 
ATOM     19  C   UNL     1       2.871   6.991  18.646  0.00  0.00    +0.000 C 
BRANCH  19  20
ATOM     20  C   UNL     1       2.030   5.729  18.336  0.00  0.00    +0.000 C 
ATOM     21  O   UNL     1       1.181   5.756  17.439  0.00  0.00    +0.000 OA
ATOM     22  N   UNL     1       2.359   4.546  19.004  0.00  0.00    +0.000 N 
ATOM     23  C   UNL     1       1.776   3.281  18.560  0.00  0.00    +0.000 C 
ATOM     24  C   UNL     1       0.809   2.718  19.601  0.00  0.00    +0.000 C 
ATOM     25  C   UNL     1       1.460   2.636  20.982  0.00  0.00    +0.000 C 
ATOM     26  C   UNL     1       2.082   3.976  21.375  0.00  0.00    +0.000 C 
ATOM     27  C   UNL     1       3.050   4.462  20.294  0.00  0.00    +0.000 C 
ENDBRANCH  19  20
ENDBRANCH   1  19
TORSDOF 4
ENDMDL
MODEL 8
REMARK VINA RESULT:      -7.4      4.060      8.813
REMARK  Name = 
REMARK  5 active torsions:
REMARK  status: ('A' for Active; 'I' for Inactive)
REMARK    1  A    between atoms: C_1  and  C_2
REMARK    2  A    between atoms: C_2  and  N_3
REMARK    3  A    between atoms: C_2  and  C_18
REMARK    4  A    between atoms: C_4  and  C_6
REMARK    5  A    between atoms: C_12  and  C_13
REMARK                            x       y       z     vdW  Elec       q    Type
REMARK                         _______ _______ _______ _____ _____    ______ ____
ROOT
ATOM      1  N   UNL     1       2.162   6.454  19.200  0.00  0.00    +0.000 N 
ATOM      2  C   UNL     1       2.086   7.821  19.050  0.00  0.00    +0.000 C 
ATOM      3  O   UNL     1       2.514   8.394  18.049  0.00  0.00    +0.000 OA
ATOM      4  H   UNL     1       1.787   6.014  20.042  0.00  0.00    +0.000 HD
ENDROOT
BRANCH   2   5
ATOM      5  C   UNL     1       1.489   8.552  20.152  0.00  0.00    +0.000 A 
ATOM      6  C   UNL     1       1.091   7.983  21.357  0.00  0.00    +0.000 A 
ATOM      7  N   UNL     1       0.554   8.965  22.150  0.00  0.00    +0.000 N 
ATOM      8  C   UNL     1       0.580  10.154  21.480  0.00  0.00    +0.000 A 
ATOM      9  N   UNL     1       0.105  11.329  21.934  0.00  0.00    +0.000 NA
ATOM     10  C   UNL     1       0.258  12.298  20.991  0.00  0.00    +0.000 A 
ATOM     11  C   UNL     1       0.843  12.130  19.727  0.00  0.00    +0.000 A 
ATOM     12  N   UNL     1       1.334  10.925  19.336  0.00  0.00    +0.000 NA
ATOM     13  C   UNL     1       1.169   9.929  20.241  0.00  0.00    +0.000 A 
ATOM     14  H   UNL     1       0.170   8.846  23.077  0.00  0.00    +0.000 HD
BRANCH  11  15
ATOM     15  C   UNL     1       0.927  13.281  18.753  0.00  0.00    +0.000 C 
ATOM     16  C   UNL     1       1.821  14.463  19.062  0.00  0.00    +0.000 C 
ATOM     17  C   UNL     1       2.203  13.506  17.972  0.00  0.00    +0.000 C 
ENDBRANCH  11  15
ENDBRANCH   2   5
BRANCH   1  19
ATOM     18  C   UNL     1       1.820   4.442  17.841  0.00  0.00    +0.000 C 
ATOM     19  C   UNL     1       2.745   5.612  18.165  0.00  0.00    +0.000 C 
BRANCH  19  20
ATOM     20  C   UNL     1       4.129   5.052  18.571  0.00  0.00    +0.000 C 
ATOM     21  O   UNL     1       4.224   4.266  19.520  0.00  0.00    +0.000 OA
ATOM     22  N   UNL     1       5.221   5.356  17.753  0.00  0.00    +0.000 N 
ATOM     23  C   UNL     1       6.484   4.644  17.943  0.00  0.00    +0.000 C 
ATOM     24  C   UNL     1       7.574   5.576  18.470  0.00  0.00    +0.000 C 
ATOM     25  C   UNL     1       7.706   6.829  17.603  0.00  0.00    +0.000 C 
ATOM     26  C   UNL     1       6.350   7.508  17.412  0.00  0.00    +0.000 C 
ATOM     27  C   UNL     1       5.320   6.517  16.865  0.00  0.00    +0.000 C 
ENDBRANCH  19  20
ENDBRANCH   1  19
TORSDOF 4
ENDMDL
MODEL 9
REMARK VINA RESULT:      -7.3      4.249      7.433
REMARK  Name = 
REMARK  5 active torsions:
REMARK  status: ('A' for Active; 'I' for Inactive)
REMARK    1  A    between atoms: C_1  and  C_2
REMARK    2  A    between atoms: C_2  and  N_3
REMARK    3  A    between atoms: C_2  and  C_18
REMARK    4  A    between atoms: C_4  and  C_6
REMARK    5  A    between atoms: C_12  and  C_13
REMARK                            x       y       z     vdW  Elec       q    Type
REMARK                         _______ _______ _______ _____ _____    ______ ____
ROOT
ATOM      1  N   UNL     1       1.395   8.996  18.112  0.00  0.00    +0.000 N 
ATOM      2  C   UNL     1       2.003   8.070  18.930  0.00  0.00    +0.000 C 
ATOM      3  O   UNL     1       1.767   8.008  20.137  0.00  0.00    +0.000 OA
ATOM      4  H   UNL     1       1.609   9.009  17.113  0.00  0.00    +0.000 HD
ENDROOT
BRANCH   2   5
ATOM      5  C   UNL     1       2.956   7.181  18.292  0.00  0.00    +0.000 A 
ATOM      6  C   UNL     1       3.853   7.562  17.301  0.00  0.00    +0.000 A 
ATOM      7  N   UNL     1       4.581   6.463  16.920  0.00  0.00    +0.000 N 
ATOM      8  C   UNL     1       4.163   5.375  17.630  0.00  0.00    +0.000 A 
ATOM      9  N   UNL     1       4.626   4.118  17.498  0.00  0.00    +0.000 NA
ATOM     10  C   UNL     1       3.959   3.277  18.334  0.00  0.00    +0.000 A 
ATOM     11  C   UNL     1       2.944   3.644  19.231  0.00  0.00    +0.000 A 
ATOM     12  N   UNL     1       2.540   4.935  19.343  0.00  0.00    +0.000 NA
ATOM     13  C   UNL     1       3.163   5.796  18.500  0.00  0.00    +0.000 A 
ATOM     14  H   UNL     1       5.299   6.434  16.210  0.00  0.00    +0.000 HD
BRANCH  11  15
ATOM     15  C   UNL     1       2.256   2.607  20.088  0.00  0.00    +0.000 C 
ATOM     16  C   UNL     1       2.423   2.643  21.592  0.00  0.00    +0.000 C 
ATOM     17  C   UNL     1       1.107   3.020  20.980  0.00  0.00    +0.000 C 
ENDBRANCH  11  15
ENDBRANCH   2   5
BRANCH   1  19
ATOM     18  C   UNL     1      -0.770  10.070  17.692  0.00  0.00    +0.000 C 
ATOM     19  C   UNL     1       0.423   9.945  18.637  0.00  0.00    +0.000 C 
BRANCH  19  20
ATOM     20  C   UNL     1       1.032  11.351  18.854  0.00  0.00    +0.000 C 
ATOM     21  O   UNL     1       2.112  11.646  18.330  0.00  0.00    +0.000 OA
ATOM     22  N   UNL     1       0.262  12.296  19.538  0.00  0.00    +0.000 N 
ATOM     23  C   UNL     1       0.676  13.699  19.539  0.00  0.00    +0.000 C 
ATOM     24  C   UNL     1       1.111  14.149  20.932  0.00  0.00    +0.000 C 
ATOM     25  C   UNL     1       0.047  13.827  21.982  0.00  0.00    +0.000 C 
ATOM     26  C   UNL     1      -0.370  12.359  21.908  0.00  0.00    +0.000 C 
ATOM     27  C   UNL     1      -0.810  11.991  20.489  0.00  0.00    +0.000 C 
ENDBRANCH  19  20
ENDBRANCH   1  19
TORSDOF 4
ENDMDL
