MODEL 1
REMARK VINA RESULT:      -6.3      0.000      0.000
REMARK  Name = 
REMARK  8 active torsions:
REMARK  status: ('A' for Active; 'I' for Inactive)
REMARK    1  A    between atoms: C_4  and  C_5
REMARK    2  A    between atoms: C_8  and  O_9
REMARK    3  A    between atoms: C_14  and  C_15
REMARK    4  A    between atoms: C_15  and  N_16
REMARK    5  A    between atoms: N_19  and  C_20
REMARK    6  A    between atoms: C_20  and  C_21
REMARK    7  A    between atoms: C_28  and  O_29
REMARK    8  A    between atoms: C_31  and  O_32
REMARK                            x       y       z     vdW  Elec       q    Type
REMARK                         _______ _______ _______ _____ _____    ______ ____
ROOT
ATOM      1  O   UNL     1       0.912  15.577  23.073  0.00  0.00    +0.000 OA
ATOM      2  C   UNL     1       0.305  14.663  22.525  0.00  0.00    +0.000 A 
ATOM      3  C   UNL     1      -1.112  14.467  22.847  0.00  0.00    +0.000 A 
ATOM      4  C   UNL     1      -1.743  13.400  22.348  0.00  0.00    +0.000 A 
ATOM      5  O   UNL     1      -1.168  12.440  21.534  0.00  0.00    +0.000 OA
ATOM      6  C   UNL     1       0.066  12.720  20.978  0.00  0.00    +0.000 A 
ATOM      7  C   UNL     1       0.461  11.967  19.847  0.00  0.00    +0.000 A 
ATOM      8  C   UNL     1       1.566  12.459  19.142  0.00  0.00    +0.000 A 
ATOM      9  C   UNL     1       2.412  13.441  19.670  0.00  0.00    +0.000 A 
ATOM     10  C   UNL     1       2.080  14.067  20.859  0.00  0.00    +0.000 A 
ATOM     11  C   UNL     1       0.858  13.780  21.469  0.00  0.00    +0.000 A 
ENDROOT
BRANCH   4  12
ATOM     12  C   UNL     1      -3.166  13.206  22.616  0.00  0.00    +0.000 A 
ATOM     13  C   UNL     1      -4.102  13.406  21.590  0.00  0.00    +0.000 A 
ATOM     14  C   UNL     1      -5.464  13.222  21.833  0.00  0.00    +0.000 A 
ATOM     15  C   UNL     1      -5.886  12.842  23.104  0.00  0.00    +0.000 A 
ATOM     16  C   UNL     1      -4.970  12.662  24.136  0.00  0.00    +0.000 A 
ATOM     17  C   UNL     1      -3.608  12.846  23.894  0.00  0.00    +0.000 A 
BRANCH  15  18
ATOM     18  O   UNL     1      -7.203  12.632  23.380  0.00  0.00    +0.000 OA
ATOM     19  H   UNL     1      -7.341  12.741  24.335  0.00  0.00    +0.000 HD
ENDBRANCH  15  18
ENDBRANCH   4  12
BRANCH   8  20
ATOM     20  O   UNL     1       1.780  12.028  17.864  0.00  0.00    +0.000 OA
ATOM     21  H   UNL     1       1.501  12.702  17.234  0.00  0.00    +0.000 HD
ENDBRANCH   8  20
BRANCH  10  22
ATOM     22  O   UNL     1       2.928  15.002  21.376  0.00  0.00    +0.000 OA
ATOM     23  H   UNL     1       2.710  15.888  21.049  0.00  0.00    +0.000 HD
ENDBRANCH  10  22
BRANCH   7  24
ATOM     24  C   UNL     1      -0.350  10.766  19.345  0.00  0.00    +0.000 C 
BRANCH  24  25
ATOM     25  N   UNL     1      -0.955  10.920  18.003  0.00  0.00    +0.000 NA
ATOM     26  C   UNL     1      -1.648   9.748  17.469  0.00  0.00    +0.000 C 
ATOM     27  C   UNL     1      -3.168   9.606  17.763  0.00  0.00    +0.000 C 
ATOM     28  N   UNL     1      -3.981  10.804  18.055  0.00  0.00    +0.000 NA
ATOM     29  C   UNL     1      -3.183  11.949  18.517  0.00  0.00    +0.000 C 
ATOM     30  C   UNL     1      -1.804  12.100  17.851  0.00  0.00    +0.000 C 
BRANCH  28  31
ATOM     31  C   UNL     1      -4.932  11.177  16.999  0.00  0.00    +0.000 C 
BRANCH  31  32
ATOM     32  C   UNL     1      -6.014  12.075  17.546  0.00  0.00    +0.000 A 
ATOM     33  C   UNL     1      -6.820  11.802  18.706  0.00  0.00    +0.000 A 
ATOM     34  C   UNL     1      -7.788  12.758  18.920  0.00  0.00    +0.000 A 
ATOM     35  S   UNL     1      -7.700  14.026  17.779  0.00  0.00    +0.000 S 
ATOM     36  C   UNL     1      -6.377  13.290  16.986  0.00  0.00    +0.000 A 
ENDBRANCH  31  32
ENDBRANCH  28  31
ENDBRANCH  24  25
ENDBRANCH   7  24
TORSDOF 8
ENDMDL
MODEL 2
REMARK VINA RESULT:      -6.2      5.093      9.072
REMARK  Name = 
REMARK  8 active torsions:
REMARK  status: ('A' for Active; 'I' for Inactive)
REMARK    1  A    between atoms: C_4  and  C_5
REMARK    2  A    between atoms: C_8  and  O_9
REMARK    3  A    between atoms: C_14  and  C_15
REMARK    4  A    between atoms: C_15  and  N_16
REMARK    5  A    between atoms: N_19  and  C_20
REMARK    6  A    between atoms: C_20  and  C_21
REMARK    7  A    between atoms: C_28  and  O_29
REMARK    8  A    between atoms: C_31  and  O_32
REMARK                            x       y       z     vdW  Elec       q    Type
REMARK                         _______ _______ _______ _____ _____    ______ ____
ROOT
ATOM      1  O   UNL     1      -1.504  10.762  23.434  0.00  0.00    +0.000 OA
ATOM      2  C   UNL     1      -0.778  11.031  22.484  0.00  0.00    +0.000 A 
ATOM      3  C   UNL     1      -0.149   9.932  21.744  0.00  0.00    +0.000 A 
ATOM      4  C   UNL     1       0.737  10.225  20.789  0.00  0.00    +0.000 A 
ATOM      5  O   UNL     1       1.126  11.502  20.422  0.00  0.00    +0.000 OA
ATOM      6  C   UNL     1       0.370  12.563  20.883  0.00  0.00    +0.000 A 
ATOM      7  C   UNL     1       0.488  13.797  20.200  0.00  0.00    +0.000 A 
ATOM      8  C   UNL     1      -0.486  14.756  20.501  0.00  0.00    +0.000 A 
ATOM      9  C   UNL     1      -1.335  14.638  21.607  0.00  0.00    +0.000 A 
ATOM     10  C   UNL     1      -1.332  13.472  22.353  0.00  0.00    +0.000 A 
ATOM     11  C   UNL     1      -0.551  12.392  21.939  0.00  0.00    +0.000 A 
ENDROOT
BRANCH   4  12
ATOM     12  C   UNL     1       1.344   9.150  20.005  0.00  0.00    +0.000 A 
ATOM     13  C   UNL     1       1.620   9.350  18.645  0.00  0.00    +0.000 A 
ATOM     14  C   UNL     1       2.201   8.332  17.887  0.00  0.00    +0.000 A 
ATOM     15  C   UNL     1       2.499   7.115  18.493  0.00  0.00    +0.000 A 
ATOM     16  C   UNL     1       2.209   6.896  19.836  0.00  0.00    +0.000 A 
ATOM     17  C   UNL     1       1.628   7.913  20.594  0.00  0.00    +0.000 A 
BRANCH  15  18
ATOM     18  O   UNL     1       3.084   6.101  17.796  0.00  0.00    +0.000 OA
ATOM     19  H   UNL     1       2.854   5.259  18.221  0.00  0.00    +0.000 HD
ENDBRANCH  15  18
ENDBRANCH   4  12
BRANCH   8  20
ATOM     20  O   UNL     1      -0.671  15.802  19.642  0.00  0.00    +0.000 OA
ATOM     21  H   UNL     1      -1.385  16.369  19.957  0.00  0.00    +0.000 HD
ENDBRANCH   8  20
BRANCH  10  22
ATOM     22  O   UNL     1      -2.145  13.381  23.445  0.00  0.00    +0.000 OA
ATOM     23  H   UNL     1      -3.045  13.132  23.189  0.00  0.00    +0.000 HD
ENDBRANCH  10  22
BRANCH   7  24
ATOM     24  C   UNL     1       1.534  14.022  19.101  0.00  0.00    +0.000 C 
BRANCH  24  25
ATOM     25  N   UNL     1       2.232  15.326  19.142  0.00  0.00    +0.000 NA
ATOM     26  C   UNL     1       3.062  15.576  20.321  0.00  0.00    +0.000 C 
ATOM     27  C   UNL     1       4.559  15.161  20.257  0.00  0.00    +0.000 C 
ATOM     28  N   UNL     1       5.243  15.056  18.953  0.00  0.00    +0.000 NA
ATOM     29  C   UNL     1       4.318  14.877  17.824  0.00  0.00    +0.000 C 
ATOM     30  C   UNL     1       2.991  15.648  17.934  0.00  0.00    +0.000 C 
BRANCH  28  31
ATOM     31  C   UNL     1       6.243  16.100  18.693  0.00  0.00    +0.000 C 
BRANCH  31  32
ATOM     32  C   UNL     1       7.600  15.490  18.439  0.00  0.00    +0.000 A 
ATOM     33  C   UNL     1       8.793  16.218  18.095  0.00  0.00    +0.000 A 
ATOM     34  C   UNL     1       9.865  15.393  17.836  0.00  0.00    +0.000 A 
ATOM     35  S   UNL     1       9.477  13.746  18.068  0.00  0.00    +0.000 S 
ATOM     36  C   UNL     1       7.869  14.132  18.499  0.00  0.00    +0.000 A 
ENDBRANCH  31  32
ENDBRANCH  28  31
ENDBRANCH  24  25
ENDBRANCH   7  24
TORSDOF 8
ENDMDL
MODEL 3
REMARK VINA RESULT:      -6.2      5.878      9.985
REMARK  Name = 
REMARK  8 active torsions:
REMARK  status: ('A' for Active; 'I' for Inactive)
REMARK    1  A    between atoms: C_4  and  C_5
REMARK    2  A    between atoms: C_8  and  O_9
REMARK    3  A    between atoms: C_14  and  C_15
REMARK    4  A    between atoms: C_15  and  N_16
REMARK    5  A    between atoms: N_19  and  C_20
REMARK    6  A    between atoms: C_20  and  C_21
REMARK    7  A    between atoms: C_28  and  O_29
REMARK    8  A    between atoms: C_31  and  O_32
REMARK                            x       y       z     vdW  Elec       q    Type
REMARK                         _______ _______ _______ _____ _____    ______ ____
ROOT
ATOM      1  O   UNL     1      -2.020  13.529  19.968  0.00  0.00    +0.000 OA
ATOM      2  C   UNL     1      -0.846  13.281  19.720  0.00  0.00    +0.000 A 
ATOM      3  C   UNL     1      -0.428  11.878  19.623  0.00  0.00    +0.000 A 
ATOM      4  C   UNL     1       0.871  11.603  19.475  0.00  0.00    +0.000 A 
ATOM      5  O   UNL     1       1.884  12.543  19.402  0.00  0.00    +0.000 OA
ATOM      6  C   UNL     1       1.526  13.863  19.207  0.00  0.00    +0.000 A 
ATOM      7  C   UNL     1       2.519  14.747  18.720  0.00  0.00    +0.000 A 
ATOM      8  C   UNL     1       2.060  15.989  18.265  0.00  0.00    +0.000 A 
ATOM      9  C   UNL     1       0.771  16.457  18.544  0.00  0.00    +0.000 A 
ATOM     10  C   UNL     1      -0.146  15.620  19.156  0.00  0.00    +0.000 A 
ATOM     11  C   UNL     1       0.195  14.290  19.403  0.00  0.00    +0.000 A 
ENDROOT
BRANCH   4  12
ATOM     12  C   UNL     1       1.309  10.216  19.329  0.00  0.00    +0.000 A 
ATOM     13  C   UNL     1       1.834   9.776  18.105  0.00  0.00    +0.000 A 
ATOM     14  C   UNL     1       2.257   8.454  17.954  0.00  0.00    +0.000 A 
ATOM     15  C   UNL     1       2.148   7.577  19.029  0.00  0.00    +0.000 A 
ATOM     16  C   UNL     1       1.608   7.994  20.241  0.00  0.00    +0.000 A 
ATOM     17  C   UNL     1       1.185   9.315  20.392  0.00  0.00    +0.000 A 
BRANCH  15  18
ATOM     18  O   UNL     1       2.567   6.284  18.932  0.00  0.00    +0.000 OA
ATOM     19  H   UNL     1       2.841   6.113  18.016  0.00  0.00    +0.000 HD
ENDBRANCH  15  18
ENDBRANCH   4  12
BRANCH   8  20
ATOM     20  O   UNL     1       2.867  16.735  17.454  0.00  0.00    +0.000 OA
ATOM     21  H   UNL     1       3.733  16.852  17.863  0.00  0.00    +0.000 HD
ENDBRANCH   8  20
BRANCH  10  22
ATOM     22  O   UNL     1      -1.390  16.099  19.447  0.00  0.00    +0.000 OA
ATOM     23  H   UNL     1      -1.828  15.548  20.112  0.00  0.00    +0.000 HD
ENDBRANCH  10  22
BRANCH   7  24
ATOM     24  C   UNL     1       3.985  14.321  18.571  0.00  0.00    +0.000 C 
BRANCH  24  25
ATOM     25  N   UNL     1       4.982  15.403  18.730  0.00  0.00    +0.000 NA
ATOM     26  C   UNL     1       5.572  15.545  20.061  0.00  0.00    +0.000 C 
ATOM     27  C   UNL     1       6.878  14.761  20.366  0.00  0.00    +0.000 C 
ATOM     28  N   UNL     1       7.775  14.360  19.263  0.00  0.00    +0.000 NA
ATOM     29  C   UNL     1       7.105  14.315  17.955  0.00  0.00    +0.000 C 
ATOM     30  C   UNL     1       6.043  15.405  17.724  0.00  0.00    +0.000 C 
BRANCH  28  31
ATOM     31  C   UNL     1       9.052  15.086  19.209  0.00  0.00    +0.000 C 
BRANCH  31  32
ATOM     32  C   UNL     1      10.119  14.246  18.552  0.00  0.00    +0.000 A 
ATOM     33  C   UNL     1      10.791  14.561  17.320  0.00  0.00    +0.000 A 
ATOM     34  C   UNL     1      11.656  13.569  16.915  0.00  0.00    +0.000 A 
ATOM     35  S   UNL     1      11.728  12.283  18.037  0.00  0.00    +0.000 S 
ATOM     36  C   UNL     1      10.587  13.044  19.059  0.00  0.00    +0.000 A 
ENDBRANCH  31  32
ENDBRANCH  28  31
ENDBRANCH  24  25
ENDBRANCH   7  24
TORSDOF 8
ENDMDL
MODEL 4
REMARK VINA RESULT:      -6.2      5.562      9.759
REMARK  Name = 
REMARK  8 active torsions:
REMARK  status: ('A' for Active; 'I' for Inactive)
REMARK    1  A    between atoms: C_4  and  C_5
REMARK    2  A    between atoms: C_8  and  O_9
REMARK    3  A    between atoms: C_14  and  C_15
REMARK    4  A    between atoms: C_15  and  N_16
REMARK    5  A    between atoms: N_19  and  C_20
REMARK    6  A    between atoms: C_20  and  C_21
REMARK    7  A    between atoms: C_28  and  O_29
REMARK    8  A    between atoms: C_31  and  O_32
REMARK                            x       y       z     vdW  Elec       q    Type
REMARK                         _______ _______ _______ _____ _____    ______ ____
ROOT
ATOM      1  O   UNL     1      -2.566  12.067  20.413  0.00  0.00    +0.000 OA
ATOM      2  C   UNL     1      -1.376  12.050  20.117  0.00  0.00    +0.000 A 
ATOM      3  C   UNL     1      -0.735  10.757  19.853  0.00  0.00    +0.000 A 
ATOM      4  C   UNL     1       0.586  10.724  19.652  0.00  0.00    +0.000 A 
ATOM      5  O   UNL     1       1.425  11.825  19.669  0.00  0.00    +0.000 OA
ATOM      6  C   UNL     1       0.845  13.078  19.634  0.00  0.00    +0.000 A 
ATOM      7  C   UNL     1       1.658  14.166  19.233  0.00  0.00    +0.000 A 
ATOM      8  C   UNL     1       0.983  15.354  18.932  0.00  0.00    +0.000 A 
ATOM      9  C   UNL     1      -0.354  15.563  19.285  0.00  0.00    +0.000 A 
ATOM     10  C   UNL     1      -1.096  14.521  19.813  0.00  0.00    +0.000 A 
ATOM     11  C   UNL     1      -0.530  13.249  19.900  0.00  0.00    +0.000 A 
ENDROOT
BRANCH   4  12
ATOM     12  C   UNL     1       1.242   9.456  19.341  0.00  0.00    +0.000 A 
ATOM     13  C   UNL     1       1.356   8.469  20.331  0.00  0.00    +0.000 A 
ATOM     14  C   UNL     1       1.980   7.253  20.046  0.00  0.00    +0.000 A 
ATOM     15  C   UNL     1       2.491   7.031  18.771  0.00  0.00    +0.000 A 
ATOM     16  C   UNL     1       2.406   8.010  17.786  0.00  0.00    +0.000 A 
ATOM     17  C   UNL     1       1.783   9.226  18.071  0.00  0.00    +0.000 A 
BRANCH  15  18
ATOM     18  O   UNL     1       3.090   5.852  18.443  0.00  0.00    +0.000 OA
ATOM     19  H   UNL     1       2.477   5.334  17.896  0.00  0.00    +0.000 HD
ENDBRANCH  15  18
ENDBRANCH   4  12
BRANCH   8  20
ATOM     20  O   UNL     1       1.625  16.311  18.198  0.00  0.00    +0.000 OA
ATOM     21  H   UNL     1       2.023  15.916  17.413  0.00  0.00    +0.000 HD
ENDBRANCH   8  20
BRANCH  10  22
ATOM     22  O   UNL     1      -2.391  14.747  20.178  0.00  0.00    +0.000 OA
ATOM     23  H   UNL     1      -2.443  15.096  21.081  0.00  0.00    +0.000 HD
ENDBRANCH  10  22
BRANCH   7  24
ATOM     24  C   UNL     1       3.169  14.013  19.011  0.00  0.00    +0.000 C 
BRANCH  24  25
ATOM     25  N   UNL     1       3.957  15.261  19.115  0.00  0.00    +0.000 NA
ATOM     26  C   UNL     1       4.765  15.414  20.326  0.00  0.00    +0.000 C 
ATOM     27  C   UNL     1       6.229  14.894  20.294  0.00  0.00    +0.000 C 
ATOM     28  N   UNL     1       6.945  14.778  19.008  0.00  0.00    +0.000 NA
ATOM     29  C   UNL     1       6.047  14.701  17.847  0.00  0.00    +0.000 C 
ATOM     30  C   UNL     1       4.776  15.563  17.942  0.00  0.00    +0.000 C 
BRANCH  28  31
ATOM     31  C   UNL     1       8.026  15.753  18.812  0.00  0.00    +0.000 C 
BRANCH  31  32
ATOM     32  C   UNL     1       9.247  15.090  18.223  0.00  0.00    +0.000 A 
ATOM     33  C   UNL     1       9.446  13.671  18.092  0.00  0.00    +0.000 A 
ATOM     34  C   UNL     1      10.692  13.351  17.598  0.00  0.00    +0.000 A 
ATOM     35  S   UNL     1      11.609  14.741  17.220  0.00  0.00    +0.000 S 
ATOM     36  C   UNL     1      10.348  15.775  17.733  0.00  0.00    +0.000 A 
ENDBRANCH  31  32
ENDBRANCH  28  31
ENDBRANCH  24  25
ENDBRANCH   7  24
TORSDOF 8
ENDMDL
MODEL 5
REMARK VINA RESULT:      -6.1      3.715      6.646
REMARK  Name = 
REMARK  8 active torsions:
REMARK  status: ('A' for Active; 'I' for Inactive)
REMARK    1  A    between atoms: C_4  and  C_5
REMARK    2  A    between atoms: C_8  and  O_9
REMARK    3  A    between atoms: C_14  and  C_15
REMARK    4  A    between atoms: C_15  and  N_16
REMARK    5  A    between atoms: N_19  and  C_20
REMARK    6  A    between atoms: C_20  and  C_21
REMARK    7  A    between atoms: C_28  and  O_29
REMARK    8  A    between atoms: C_31  and  O_32
REMARK                            x       y       z     vdW  Elec       q    Type
REMARK                         _______ _______ _______ _____ _____    ______ ____
ROOT
ATOM      1  O   UNL     1      -6.799  12.025  20.200  0.00  0.00    +0.000 OA
ATOM      2  C   UNL     1      -5.607  12.307  20.243  0.00  0.00    +0.000 A 
ATOM      3  C   UNL     1      -5.073  12.929  21.459  0.00  0.00    +0.000 A 
ATOM      4  C   UNL     1      -3.805  13.350  21.463  0.00  0.00    +0.000 A 
ATOM      5  O   UNL     1      -2.926  13.249  20.398  0.00  0.00    +0.000 OA
ATOM      6  C   UNL     1      -3.282  12.431  19.343  0.00  0.00    +0.000 A 
ATOM      7  C   UNL     1      -2.253  11.993  18.476  0.00  0.00    +0.000 A 
ATOM      8  C   UNL     1      -2.591  10.952  17.604  0.00  0.00    +0.000 A 
ATOM      9  C   UNL     1      -3.918  10.569  17.377  0.00  0.00    +0.000 A 
ATOM     10  C   UNL     1      -4.932  11.119  18.141  0.00  0.00    +0.000 A 
ATOM     11  C   UNL     1      -4.611  11.980  19.193  0.00  0.00    +0.000 A 
ENDROOT
BRANCH   4  12
ATOM     12  C   UNL     1      -3.235  13.931  22.676  0.00  0.00    +0.000 A 
ATOM     13  C   UNL     1      -1.853  13.855  22.903  0.00  0.00    +0.000 A 
ATOM     14  C   UNL     1      -1.296  14.408  24.057  0.00  0.00    +0.000 A 
ATOM     15  C   UNL     1      -2.127  15.032  24.984  0.00  0.00    +0.000 A 
ATOM     16  C   UNL     1      -3.502  15.094  24.783  0.00  0.00    +0.000 A 
ATOM     17  C   UNL     1      -4.059  14.541  23.629  0.00  0.00    +0.000 A 
BRANCH  15  18
ATOM     18  O   UNL     1      -1.625  15.602  26.115  0.00  0.00    +0.000 OA
ATOM     19  H   UNL     1      -2.138  16.402  26.314  0.00  0.00    +0.000 HD
ENDBRANCH  15  18
ENDBRANCH   4  12
BRANCH   8  20
ATOM     20  O   UNL     1      -1.591  10.231  17.016  0.00  0.00    +0.000 OA
ATOM     21  H   UNL     1      -0.730  10.576  17.283  0.00  0.00    +0.000 HD
ENDBRANCH   8  20
BRANCH  10  22
ATOM     22  O   UNL     1      -6.223  10.757  17.891  0.00  0.00    +0.000 OA
ATOM     23  H   UNL     1      -6.307   9.794  17.820  0.00  0.00    +0.000 HD
ENDBRANCH  10  22
BRANCH   7  24
ATOM     24  C   UNL     1      -0.819  12.529  18.579  0.00  0.00    +0.000 C 
BRANCH  24  25
ATOM     25  N   UNL     1      -0.048  12.067  19.755  0.00  0.00    +0.000 NA
ATOM     26  C   UNL     1      -0.677  11.028  20.571  0.00  0.00    +0.000 C 
ATOM     27  C   UNL     1      -0.376   9.545  20.218  0.00  0.00    +0.000 C 
ATOM     28  N   UNL     1       0.868   9.191  19.506  0.00  0.00    +0.000 NA
ATOM     29  C   UNL     1       1.460  10.320  18.774  0.00  0.00    +0.000 C 
ATOM     30  C   UNL     1       1.334  11.689  19.465  0.00  0.00    +0.000 C 
BRANCH  28  31
ATOM     31  C   UNL     1       1.860   8.470  20.315  0.00  0.00    +0.000 C 
BRANCH  31  32
ATOM     32  C   UNL     1       2.135   7.104  19.736  0.00  0.00    +0.000 A 
ATOM     33  C   UNL     1       1.901   5.851  20.402  0.00  0.00    +0.000 A 
ATOM     34  C   UNL     1       2.327   4.768  19.665  0.00  0.00    +0.000 A 
ATOM     35  S   UNL     1       2.944   5.231  18.142  0.00  0.00    +0.000 S 
ATOM     36  C   UNL     1       2.660   6.884  18.472  0.00  0.00    +0.000 A 
ENDBRANCH  31  32
ENDBRANCH  28  31
ENDBRANCH  24  25
ENDBRANCH   7  24
TORSDOF 8
ENDMDL
MODEL 6
REMARK VINA RESULT:      -6.1      5.834     10.054
REMARK  Name = 
REMARK  8 active torsions:
REMARK  status: ('A' for Active; 'I' for Inactive)
REMARK    1  A    between atoms: C_4  and  C_5
REMARK    2  A    between atoms: C_8  and  O_9
REMARK    3  A    between atoms: C_14  and  C_15
REMARK    4  A    between atoms: C_15  and  N_16
REMARK    5  A    between atoms: N_19  and  C_20
REMARK    6  A    between atoms: C_20  and  C_21
REMARK    7  A    between atoms: C_28  and  O_29
REMARK    8  A    between atoms: C_31  and  O_32
REMARK                            x       y       z     vdW  Elec       q    Type
REMARK                         _______ _______ _______ _____ _____    ______ ____
ROOT
ATOM      1  O   UNL     1      -2.175  12.792  20.037  0.00  0.00    +0.000 OA
ATOM      2  C   UNL     1      -0.988  12.656  19.767  0.00  0.00    +0.000 A 
ATOM      3  C   UNL     1      -0.460  11.300  19.577  0.00  0.00    +0.000 A 
ATOM      4  C   UNL     1       0.855  11.141  19.405  0.00  0.00    +0.000 A 
ATOM      5  O   UNL     1       1.789  12.162  19.389  0.00  0.00    +0.000 OA
ATOM      6  C   UNL     1       1.325  13.459  19.283  0.00  0.00    +0.000 A 
ATOM      7  C   UNL     1       2.238  14.450  18.849  0.00  0.00    +0.000 A 
ATOM      8  C   UNL     1       1.678  15.678  18.480  0.00  0.00    +0.000 A 
ATOM      9  C   UNL     1       0.358  16.021  18.794  0.00  0.00    +0.000 A 
ATOM     10  C   UNL     1      -0.483  15.076  19.355  0.00  0.00    +0.000 A 
ATOM     11  C   UNL     1      -0.034  13.763  19.512  0.00  0.00    +0.000 A 
ENDROOT
BRANCH   4  12
ATOM     12  C   UNL     1       1.401   9.806  19.167  0.00  0.00    +0.000 A 
ATOM     13  C   UNL     1       1.388   8.855  20.197  0.00  0.00    +0.000 A 
ATOM     14  C   UNL     1       1.905   7.576  19.982  0.00  0.00    +0.000 A 
ATOM     15  C   UNL     1       2.437   7.256  18.737  0.00  0.00    +0.000 A 
ATOM     16  C   UNL     1       2.476   8.197  17.713  0.00  0.00    +0.000 A 
ATOM     17  C   UNL     1       1.960   9.476  17.928  0.00  0.00    +0.000 A 
BRANCH  15  18
ATOM     18  O   UNL     1       2.934   6.014  18.476  0.00  0.00    +0.000 OA
ATOM     19  H   UNL     1       2.256   5.500  18.008  0.00  0.00    +0.000 HD
ENDBRANCH  15  18
ENDBRANCH   4  12
BRANCH   8  20
ATOM     20  O   UNL     1       2.414  16.537  17.715  0.00  0.00    +0.000 OA
ATOM     21  H   UNL     1       2.998  17.063  18.275  0.00  0.00    +0.000 HD
ENDBRANCH   8  20
BRANCH  10  22
ATOM     22  O   UNL     1      -1.758  15.433  19.682  0.00  0.00    +0.000 OA
ATOM     23  H   UNL     1      -1.763  16.137  20.347  0.00  0.00    +0.000 HD
ENDBRANCH  10  22
BRANCH   7  24
ATOM     24  C   UNL     1       3.732  14.154  18.666  0.00  0.00    +0.000 C 
BRANCH  24  25
ATOM     25  N   UNL     1       4.639  15.309  18.852  0.00  0.00    +0.000 NA
ATOM     26  C   UNL     1       5.301  15.406  20.154  0.00  0.00    +0.000 C 
ATOM     27  C   UNL     1       6.688  14.726  20.316  0.00  0.00    +0.000 C 
ATOM     28  N   UNL     1       7.542  14.494  19.134  0.00  0.00    +0.000 NA
ATOM     29  C   UNL     1       6.793  14.484  17.869  0.00  0.00    +0.000 C 
ATOM     30  C   UNL     1       5.627  15.484  17.789  0.00  0.00    +0.000 C 
BRANCH  28  31
ATOM     31  C   UNL     1       8.743  15.337  19.064  0.00  0.00    +0.000 C 
BRANCH  31  32
ATOM     32  C   UNL     1       9.983  14.492  18.898  0.00  0.00    +0.000 A 
ATOM     33  C   UNL     1      10.484  13.979  17.652  0.00  0.00    +0.000 A 
ATOM     34  C   UNL     1      11.584  13.166  17.814  0.00  0.00    +0.000 A 
ATOM     35  S   UNL     1      12.073  13.066  19.447  0.00  0.00    +0.000 S 
ATOM     36  C   UNL     1      10.801  14.095  19.944  0.00  0.00    +0.000 A 
ENDBRANCH  31  32
ENDBRANCH  28  31
ENDBRANCH  24  25
ENDBRANCH   7  24
TORSDOF 8
ENDMDL
MODEL 7
REMARK VINA RESULT:      -6.0      4.805      9.064
REMARK  Name = 
REMARK  8 active torsions:
REMARK  status: ('A' for Active; 'I' for Inactive)
REMARK    1  A    between atoms: C_4  and  C_5
REMARK    2  A    between atoms: C_8  and  O_9
REMARK    3  A    between atoms: C_14  and  C_15
REMARK    4  A    between atoms: C_15  and  N_16
REMARK    5  A    between atoms: N_19  and  C_20
REMARK    6  A    between atoms: C_20  and  C_21
REMARK    7  A    between atoms: C_28  and  O_29
REMARK    8  A    between atoms: C_31  and  O_32
REMARK                            x       y       z     vdW  Elec       q    Type
REMARK                         _______ _______ _______ _____ _____    ______ ____
ROOT
ATOM      1  O   UNL     1      -0.940   9.267  23.328  0.00  0.00    +0.000 OA
ATOM      2  C   UNL     1      -0.382   9.681  22.319  0.00  0.00    +0.000 A 
ATOM      3  C   UNL     1       0.387   8.735  21.502  0.00  0.00    +0.000 A 
ATOM      4  C   UNL     1       1.096   9.205  20.472  0.00  0.00    +0.000 A 
ATOM      5  O   UNL     1       1.174  10.534  20.094  0.00  0.00    +0.000 OA
ATOM      6  C   UNL     1       0.264  11.415  20.645  0.00  0.00    +0.000 A 
ATOM      7  C   UNL     1       0.056  12.646  19.977  0.00  0.00    +0.000 A 
ATOM      8  C   UNL     1      -1.062  13.382  20.387  0.00  0.00    +0.000 A 
ATOM      9  C   UNL     1      -1.756  13.091  21.566  0.00  0.00    +0.000 A 
ATOM     10  C   UNL     1      -1.439  11.953  22.287  0.00  0.00    +0.000 A 
ATOM     11  C   UNL     1      -0.495  11.058  21.780  0.00  0.00    +0.000 A 
ENDROOT
BRANCH   4  12
ATOM     12  C   UNL     1       1.834   8.279  19.615  0.00  0.00    +0.000 A 
ATOM     13  C   UNL     1       2.198   7.016  20.104  0.00  0.00    +0.000 A 
ATOM     14  C   UNL     1       2.901   6.122  19.295  0.00  0.00    +0.000 A 
ATOM     15  C   UNL     1       3.240   6.497  17.999  0.00  0.00    +0.000 A 
ATOM     16  C   UNL     1       2.905   7.755  17.508  0.00  0.00    +0.000 A 
ATOM     17  C   UNL     1       2.203   8.649  18.317  0.00  0.00    +0.000 A 
BRANCH  15  18
ATOM     18  O   UNL     1       3.909   5.649  17.167  0.00  0.00    +0.000 OA
ATOM     19  H   UNL     1       4.457   6.175  16.563  0.00  0.00    +0.000 HD
ENDBRANCH  15  18
ENDBRANCH   4  12
BRANCH   8  20
ATOM     20  O   UNL     1      -1.542  14.365  19.569  0.00  0.00    +0.000 OA
ATOM     21  H   UNL     1      -1.008  15.163  19.660  0.00  0.00    +0.000 HD
ENDBRANCH   8  20
BRANCH  10  22
ATOM     22  O   UNL     1      -2.105  11.696  23.449  0.00  0.00    +0.000 OA
ATOM     23  H   UNL     1      -1.502  11.709  24.207  0.00  0.00    +0.000 HD
ENDBRANCH  10  22
BRANCH   7  24
ATOM     24  C   UNL     1       0.921  13.082  18.787  0.00  0.00    +0.000 C 
BRANCH  24  25
ATOM     25  N   UNL     1       1.469  14.454  18.866  0.00  0.00    +0.000 NA
ATOM     26  C   UNL     1       1.923  14.892  20.186  0.00  0.00    +0.000 C 
ATOM     27  C   UNL     1       3.409  14.643  20.564  0.00  0.00    +0.000 C 
ATOM     28  N   UNL     1       4.429  14.505  19.505  0.00  0.00    +0.000 NA
ATOM     29  C   UNL     1       3.865  14.131  18.200  0.00  0.00    +0.000 C 
ATOM     30  C   UNL     1       2.497  14.756  17.872  0.00  0.00    +0.000 C 
BRANCH  28  31
ATOM     31  C   UNL     1       5.371  15.629  19.403  0.00  0.00    +0.000 C 
BRANCH  31  32
ATOM     32  C   UNL     1       6.786  15.129  19.247  0.00  0.00    +0.000 A 
ATOM     33  C   UNL     1       7.633  14.669  20.314  0.00  0.00    +0.000 A 
ATOM     34  C   UNL     1       8.905  14.355  19.889  0.00  0.00    +0.000 A 
ATOM     35  S   UNL     1       9.079  14.538  18.200  0.00  0.00    +0.000 S 
ATOM     36  C   UNL     1       7.458  15.056  18.037  0.00  0.00    +0.000 A 
ENDBRANCH  31  32
ENDBRANCH  28  31
ENDBRANCH  24  25
ENDBRANCH   7  24
TORSDOF 8
ENDMDL
MODEL 8
REMARK VINA RESULT:      -6.0      4.929      8.876
REMARK  Name = 
REMARK  8 active torsions:
REMARK  status: ('A' for Active; 'I' for Inactive)
REMARK    1  A    between atoms: C_4  and  C_5
REMARK    2  A    between atoms: C_8  and  O_9
REMARK    3  A    between atoms: C_14  and  C_15
REMARK    4  A    between atoms: C_15  and  N_16
REMARK    5  A    between atoms: N_19  and  C_20
REMARK    6  A    between atoms: C_20  and  C_21
REMARK    7  A    between atoms: C_28  and  O_29
REMARK    8  A    between atoms: C_31  and  O_32
REMARK                            x       y       z     vdW  Elec       q    Type
REMARK                         _______ _______ _______ _____ _____    ______ ____
ROOT
ATOM      1  O   UNL     1      -1.778  10.994  23.376  0.00  0.00    +0.000 OA
ATOM      2  C   UNL     1      -1.080  11.296  22.415  0.00  0.00    +0.000 A 
ATOM      3  C   UNL     1      -0.383  10.229  21.688  0.00  0.00    +0.000 A 
ATOM      4  C   UNL     1       0.474  10.565  20.719  0.00  0.00    +0.000 A 
ATOM      5  O   UNL     1       0.771  11.859  20.328  0.00  0.00    +0.000 OA
ATOM      6  C   UNL     1      -0.052  12.874  20.777  0.00  0.00    +0.000 A 
ATOM      7  C   UNL     1      -0.025  14.101  20.072  0.00  0.00    +0.000 A 
ATOM      8  C   UNL     1      -1.060  14.997  20.366  0.00  0.00    +0.000 A 
ATOM      9  C   UNL     1      -1.889  14.840  21.482  0.00  0.00    +0.000 A 
ATOM     10  C   UNL     1      -1.800  13.691  22.248  0.00  0.00    +0.000 A 
ATOM     11  C   UNL     1      -0.950  12.660  21.845  0.00  0.00    +0.000 A 
ENDROOT
BRANCH   4  12
ATOM     12  C   UNL     1       1.146   9.521  19.949  0.00  0.00    +0.000 A 
ATOM     13  C   UNL     1       1.514   8.321  20.575  0.00  0.00    +0.000 A 
ATOM     14  C   UNL     1       2.155   7.315  19.850  0.00  0.00    +0.000 A 
ATOM     15  C   UNL     1       2.430   7.517  18.501  0.00  0.00    +0.000 A 
ATOM     16  C   UNL     1       2.091   8.711  17.872  0.00  0.00    +0.000 A 
ATOM     17  C   UNL     1       1.450   9.717  18.597  0.00  0.00    +0.000 A 
BRANCH  15  18
ATOM     18  O   UNL     1       3.036   6.555  17.750  0.00  0.00    +0.000 OA
ATOM     19  H   UNL     1       3.786   6.196  18.251  0.00  0.00    +0.000 HD
ENDBRANCH  15  18
ENDBRANCH   4  12
BRANCH   8  20
ATOM     20  O   UNL     1      -1.322  16.012  19.491  0.00  0.00    +0.000 OA
ATOM     21  H   UNL     1      -2.141  15.836  19.012  0.00  0.00    +0.000 HD
ENDBRANCH   8  20
BRANCH  10  22
ATOM     22  O   UNL     1      -2.596  13.564  23.349  0.00  0.00    +0.000 OA
ATOM     23  H   UNL     1      -2.828  12.636  23.505  0.00  0.00    +0.000 HD
ENDBRANCH  10  22
BRANCH   7  24
ATOM     24  C   UNL     1       0.994  14.378  18.960  0.00  0.00    +0.000 C 
BRANCH  24  25
ATOM     25  N   UNL     1       1.901  15.523  19.195  0.00  0.00    +0.000 NA
ATOM     26  C   UNL     1       2.822  15.394  20.326  0.00  0.00    +0.000 C 
ATOM     27  C   UNL     1       4.223  14.779  20.056  0.00  0.00    +0.000 C 
ATOM     28  N   UNL     1       4.811  14.842  18.703  0.00  0.00    +0.000 NA
ATOM     29  C   UNL     1       3.812  15.043  17.643  0.00  0.00    +0.000 C 
ATOM     30  C   UNL     1       2.639  15.968  18.014  0.00  0.00    +0.000 C 
BRANCH  28  31
ATOM     31  C   UNL     1       5.957  15.752  18.568  0.00  0.00    +0.000 C 
BRANCH  31  32
ATOM     32  C   UNL     1       7.254  15.019  18.806  0.00  0.00    +0.000 A 
ATOM     33  C   UNL     1       8.154  15.247  19.904  0.00  0.00    +0.000 A 
ATOM     34  C   UNL     1       9.304  14.492  19.817  0.00  0.00    +0.000 A 
ATOM     35  S   UNL     1       9.288  13.453  18.462  0.00  0.00    +0.000 S 
ATOM     36  C   UNL     1       7.751  14.024  17.978  0.00  0.00    +0.000 A 
ENDBRANCH  31  32
ENDBRANCH  28  31
ENDBRANCH  24  25
ENDBRANCH   7  24
TORSDOF 8
ENDMDL
MODEL 9
REMARK VINA RESULT:      -6.0      3.442      6.094
REMARK  Name = 
REMARK  8 active torsions:
REMARK  status: ('A' for Active; 'I' for Inactive)
REMARK    1  A    between atoms: C_4  and  C_5
REMARK    2  A    between atoms: C_8  and  O_9
REMARK    3  A    between atoms: C_14  and  C_15
REMARK    4  A    between atoms: C_15  and  N_16
REMARK    5  A    between atoms: N_19  and  C_20
REMARK    6  A    between atoms: C_20  and  C_21
REMARK    7  A    between atoms: C_28  and  O_29
REMARK    8  A    between atoms: C_31  and  O_32
REMARK                            x       y       z     vdW  Elec       q    Type
REMARK                         _______ _______ _______ _____ _____    ______ ____
ROOT
ATOM      1  O   UNL     1       0.764   9.021  17.739  0.00  0.00    +0.000 OA
ATOM      2  C   UNL     1       0.010   9.635  18.484  0.00  0.00    +0.000 A 
ATOM      3  C   UNL     1      -1.255  10.146  17.943  0.00  0.00    +0.000 A 
ATOM      4  C   UNL     1      -2.020  10.919  18.718  0.00  0.00    +0.000 A 
ATOM      5  O   UNL     1      -1.723  11.292  20.017  0.00  0.00    +0.000 OA
ATOM      6  C   UNL     1      -0.702  10.622  20.663  0.00  0.00    +0.000 A 
ATOM      7  C   UNL     1      -0.666  10.687  22.077  0.00  0.00    +0.000 A 
ATOM      8  C   UNL     1       0.191   9.779  22.708  0.00  0.00    +0.000 A 
ATOM      9  C   UNL     1       1.170   9.065  22.007  0.00  0.00    +0.000 A 
ATOM     10  C   UNL     1       1.209   9.129  20.626  0.00  0.00    +0.000 A 
ATOM     11  C   UNL     1       0.215   9.829  19.941  0.00  0.00    +0.000 A 
ENDROOT
BRANCH   4  12
ATOM     12  C   UNL     1      -3.306  11.403  18.219  0.00  0.00    +0.000 A 
ATOM     13  C   UNL     1      -3.616  11.277  16.857  0.00  0.00    +0.000 A 
ATOM     14  C   UNL     1      -4.841  11.734  16.368  0.00  0.00    +0.000 A 
ATOM     15  C   UNL     1      -5.750  12.319  17.244  0.00  0.00    +0.000 A 
ATOM     16  C   UNL     1      -5.446  12.470  18.593  0.00  0.00    +0.000 A 
ATOM     17  C   UNL     1      -4.221  12.015  19.082  0.00  0.00    +0.000 A 
BRANCH  15  18
ATOM     18  O   UNL     1      -6.965  12.760  16.815  0.00  0.00    +0.000 OA
ATOM     19  H   UNL     1      -7.596  12.023  16.855  0.00  0.00    +0.000 HD
ENDBRANCH  15  18
ENDBRANCH   4  12
BRANCH   8  20
ATOM     20  O   UNL     1       0.015   9.518  24.037  0.00  0.00    +0.000 OA
ATOM     21  H   UNL     1      -0.827   9.069  24.180  0.00  0.00    +0.000 HD
ENDBRANCH   8  20
BRANCH  10  22
ATOM     22  O   UNL     1       2.186   8.449  19.957  0.00  0.00    +0.000 OA
ATOM     23  H   UNL     1       2.630   7.816  20.540  0.00  0.00    +0.000 HD
ENDBRANCH  10  22
BRANCH   7  24
ATOM     24  C   UNL     1      -1.607  11.600  22.873  0.00  0.00    +0.000 C 
BRANCH  24  25
ATOM     25  N   UNL     1      -1.065  12.934  23.212  0.00  0.00    +0.000 NA
ATOM     26  C   UNL     1      -0.203  13.555  22.206  0.00  0.00    +0.000 C 
ATOM     27  C   UNL     1      -0.869  14.473  21.144  0.00  0.00    +0.000 C 
ATOM     28  N   UNL     1      -2.156  15.135  21.440  0.00  0.00    +0.000 NA
ATOM     29  C   UNL     1      -2.915  14.477  22.513  0.00  0.00    +0.000 C 
ATOM     30  C   UNL     1      -2.065  13.902  23.661  0.00  0.00    +0.000 C 
BRANCH  28  31
ATOM     31  C   UNL     1      -2.074  16.590  21.627  0.00  0.00    +0.000 C 
BRANCH  31  32
ATOM     32  C   UNL     1      -1.281  17.230  20.514  0.00  0.00    +0.000 A 
ATOM     33  C   UNL     1      -1.715  17.367  19.150  0.00  0.00    +0.000 A 
ATOM     34  C   UNL     1      -0.749  17.913  18.335  0.00  0.00    +0.000 A 
ATOM     35  S   UNL     1       0.661  18.332  19.203  0.00  0.00    +0.000 S 
ATOM     36  C   UNL     1      -0.013  17.767  20.669  0.00  0.00    +0.000 A 
ENDBRANCH  31  32
ENDBRANCH  28  31
ENDBRANCH  24  25
ENDBRANCH   7  24
TORSDOF 8
ENDMDL
