MODEL 1
REMARK VINA RESULT:      -8.4      0.000      0.000
REMARK  Name = 
REMARK  11 active torsions:
REMARK  status: ('A' for Active; 'I' for Inactive)
REMARK    1  A    between atoms: C_1  and  O_2
REMARK    2  A    between atoms: O_2  and  C_3
REMARK    3  A    between atoms: C_3  and  C_5
REMARK    4  A    between atoms: C_5  and  C_6
REMARK    5  A    between atoms: C_5  and  C_16
REMARK    6  A    between atoms: C_6  and  C_7
REMARK    7  A    between atoms: C_11  and  C_12
REMARK    8  A    between atoms: C_16  and  C_17
REMARK    9  A    between atoms: C_16  and  N_25
REMARK   10  A    between atoms: C_18  and  C_19
REMARK   11  A    between atoms: C_26  and  C_28
REMARK                            x       y       z     vdW  Elec       q    Type
REMARK                         _______ _______ _______ _____ _____    ______ ____
ROOT
ATOM      1  C   UNL     1       6.146   4.707  16.472  0.00  0.00    +0.000 C 
ENDROOT
BRANCH   1   2
ATOM      2  N   UNL     1       5.763   4.094  15.196  0.00  0.00    +0.000 N 
ATOM      3  C   UNL     1       6.399   4.344  13.990  0.00  0.00    +0.000 C 
ATOM      4  O   UNL     1       7.311   5.147  13.841  0.00  0.00    +0.000 OA
ATOM      5  H   UNL     1       5.151   3.291  15.257  0.00  0.00    +0.000 HD
BRANCH   3   6
ATOM      6  C   UNL     1       5.956   3.518  12.839  0.00  0.00    +0.000 A 
ATOM      7  C   UNL     1       6.805   2.583  12.237  0.00  0.00    +0.000 A 
ATOM      8  C   UNL     1       6.354   1.838  11.145  0.00  0.00    +0.000 A 
ATOM      9  C   UNL     1       5.060   2.022  10.658  0.00  0.00    +0.000 A 
ATOM     10  C   UNL     1       4.205   2.937  11.270  0.00  0.00    +0.000 A 
ATOM     11  C   UNL     1       4.648   3.681  12.363  0.00  0.00    +0.000 A 
ENDBRANCH   3   6
ENDBRANCH   1   2
BRANCH   1  12
ATOM     12  C   UNL     1       5.169   4.182  17.490  0.00  0.00    +0.000 C 
ATOM     13  C   UNL     1       4.020   3.534  17.230  0.00  0.00    +0.000 C 
BRANCH  13  14
ATOM     14  C   UNL     1       3.121   3.083  18.304  0.00  0.00    +0.000 A 
ATOM     15  C   UNL     1       3.572   2.905  19.620  0.00  0.00    +0.000 A 
ATOM     16  C   UNL     1       2.704   2.464  20.621  0.00  0.00    +0.000 A 
ATOM     17  C   UNL     1       1.368   2.215  20.320  0.00  0.00    +0.000 A 
ATOM     18  C   UNL     1       0.900   2.420  19.023  0.00  0.00    +0.000 A 
ATOM     19  C   UNL     1       1.770   2.857  18.021  0.00  0.00    +0.000 A 
ENDBRANCH  13  14
ENDBRANCH   1  12
BRANCH   1  20
ATOM     20  C   UNL     1       6.176   6.243  16.415  0.00  0.00    +0.000 C 
BRANCH  20  21
ATOM     21  C   UNL     1       7.092   6.776  17.493  0.00  0.00    +0.000 C 
ATOM     22  O   UNL     1       7.233   6.284  18.602  0.00  0.00    +0.000 OA
BRANCH  21  24
ATOM     23  C   UNL     1       8.021   8.924  17.942  0.00  0.00    +0.000 C 
ATOM     24  O   UNL     1       7.810   7.838  17.030  0.00  0.00    +0.000 OA
ENDBRANCH  21  24
ENDBRANCH  20  21
BRANCH  20  25
ATOM     25  C   UNL     1       4.813   6.940  16.336  0.00  0.00    +0.000 C 
BRANCH  25  26
ATOM     26  C   UNL     1       3.949   7.418  17.489  0.00  0.00    +0.000 A 
ATOM     27  C   UNL     1       3.801   6.503  18.552  0.00  0.00    +0.000 A 
ATOM     28  C   UNL     1       2.773   6.623  19.482  0.00  0.00    +0.000 A 
ATOM     29  C   UNL     1       1.908   7.708  19.415  0.00  0.00    +0.000 A 
ATOM     30  C   UNL     1       2.133   8.722  18.478  0.00  0.00    +0.000 A 
ATOM     31  C   UNL     1       3.135   8.561  17.498  0.00  0.00    +0.000 A 
BRANCH  30  32
ATOM     32  C   UNL     1       1.294   9.962  18.532  0.00  0.00    +0.000 C 
ATOM     33  N   UNL     1       1.654  11.082  17.985  0.00  0.00    +0.000 NA
ATOM     34  N   UNL     1       0.085   9.976  19.152  0.00  0.00    +0.000 N 
ATOM     35  H   UNL     1       2.537  10.993  17.480  0.00  0.00    +0.000 HD
ATOM     36  H   UNL     1      -0.023   9.404  19.980  0.00  0.00    +0.000 HD
ATOM     37  H   UNL     1      -0.252  10.926  19.272  0.00  0.00    +0.000 HD
ENDBRANCH  30  32
ENDBRANCH  25  26
ENDBRANCH  20  25
ENDBRANCH   1  20
TORSDOF 10
ENDMDL
MODEL 2
REMARK VINA RESULT:      -8.4      3.619      8.351
REMARK  Name = 
REMARK  11 active torsions:
REMARK  status: ('A' for Active; 'I' for Inactive)
REMARK    1  A    between atoms: C_1  and  O_2
REMARK    2  A    between atoms: O_2  and  C_3
REMARK    3  A    between atoms: C_3  and  C_5
REMARK    4  A    between atoms: C_5  and  C_6
REMARK    5  A    between atoms: C_5  and  C_16
REMARK    6  A    between atoms: C_6  and  C_7
REMARK    7  A    between atoms: C_11  and  C_12
REMARK    8  A    between atoms: C_16  and  C_17
REMARK    9  A    between atoms: C_16  and  N_25
REMARK   10  A    between atoms: C_18  and  C_19
REMARK   11  A    between atoms: C_26  and  C_28
REMARK                            x       y       z     vdW  Elec       q    Type
REMARK                         _______ _______ _______ _____ _____    ______ ____
ROOT
ATOM      1  C   UNL     1       1.506   8.401  19.495  0.00  0.00    +0.000 C 
ENDROOT
BRANCH   1   2
ATOM      2  N   UNL     1       0.282   8.862  18.832  0.00  0.00    +0.000 N 
ATOM      3  C   UNL     1      -0.220  10.151  18.933  0.00  0.00    +0.000 C 
ATOM      4  O   UNL     1       0.267  11.031  19.630  0.00  0.00    +0.000 OA
ATOM      5  H   UNL     1      -0.076   8.265  18.100  0.00  0.00    +0.000 HD
BRANCH   3   6
ATOM      6  C   UNL     1      -1.390  10.460  18.074  0.00  0.00    +0.000 A 
ATOM      7  C   UNL     1      -2.330  11.431  18.437  0.00  0.00    +0.000 A 
ATOM      8  C   UNL     1      -3.426  11.679  17.607  0.00  0.00    +0.000 A 
ATOM      9  C   UNL     1      -3.582  10.965  16.419  0.00  0.00    +0.000 A 
ATOM     10  C   UNL     1      -2.635  10.013  16.045  0.00  0.00    +0.000 A 
ATOM     11  C   UNL     1      -1.536   9.763  16.868  0.00  0.00    +0.000 A 
ENDBRANCH   3   6
ENDBRANCH   1   2
BRANCH   1  12
ATOM     12  C   UNL     1       2.214   7.531  18.490  0.00  0.00    +0.000 C 
ATOM     13  C   UNL     1       3.544   7.430  18.322  0.00  0.00    +0.000 C 
BRANCH  13  14
ATOM     14  C   UNL     1       4.135   6.565  17.290  0.00  0.00    +0.000 A 
ATOM     15  C   UNL     1       4.907   7.086  16.241  0.00  0.00    +0.000 A 
ATOM     16  C   UNL     1       5.448   6.247  15.264  0.00  0.00    +0.000 A 
ATOM     17  C   UNL     1       5.240   4.873  15.339  0.00  0.00    +0.000 A 
ATOM     18  C   UNL     1       4.503   4.339  16.394  0.00  0.00    +0.000 A 
ATOM     19  C   UNL     1       3.957   5.180  17.368  0.00  0.00    +0.000 A 
ENDBRANCH  13  14
ENDBRANCH   1  12
BRANCH   1  20
ATOM     20  C   UNL     1       1.233   7.673  20.822  0.00  0.00    +0.000 C 
BRANCH  20  21
ATOM     21  C   UNL     1       1.137   8.680  21.945  0.00  0.00    +0.000 C 
ATOM     22  O   UNL     1       2.080   9.295  22.421  0.00  0.00    +0.000 OA
BRANCH  21  24
ATOM     23  C   UNL     1      -0.468  10.089  23.002  0.00  0.00    +0.000 C 
ATOM     24  O   UNL     1      -0.163   8.874  22.306  0.00  0.00    +0.000 OA
ENDBRANCH  21  24
ENDBRANCH  20  21
BRANCH  20  25
ATOM     25  C   UNL     1       2.129   6.466  21.123  0.00  0.00    +0.000 C 
BRANCH  25  26
ATOM     26  C   UNL     1       2.059   5.083  20.503  0.00  0.00    +0.000 A 
ATOM     27  C   UNL     1       0.765   4.529  20.409  0.00  0.00    +0.000 A 
ATOM     28  C   UNL     1       0.567   3.164  20.222  0.00  0.00    +0.000 A 
ATOM     29  C   UNL     1       1.661   2.326  20.051  0.00  0.00    +0.000 A 
ATOM     30  C   UNL     1       2.948   2.869  19.968  0.00  0.00    +0.000 A 
ATOM     31  C   UNL     1       3.147   4.243  20.224  0.00  0.00    +0.000 A 
BRANCH  30  32
ATOM     32  C   UNL     1       4.094   1.973  19.614  0.00  0.00    +0.000 C 
ATOM     33  N   UNL     1       4.144   1.292  18.511  0.00  0.00    +0.000 NA
ATOM     34  N   UNL     1       5.169   1.835  20.434  0.00  0.00    +0.000 N 
ATOM     35  H   UNL     1       3.343   1.485  17.907  0.00  0.00    +0.000 HD
ATOM     36  H   UNL     1       5.004   1.869  21.432  0.00  0.00    +0.000 HD
ATOM     37  H   UNL     1       5.748   1.052  20.148  0.00  0.00    +0.000 HD
ENDBRANCH  30  32
ENDBRANCH  25  26
ENDBRANCH  20  25
ENDBRANCH   1  20
TORSDOF 10
ENDMDL
MODEL 3
REMARK VINA RESULT:      -8.2      4.858     10.123
REMARK  Name = 
REMARK  11 active torsions:
REMARK  status: ('A' for Active; 'I' for Inactive)
REMARK    1  A    between atoms: C_1  and  O_2
REMARK    2  A    between atoms: O_2  and  C_3
REMARK    3  A    between atoms: C_3  and  C_5
REMARK    4  A    between atoms: C_5  and  C_6
REMARK    5  A    between atoms: C_5  and  C_16
REMARK    6  A    between atoms: C_6  and  C_7
REMARK    7  A    between atoms: C_11  and  C_12
REMARK    8  A    between atoms: C_16  and  C_17
REMARK    9  A    between atoms: C_16  and  N_25
REMARK   10  A    between atoms: C_18  and  C_19
REMARK   11  A    between atoms: C_26  and  C_28
REMARK                            x       y       z     vdW  Elec       q    Type
REMARK                         _______ _______ _______ _____ _____    ______ ____
ROOT
ATOM      1  C   UNL     1       0.910  10.086  19.892  0.00  0.00    +0.000 C 
ENDROOT
BRANCH   1   2
ATOM      2  N   UNL     1       1.135  11.468  20.324  0.00  0.00    +0.000 N 
ATOM      3  C   UNL     1       1.806  12.420  19.571  0.00  0.00    +0.000 C 
ATOM      4  O   UNL     1       2.336  12.200  18.490  0.00  0.00    +0.000 OA
ATOM      5  H   UNL     1       0.579  11.783  21.107  0.00  0.00    +0.000 HD
BRANCH   3   6
ATOM      6  C   UNL     1       1.804  13.800  20.118  0.00  0.00    +0.000 A 
ATOM      7  C   UNL     1       2.752  14.217  21.059  0.00  0.00    +0.000 A 
ATOM      8  C   UNL     1       2.705  15.519  21.561  0.00  0.00    +0.000 A 
ATOM      9  C   UNL     1       1.718  16.403  21.124  0.00  0.00    +0.000 A 
ATOM     10  C   UNL     1       0.786  15.996  20.171  0.00  0.00    +0.000 A 
ATOM     11  C   UNL     1       0.831  14.698  19.662  0.00  0.00    +0.000 A 
ENDBRANCH   3   6
ENDBRANCH   1   2
BRANCH   1  12
ATOM     12  C   UNL     1      -0.073  10.164  18.755  0.00  0.00    +0.000 C 
ATOM     13  C   UNL     1      -1.360  10.544  18.840  0.00  0.00    +0.000 C 
BRANCH  13  14
ATOM     14  C   UNL     1      -2.246  10.563  17.665  0.00  0.00    +0.000 A 
ATOM     15  C   UNL     1      -1.986   9.779  16.532  0.00  0.00    +0.000 A 
ATOM     16  C   UNL     1      -2.834   9.821  15.422  0.00  0.00    +0.000 A 
ATOM     17  C   UNL     1      -3.964  10.634  15.444  0.00  0.00    +0.000 A 
ATOM     18  C   UNL     1      -4.250  11.392  16.578  0.00  0.00    +0.000 A 
ATOM     19  C   UNL     1      -3.399  11.353  17.686  0.00  0.00    +0.000 A 
ENDBRANCH  13  14
ENDBRANCH   1  12
BRANCH   1  20
ATOM     20  C   UNL     1       0.428   9.172  21.031  0.00  0.00    +0.000 C 
BRANCH  20  21
ATOM     21  C   UNL     1       0.070  10.007  22.239  0.00  0.00    +0.000 C 
ATOM     22  O   UNL     1       0.710  10.050  23.279  0.00  0.00    +0.000 OA
BRANCH  21  24
ATOM     23  C   UNL     1      -1.671  11.381  23.111  0.00  0.00    +0.000 C 
ATOM     24  O   UNL     1      -1.024  10.777  21.983  0.00  0.00    +0.000 OA
ENDBRANCH  21  24
ENDBRANCH  20  21
BRANCH  20  25
ATOM     25  C   UNL     1       1.310   7.956  21.337  0.00  0.00    +0.000 C 
BRANCH  25  26
ATOM     26  C   UNL     1       1.826   6.916  20.359  0.00  0.00    +0.000 A 
ATOM     27  C   UNL     1       2.404   7.432  19.180  0.00  0.00    +0.000 A 
ATOM     28  C   UNL     1       2.577   6.643  18.046  0.00  0.00    +0.000 A 
ATOM     29  C   UNL     1       2.242   5.296  18.087  0.00  0.00    +0.000 A 
ATOM     30  C   UNL     1       1.828   4.717  19.291  0.00  0.00    +0.000 A 
ATOM     31  C   UNL     1       1.592   5.534  20.417  0.00  0.00    +0.000 A 
BRANCH  30  32
ATOM     32  C   UNL     1       1.635   3.233  19.357  0.00  0.00    +0.000 C 
ATOM     33  N   UNL     1       2.510   2.387  18.908  0.00  0.00    +0.000 NA
ATOM     34  N   UNL     1       0.525   2.684  19.915  0.00  0.00    +0.000 N 
ATOM     35  H   UNL     1       3.350   2.854  18.561  0.00  0.00    +0.000 HD
ATOM     36  H   UNL     1      -0.350   3.179  19.800  0.00  0.00    +0.000 HD
ATOM     37  H   UNL     1       0.460   1.694  19.699  0.00  0.00    +0.000 HD
ENDBRANCH  30  32
ENDBRANCH  25  26
ENDBRANCH  20  25
ENDBRANCH   1  20
TORSDOF 10
ENDMDL
MODEL 4
REMARK VINA RESULT:      -8.2      4.263      9.780
REMARK  Name = 
REMARK  11 active torsions:
REMARK  status: ('A' for Active; 'I' for Inactive)
REMARK    1  A    between atoms: C_1  and  O_2
REMARK    2  A    between atoms: O_2  and  C_3
REMARK    3  A    between atoms: C_3  and  C_5
REMARK    4  A    between atoms: C_5  and  C_6
REMARK    5  A    between atoms: C_5  and  C_16
REMARK    6  A    between atoms: C_6  and  C_7
REMARK    7  A    between atoms: C_11  and  C_12
REMARK    8  A    between atoms: C_16  and  C_17
REMARK    9  A    between atoms: C_16  and  N_25
REMARK   10  A    between atoms: C_18  and  C_19
REMARK   11  A    between atoms: C_26  and  C_28
REMARK                            x       y       z     vdW  Elec       q    Type
REMARK                         _______ _______ _______ _____ _____    ______ ____
ROOT
ATOM      1  C   UNL     1       1.186   9.717  19.349  0.00  0.00    +0.000 C 
ENDROOT
BRANCH   1   2
ATOM      2  N   UNL     1       1.329  11.023  20.000  0.00  0.00    +0.000 N 
ATOM      3  C   UNL     1       1.932  12.124  19.412  0.00  0.00    +0.000 C 
ATOM      4  O   UNL     1       2.464  12.116  18.310  0.00  0.00    +0.000 OA
ATOM      5  H   UNL     1       0.763  11.170  20.824  0.00  0.00    +0.000 HD
BRANCH   3   6
ATOM      6  C   UNL     1       1.851  13.394  20.176  0.00  0.00    +0.000 A 
ATOM      7  C   UNL     1       0.621  13.982  20.492  0.00  0.00    +0.000 A 
ATOM      8  C   UNL     1       0.589  15.187  21.198  0.00  0.00    +0.000 A 
ATOM      9  C   UNL     1       1.779  15.800  21.592  0.00  0.00    +0.000 A 
ATOM     10  C   UNL     1       3.004  15.204  21.297  0.00  0.00    +0.000 A 
ATOM     11  C   UNL     1       3.042  13.999  20.596  0.00  0.00    +0.000 A 
ENDBRANCH   3   6
ENDBRANCH   1   2
BRANCH   1  12
ATOM     12  C   UNL     1       0.004   9.845  18.425  0.00  0.00    +0.000 C 
ATOM     13  C   UNL     1      -1.064  10.641  18.605  0.00  0.00    +0.000 C 
BRANCH  13  14
ATOM     14  C   UNL     1      -2.181  10.673  17.647  0.00  0.00    +0.000 A 
ATOM     15  C   UNL     1      -3.345  11.416  17.894  0.00  0.00    +0.000 A 
ATOM     16  C   UNL     1      -4.398  11.422  16.977  0.00  0.00    +0.000 A 
ATOM     17  C   UNL     1      -4.289  10.700  15.791  0.00  0.00    +0.000 A 
ATOM     18  C   UNL     1      -3.125   9.985  15.520  0.00  0.00    +0.000 A 
ATOM     19  C   UNL     1      -2.073   9.975  16.440  0.00  0.00    +0.000 A 
ENDBRANCH  13  14
ENDBRANCH   1  12
BRANCH   1  20
ATOM     20  C   UNL     1       1.033   8.560  20.351  0.00  0.00    +0.000 C 
BRANCH  20  21
ATOM     21  C   UNL     1       0.811   9.114  21.740  0.00  0.00    +0.000 C 
ATOM     22  O   UNL     1       1.694   9.365  22.546  0.00  0.00    +0.000 OA
BRANCH  21  24
ATOM     23  C   UNL     1      -0.833  10.286  23.005  0.00  0.00    +0.000 C 
ATOM     24  O   UNL     1      -0.510   9.377  21.945  0.00  0.00    +0.000 OA
ENDBRANCH  21  24
ENDBRANCH  20  21
BRANCH  20  25
ATOM     25  C   UNL     1       2.092   7.455  20.268  0.00  0.00    +0.000 C 
BRANCH  25  26
ATOM     26  C   UNL     1       2.565   6.716  19.030  0.00  0.00    +0.000 A 
ATOM     27  C   UNL     1       1.965   5.458  18.812  0.00  0.00    +0.000 A 
ATOM     28  C   UNL     1       2.535   4.513  17.964  0.00  0.00    +0.000 A 
ATOM     29  C   UNL     1       3.686   4.831  17.254  0.00  0.00    +0.000 A 
ATOM     30  C   UNL     1       4.209   6.127  17.318  0.00  0.00    +0.000 A 
ATOM     31  C   UNL     1       3.665   7.058  18.228  0.00  0.00    +0.000 A 
BRANCH  30  32
ATOM     32  C   UNL     1       5.346   6.498  16.417  0.00  0.00    +0.000 C 
ATOM     33  N   UNL     1       5.409   6.138  15.173  0.00  0.00    +0.000 NA
ATOM     34  N   UNL     1       6.383   7.259  16.857  0.00  0.00    +0.000 N 
ATOM     35  H   UNL     1       4.574   5.625  14.882  0.00  0.00    +0.000 HD
ATOM     36  H   UNL     1       6.679   7.136  17.817  0.00  0.00    +0.000 HD
ATOM     37  H   UNL     1       7.151   7.247  16.194  0.00  0.00    +0.000 HD
ENDBRANCH  30  32
ENDBRANCH  25  26
ENDBRANCH  20  25
ENDBRANCH   1  20
TORSDOF 10
ENDMDL
MODEL 5
REMARK VINA RESULT:      -8.1      2.617      6.635
REMARK  Name = 
REMARK  11 active torsions:
REMARK  status: ('A' for Active; 'I' for Inactive)
REMARK    1  A    between atoms: C_1  and  O_2
REMARK    2  A    between atoms: O_2  and  C_3
REMARK    3  A    between atoms: C_3  and  C_5
REMARK    4  A    between atoms: C_5  and  C_6
REMARK    5  A    between atoms: C_5  and  C_16
REMARK    6  A    between atoms: C_6  and  C_7
REMARK    7  A    between atoms: C_11  and  C_12
REMARK    8  A    between atoms: C_16  and  C_17
REMARK    9  A    between atoms: C_16  and  N_25
REMARK   10  A    between atoms: C_18  and  C_19
REMARK   11  A    between atoms: C_26  and  C_28
REMARK                            x       y       z     vdW  Elec       q    Type
REMARK                         _______ _______ _______ _____ _____    ______ ____
ROOT
ATOM      1  C   UNL     1       5.662   6.395  16.262  0.00  0.00    +0.000 C 
ENDROOT
BRANCH   1   2
ATOM      2  N   UNL     1       4.724   5.601  17.062  0.00  0.00    +0.000 N 
ATOM      3  C   UNL     1       3.649   6.133  17.758  0.00  0.00    +0.000 C 
ATOM      4  O   UNL     1       3.396   7.327  17.832  0.00  0.00    +0.000 OA
ATOM      5  H   UNL     1       4.748   4.602  16.908  0.00  0.00    +0.000 HD
BRANCH   3   6
ATOM      6  C   UNL     1       2.734   5.149  18.389  0.00  0.00    +0.000 A 
ATOM      7  C   UNL     1       2.341   3.982  17.725  0.00  0.00    +0.000 A 
ATOM      8  C   UNL     1       1.464   3.091  18.349  0.00  0.00    +0.000 A 
ATOM      9  C   UNL     1       0.985   3.361  19.631  0.00  0.00    +0.000 A 
ATOM     10  C   UNL     1       1.393   4.513  20.302  0.00  0.00    +0.000 A 
ATOM     11  C   UNL     1       2.271   5.404  19.686  0.00  0.00    +0.000 A 
ENDBRANCH   3   6
ENDBRANCH   1   2
BRANCH   1  12
ATOM     12  C   UNL     1       5.995   5.551  15.061  0.00  0.00    +0.000 C 
ATOM     13  C   UNL     1       5.161   4.711  14.422  0.00  0.00    +0.000 C 
BRANCH  13  14
ATOM     14  C   UNL     1       5.597   3.911  13.267  0.00  0.00    +0.000 A 
ATOM     15  C   UNL     1       6.948   3.815  12.901  0.00  0.00    +0.000 A 
ATOM     16  C   UNL     1       7.338   3.059  11.793  0.00  0.00    +0.000 A 
ATOM     17  C   UNL     1       6.381   2.373  11.050  0.00  0.00    +0.000 A 
ATOM     18  C   UNL     1       5.040   2.434  11.423  0.00  0.00    +0.000 A 
ATOM     19  C   UNL     1       4.649   3.194  12.529  0.00  0.00    +0.000 A 
ENDBRANCH  13  14
ENDBRANCH   1  12
BRANCH   1  20
ATOM     20  C   UNL     1       6.910   6.823  17.051  0.00  0.00    +0.000 C 
BRANCH  20  21
ATOM     21  C   UNL     1       7.408   5.666  17.886  0.00  0.00    +0.000 C 
ATOM     22  O   UNL     1       7.982   4.679  17.449  0.00  0.00    +0.000 OA
BRANCH  21  24
ATOM     23  C   UNL     1       8.195   5.408  20.121  0.00  0.00    +0.000 C 
ATOM     24  O   UNL     1       7.206   5.909  19.212  0.00  0.00    +0.000 OA
ENDBRANCH  21  24
ENDBRANCH  20  21
BRANCH  20  25
ATOM     25  C   UNL     1       6.805   8.154  17.805  0.00  0.00    +0.000 C 
BRANCH  25  26
ATOM     26  C   UNL     1       7.885   9.206  17.981  0.00  0.00    +0.000 A 
ATOM     27  C   UNL     1       8.878   8.897  18.934  0.00  0.00    +0.000 A 
ATOM     28  C   UNL     1       9.701   9.880  19.476  0.00  0.00    +0.000 A 
ATOM     29  C   UNL     1       9.600  11.189  19.024  0.00  0.00    +0.000 A 
ATOM     30  C   UNL     1       8.744  11.495  17.961  0.00  0.00    +0.000 A 
ATOM     31  C   UNL     1       7.867  10.509  17.461  0.00  0.00    +0.000 A 
BRANCH  30  32
ATOM     32  C   UNL     1       8.773  12.874  17.376  0.00  0.00    +0.000 C 
ATOM     33  N   UNL     1       7.703  13.575  17.167  0.00  0.00    +0.000 NA
ATOM     34  N   UNL     1       9.943  13.480  17.043  0.00  0.00    +0.000 N 
ATOM     35  H   UNL     1       6.862  13.096  17.495  0.00  0.00    +0.000 HD
ATOM     36  H   UNL     1      10.688  12.896  16.685  0.00  0.00    +0.000 HD
ATOM     37  H   UNL     1       9.777  14.310  16.483  0.00  0.00    +0.000 HD
ENDBRANCH  30  32
ENDBRANCH  25  26
ENDBRANCH  20  25
ENDBRANCH   1  20
TORSDOF 10
ENDMDL
MODEL 6
REMARK VINA RESULT:      -8.1      2.591      6.661
REMARK  Name = 
REMARK  11 active torsions:
REMARK  status: ('A' for Active; 'I' for Inactive)
REMARK    1  A    between atoms: C_1  and  O_2
REMARK    2  A    between atoms: O_2  and  C_3
REMARK    3  A    between atoms: C_3  and  C_5
REMARK    4  A    between atoms: C_5  and  C_6
REMARK    5  A    between atoms: C_5  and  C_16
REMARK    6  A    between atoms: C_6  and  C_7
REMARK    7  A    between atoms: C_11  and  C_12
REMARK    8  A    between atoms: C_16  and  C_17
REMARK    9  A    between atoms: C_16  and  N_25
REMARK   10  A    between atoms: C_18  and  C_19
REMARK   11  A    between atoms: C_26  and  C_28
REMARK                            x       y       z     vdW  Elec       q    Type
REMARK                         _______ _______ _______ _____ _____    ______ ____
ROOT
ATOM      1  C   UNL     1       5.669   6.294  16.262  0.00  0.00    +0.000 C 
ENDROOT
BRANCH   1   2
ATOM      2  N   UNL     1       4.730   5.544  17.101  0.00  0.00    +0.000 N 
ATOM      3  C   UNL     1       3.615   6.099  17.710  0.00  0.00    +0.000 C 
ATOM      4  O   UNL     1       3.321   7.286  17.667  0.00  0.00    +0.000 OA
ATOM      5  H   UNL     1       4.790   4.536  17.040  0.00  0.00    +0.000 HD
BRANCH   3   6
ATOM      6  C   UNL     1       2.710   5.145  18.400  0.00  0.00    +0.000 A 
ATOM      7  C   UNL     1       2.387   5.289  19.753  0.00  0.00    +0.000 A 
ATOM      8  C   UNL     1       1.544   4.359  20.368  0.00  0.00    +0.000 A 
ATOM      9  C   UNL     1       1.024   3.293  19.634  0.00  0.00    +0.000 A 
ATOM     10  C   UNL     1       1.328   3.160  18.280  0.00  0.00    +0.000 A 
ATOM     11  C   UNL     1       2.165   4.088  17.660  0.00  0.00    +0.000 A 
ENDBRANCH   3   6
ENDBRANCH   1   2
BRANCH   1  12
ATOM     12  C   UNL     1       6.009   5.385  15.111  0.00  0.00    +0.000 C 
ATOM     13  C   UNL     1       5.138   4.833  14.249  0.00  0.00    +0.000 C 
BRANCH  13  14
ATOM     14  C   UNL     1       5.575   3.935  13.168  0.00  0.00    +0.000 A 
ATOM     15  C   UNL     1       4.660   3.187  12.413  0.00  0.00    +0.000 A 
ATOM     16  C   UNL     1       5.098   2.332  11.399  0.00  0.00    +0.000 A 
ATOM     17  C   UNL     1       6.458   2.231  11.117  0.00  0.00    +0.000 A 
ATOM     18  C   UNL     1       7.374   2.994  11.838  0.00  0.00    +0.000 A 
ATOM     19  C   UNL     1       6.935   3.846  12.855  0.00  0.00    +0.000 A 
ENDBRANCH  13  14
ENDBRANCH   1  12
BRANCH   1  20
ATOM     20  C   UNL     1       6.914   6.769  17.031  0.00  0.00    +0.000 C 
BRANCH  20  21
ATOM     21  C   UNL     1       7.442   5.643  17.891  0.00  0.00    +0.000 C 
ATOM     22  O   UNL     1       8.048   4.666  17.477  0.00  0.00    +0.000 OA
BRANCH  21  24
ATOM     23  C   UNL     1       8.212   5.435  20.137  0.00  0.00    +0.000 C 
ATOM     24  O   UNL     1       7.224   5.906  19.210  0.00  0.00    +0.000 OA
ENDBRANCH  21  24
ENDBRANCH  20  21
BRANCH  20  25
ATOM     25  C   UNL     1       6.786   8.115  17.752  0.00  0.00    +0.000 C 
BRANCH  25  26
ATOM     26  C   UNL     1       7.862   9.168  17.946  0.00  0.00    +0.000 A 
ATOM     27  C   UNL     1       8.857   8.845  18.893  0.00  0.00    +0.000 A 
ATOM     28  C   UNL     1       9.677   9.821  19.452  0.00  0.00    +0.000 A 
ATOM     29  C   UNL     1       9.570  11.137  19.024  0.00  0.00    +0.000 A 
ATOM     30  C   UNL     1       8.713  11.460  17.967  0.00  0.00    +0.000 A 
ATOM     31  C   UNL     1       7.838  10.480  17.450  0.00  0.00    +0.000 A 
BRANCH  30  32
ATOM     32  C   UNL     1       8.737  12.849  17.407  0.00  0.00    +0.000 C 
ATOM     33  N   UNL     1       9.834  13.465  17.094  0.00  0.00    +0.000 NA
ATOM     34  N   UNL     1       7.592  13.543  17.178  0.00  0.00    +0.000 N 
ATOM     35  H   UNL     1      10.656  12.872  17.226  0.00  0.00    +0.000 HD
ATOM     36  H   UNL     1       6.822  13.402  17.820  0.00  0.00    +0.000 HD
ATOM     37  H   UNL     1       7.789  14.522  16.994  0.00  0.00    +0.000 HD
ENDBRANCH  30  32
ENDBRANCH  25  26
ENDBRANCH  20  25
ENDBRANCH   1  20
TORSDOF 10
ENDMDL
MODEL 7
REMARK VINA RESULT:      -8.1      0.480      1.545
REMARK  Name = 
REMARK  11 active torsions:
REMARK  status: ('A' for Active; 'I' for Inactive)
REMARK    1  A    between atoms: C_1  and  O_2
REMARK    2  A    between atoms: O_2  and  C_3
REMARK    3  A    between atoms: C_3  and  C_5
REMARK    4  A    between atoms: C_5  and  C_6
REMARK    5  A    between atoms: C_5  and  C_16
REMARK    6  A    between atoms: C_6  and  C_7
REMARK    7  A    between atoms: C_11  and  C_12
REMARK    8  A    between atoms: C_16  and  C_17
REMARK    9  A    between atoms: C_16  and  N_25
REMARK   10  A    between atoms: C_18  and  C_19
REMARK   11  A    between atoms: C_26  and  C_28
REMARK                            x       y       z     vdW  Elec       q    Type
REMARK                         _______ _______ _______ _____ _____    ______ ____
ROOT
ATOM      1  C   UNL     1       5.962   4.916  16.435  0.00  0.00    +0.000 C 
ENDROOT
BRANCH   1   2
ATOM      2  N   UNL     1       5.630   4.271  15.161  0.00  0.00    +0.000 N 
ATOM      3  C   UNL     1       6.365   4.425  13.996  0.00  0.00    +0.000 C 
ATOM      4  O   UNL     1       7.337   5.160  13.882  0.00  0.00    +0.000 OA
ATOM      5  H   UNL     1       4.963   3.513  15.210  0.00  0.00    +0.000 HD
BRANCH   3   6
ATOM      6  C   UNL     1       5.950   3.577  12.850  0.00  0.00    +0.000 A 
ATOM      7  C   UNL     1       4.644   3.607  12.350  0.00  0.00    +0.000 A 
ATOM      8  C   UNL     1       4.291   2.780  11.282  0.00  0.00    +0.000 A 
ATOM      9  C   UNL     1       5.238   1.929  10.711  0.00  0.00    +0.000 A 
ATOM     10  C   UNL     1       6.546   1.913  11.194  0.00  0.00    +0.000 A 
ATOM     11  C   UNL     1       6.905   2.740  12.258  0.00  0.00    +0.000 A 
ENDBRANCH   3   6
ENDBRANCH   1   2
BRANCH   1  12
ATOM     12  C   UNL     1       5.021   4.326  17.452  0.00  0.00    +0.000 C 
ATOM     13  C   UNL     1       3.855   3.708  17.194  0.00  0.00    +0.000 C 
BRANCH  13  14
ATOM     14  C   UNL     1       2.996   3.186  18.268  0.00  0.00    +0.000 A 
ATOM     15  C   UNL     1       1.677   2.775  18.026  0.00  0.00    +0.000 A 
ATOM     16  C   UNL     1       0.875   2.293  19.063  0.00  0.00    +0.000 A 
ATOM     17  C   UNL     1       1.393   2.199  20.352  0.00  0.00    +0.000 A 
ATOM     18  C   UNL     1       2.712   2.573  20.599  0.00  0.00    +0.000 A 
ATOM     19  C   UNL     1       3.513   3.059  19.562  0.00  0.00    +0.000 A 
ENDBRANCH  13  14
ENDBRANCH   1  12
BRANCH   1  20
ATOM     20  C   UNL     1       5.879   6.450  16.371  0.00  0.00    +0.000 C 
BRANCH  20  21
ATOM     21  C   UNL     1       6.802   7.055  17.405  0.00  0.00    +0.000 C 
ATOM     22  O   UNL     1       7.412   8.105  17.274  0.00  0.00    +0.000 OA
BRANCH  21  24
ATOM     23  C   UNL     1       8.073   6.048  19.152  0.00  0.00    +0.000 C 
ATOM     24  O   UNL     1       6.800   6.308  18.545  0.00  0.00    +0.000 OA
ENDBRANCH  21  24
ENDBRANCH  20  21
BRANCH  20  25
ATOM     25  C   UNL     1       4.468   7.048  16.351  0.00  0.00    +0.000 C 
BRANCH  25  26
ATOM     26  C   UNL     1       3.661   7.556  17.532  0.00  0.00    +0.000 A 
ATOM     27  C   UNL     1       3.547   6.661  18.615  0.00  0.00    +0.000 A 
ATOM     28  C   UNL     1       2.562   6.810  19.587  0.00  0.00    +0.000 A 
ATOM     29  C   UNL     1       1.708   7.904  19.538  0.00  0.00    +0.000 A 
ATOM     30  C   UNL     1       1.903   8.899  18.575  0.00  0.00    +0.000 A 
ATOM     31  C   UNL     1       2.861   8.709  17.555  0.00  0.00    +0.000 A 
BRANCH  30  32
ATOM     32  C   UNL     1       1.083  10.150  18.643  0.00  0.00    +0.000 C 
ATOM     33  N   UNL     1      -0.129  10.176  19.103  0.00  0.00    +0.000 NA
ATOM     34  N   UNL     1       1.578  11.348  18.236  0.00  0.00    +0.000 N 
ATOM     35  H   UNL     1      -0.423   9.262  19.454  0.00  0.00    +0.000 HD
ATOM     36  H   UNL     1       2.213  11.349  17.448  0.00  0.00    +0.000 HD
ATOM     37  H   UNL     1       0.840  12.041  18.159  0.00  0.00    +0.000 HD
ENDBRANCH  30  32
ENDBRANCH  25  26
ENDBRANCH  20  25
ENDBRANCH   1  20
TORSDOF 10
ENDMDL
MODEL 8
REMARK VINA RESULT:      -8.1      4.891     10.178
REMARK  Name = 
REMARK  11 active torsions:
REMARK  status: ('A' for Active; 'I' for Inactive)
REMARK    1  A    between atoms: C_1  and  O_2
REMARK    2  A    between atoms: O_2  and  C_3
REMARK    3  A    between atoms: C_3  and  C_5
REMARK    4  A    between atoms: C_5  and  C_6
REMARK    5  A    between atoms: C_5  and  C_16
REMARK    6  A    between atoms: C_6  and  C_7
REMARK    7  A    between atoms: C_11  and  C_12
REMARK    8  A    between atoms: C_16  and  C_17
REMARK    9  A    between atoms: C_16  and  N_25
REMARK   10  A    between atoms: C_18  and  C_19
REMARK   11  A    between atoms: C_26  and  C_28
REMARK                            x       y       z     vdW  Elec       q    Type
REMARK                         _______ _______ _______ _____ _____    ______ ____
ROOT
ATOM      1  C   UNL     1       0.619  10.006  19.757  0.00  0.00    +0.000 C 
ENDROOT
BRANCH   1   2
ATOM      2  N   UNL     1       1.031  11.344  20.192  0.00  0.00    +0.000 N 
ATOM      3  C   UNL     1       1.819  12.200  19.438  0.00  0.00    +0.000 C 
ATOM      4  O   UNL     1       2.305  11.917  18.352  0.00  0.00    +0.000 OA
ATOM      5  H   UNL     1       0.529  11.726  20.982  0.00  0.00    +0.000 HD
BRANCH   3   6
ATOM      6  C   UNL     1       2.007  13.565  19.991  0.00  0.00    +0.000 A 
ATOM      7  C   UNL     1       2.789  14.521  19.334  0.00  0.00    +0.000 A 
ATOM      8  C   UNL     1       2.955  15.788  19.898  0.00  0.00    +0.000 A 
ATOM      9  C   UNL     1       2.340  16.101  21.111  0.00  0.00    +0.000 A 
ATOM     10  C   UNL     1       1.543  15.157  21.756  0.00  0.00    +0.000 A 
ATOM     11  C   UNL     1       1.370  13.891  21.195  0.00  0.00    +0.000 A 
ENDBRANCH   3   6
ENDBRANCH   1   2
BRANCH   1  12
ATOM     12  C   UNL     1      -0.732  10.181  19.116  0.00  0.00    +0.000 C 
ATOM     13  C   UNL     1      -1.270  11.340  18.695  0.00  0.00    +0.000 C 
BRANCH  13  14
ATOM     14  C   UNL     1      -2.614  11.404  18.101  0.00  0.00    +0.000 A 
ATOM     15  C   UNL     1      -3.730  11.820  18.842  0.00  0.00    +0.000 A 
ATOM     16  C   UNL     1      -5.000  11.862  18.261  0.00  0.00    +0.000 A 
ATOM     17  C   UNL     1      -5.163  11.506  16.925  0.00  0.00    +0.000 A 
ATOM     18  C   UNL     1      -4.057  11.123  16.170  0.00  0.00    +0.000 A 
ATOM     19  C   UNL     1      -2.787  11.077  16.752  0.00  0.00    +0.000 A 
ENDBRANCH  13  14
ENDBRANCH   1  12
BRANCH   1  20
ATOM     20  C   UNL     1       0.604   8.980  20.902  0.00  0.00    +0.000 C 
BRANCH  20  21
ATOM     21  C   UNL     1       0.284   9.675  22.206  0.00  0.00    +0.000 C 
ATOM     22  O   UNL     1       1.068   9.831  23.130  0.00  0.00    +0.000 OA
BRANCH  21  24
ATOM     23  C   UNL     1      -1.234  11.332  22.999  0.00  0.00    +0.000 C 
ATOM     24  O   UNL     1      -0.981  10.181  22.182  0.00  0.00    +0.000 OA
ENDBRANCH  21  24
ENDBRANCH  20  21
BRANCH  20  25
ATOM     25  C   UNL     1       1.802   8.026  20.966  0.00  0.00    +0.000 C 
BRANCH  25  26
ATOM     26  C   UNL     1       2.014   6.750  20.172  0.00  0.00    +0.000 A 
ATOM     27  C   UNL     1       2.614   6.920  18.906  0.00  0.00    +0.000 A 
ATOM     28  C   UNL     1       2.538   5.937  17.924  0.00  0.00    +0.000 A 
ATOM     29  C   UNL     1       1.919   4.727  18.208  0.00  0.00    +0.000 A 
ATOM     30  C   UNL     1       1.465   4.463  19.504  0.00  0.00    +0.000 A 
ATOM     31  C   UNL     1       1.487   5.486  20.476  0.00  0.00    +0.000 A 
BRANCH  30  32
ATOM     32  C   UNL     1       0.957   3.093  19.833  0.00  0.00    +0.000 C 
ATOM     33  N   UNL     1       0.476   2.285  18.940  0.00  0.00    +0.000 NA
ATOM     34  N   UNL     1       0.989   2.609  21.103  0.00  0.00    +0.000 N 
ATOM     35  H   UNL     1       0.538   2.676  17.999  0.00  0.00    +0.000 HD
ATOM     36  H   UNL     1       0.838   3.265  21.858  0.00  0.00    +0.000 HD
ATOM     37  H   UNL     1       0.432   1.764  21.185  0.00  0.00    +0.000 HD
ENDBRANCH  30  32
ENDBRANCH  25  26
ENDBRANCH  20  25
ENDBRANCH   1  20
TORSDOF 10
ENDMDL
MODEL 9
REMARK VINA RESULT:      -8.1      4.660     10.183
REMARK  Name = 
REMARK  11 active torsions:
REMARK  status: ('A' for Active; 'I' for Inactive)
REMARK    1  A    between atoms: C_1  and  O_2
REMARK    2  A    between atoms: O_2  and  C_3
REMARK    3  A    between atoms: C_3  and  C_5
REMARK    4  A    between atoms: C_5  and  C_6
REMARK    5  A    between atoms: C_5  and  C_16
REMARK    6  A    between atoms: C_6  and  C_7
REMARK    7  A    between atoms: C_11  and  C_12
REMARK    8  A    between atoms: C_16  and  C_17
REMARK    9  A    between atoms: C_16  and  N_25
REMARK   10  A    between atoms: C_18  and  C_19
REMARK   11  A    between atoms: C_26  and  C_28
REMARK                            x       y       z     vdW  Elec       q    Type
REMARK                         _______ _______ _______ _____ _____    ______ ____
ROOT
ATOM      1  C   UNL     1       0.895  10.079  19.658  0.00  0.00    +0.000 C 
ENDROOT
BRANCH   1   2
ATOM      2  N   UNL     1       1.244  11.287  20.410  0.00  0.00    +0.000 N 
ATOM      3  C   UNL     1       1.852  12.403  19.854  0.00  0.00    +0.000 C 
ATOM      4  O   UNL     1       2.218  12.483  18.689  0.00  0.00    +0.000 OA
ATOM      5  H   UNL     1       0.817  11.380  21.322  0.00  0.00    +0.000 HD
BRANCH   3   6
ATOM      6  C   UNL     1       1.993  13.579  20.749  0.00  0.00    +0.000 A 
ATOM      7  C   UNL     1       0.894  14.125  21.421  0.00  0.00    +0.000 A 
ATOM      8  C   UNL     1       1.068  15.243  22.240  0.00  0.00    +0.000 A 
ATOM      9  C   UNL     1       2.333  15.811  22.391  0.00  0.00    +0.000 A 
ATOM     10  C   UNL     1       3.433  15.255  21.740  0.00  0.00    +0.000 A 
ATOM     11  C   UNL     1       3.266  14.136  20.924  0.00  0.00    +0.000 A 
ENDBRANCH   3   6
ENDBRANCH   1   2
BRANCH   1  12
ATOM     12  C   UNL     1      -0.497  10.309  19.133  0.00  0.00    +0.000 C 
ATOM     13  C   UNL     1      -0.845  10.480  17.846  0.00  0.00    +0.000 C 
BRANCH  13  14
ATOM     14  C   UNL     1      -2.238  10.723  17.442  0.00  0.00    +0.000 A 
ATOM     15  C   UNL     1      -3.188  11.237  18.337  0.00  0.00    +0.000 A 
ATOM     16  C   UNL     1      -4.509  11.449  17.935  0.00  0.00    +0.000 A 
ATOM     17  C   UNL     1      -4.888  11.169  16.624  0.00  0.00    +0.000 A 
ATOM     18  C   UNL     1      -3.945  10.691  15.717  0.00  0.00    +0.000 A 
ATOM     19  C   UNL     1      -2.625  10.474  16.121  0.00  0.00    +0.000 A 
ENDBRANCH  13  14
ENDBRANCH   1  12
BRANCH   1  20
ATOM     20  C   UNL     1       1.008   8.795  20.498  0.00  0.00    +0.000 C 
BRANCH  20  21
ATOM     21  C   UNL     1       0.851   9.129  21.964  0.00  0.00    +0.000 C 
ATOM     22  O   UNL     1       1.765   9.419  22.721  0.00  0.00    +0.000 OA
BRANCH  21  24
ATOM     23  C   UNL     1      -0.920  10.265  23.083  0.00  0.00    +0.000 C 
ATOM     24  O   UNL     1      -0.466   9.143  22.314  0.00  0.00    +0.000 OA
ENDBRANCH  21  24
ENDBRANCH  20  21
BRANCH  20  25
ATOM     25  C   UNL     1       2.198   7.884  20.176  0.00  0.00    +0.000 C 
BRANCH  25  26
ATOM     26  C   UNL     1       2.176   6.390  19.909  0.00  0.00    +0.000 A 
ATOM     27  C   UNL     1       1.141   5.678  20.551  0.00  0.00    +0.000 A 
ATOM     28  C   UNL     1       1.197   4.298  20.715  0.00  0.00    +0.000 A 
ATOM     29  C   UNL     1       2.258   3.583  20.175  0.00  0.00    +0.000 A 
ATOM     30  C   UNL     1       3.211   4.237  19.388  0.00  0.00    +0.000 A 
ATOM     31  C   UNL     1       3.184   5.645  19.280  0.00  0.00    +0.000 A 
BRANCH  30  32
ATOM     32  C   UNL     1       4.248   3.426  18.675  0.00  0.00    +0.000 C 
ATOM     33  N   UNL     1       4.024   2.826  17.547  0.00  0.00    +0.000 NA
ATOM     34  N   UNL     1       5.506   3.286  19.171  0.00  0.00    +0.000 N 
ATOM     35  H   UNL     1       3.086   3.019  17.192  0.00  0.00    +0.000 HD
ATOM     36  H   UNL     1       5.610   3.244  20.177  0.00  0.00    +0.000 HD
ATOM     37  H   UNL     1       6.011   2.554  18.682  0.00  0.00    +0.000 HD
ENDBRANCH  30  32
ENDBRANCH  25  26
ENDBRANCH  20  25
ENDBRANCH   1  20
TORSDOF 10
ENDMDL
