MODEL 1
REMARK VINA RESULT:      -9.5      0.000      0.000
REMARK  Name = 
REMARK  6 active torsions:
REMARK  status: ('A' for Active; 'I' for Inactive)
REMARK    1  A    between atoms: C_1  and  C_2
REMARK    2  A    between atoms: C_6  and  C_7
REMARK    3  A    between atoms: C_9  and  C_10
REMARK    4  A    between atoms: C_10  and  N_11
REMARK    5  A    between atoms: N_11  and  C_12
REMARK    6  A    between atoms: C_20  and  C_21
REMARK                            x       y       z     vdW  Elec       q    Type
REMARK                         _______ _______ _______ _____ _____    ______ ____
ROOT
ATOM      1  C   UNL     1       3.760   4.959  18.347  0.00  0.00    +0.000 A 
ATOM      2  N   UNL     1       4.968   4.529  17.843  0.00  0.00    +0.000 N 
ATOM      3  C   UNL     1       5.676   5.612  17.393  0.00  0.00    +0.000 A 
ATOM      4  N   UNL     1       4.975   6.715  17.546  0.00  0.00    +0.000 NA
ATOM      5  C   UNL     1       3.814   6.336  18.185  0.00  0.00    +0.000 A 
ATOM      6  H   UNL     1       5.268   3.568  17.776  0.00  0.00    +0.000 HD
ENDROOT
BRANCH   5   7
ATOM      7  C   UNL     1       2.818   7.340  18.666  0.00  0.00    +0.000 A 
ATOM      8  C   UNL     1       2.234   7.320  19.911  0.00  0.00    +0.000 A 
ATOM      9  C   UNL     1       1.345   8.418  20.134  0.00  0.00    +0.000 A 
ATOM     10  C   UNL     1       0.592   8.768  21.265  0.00  0.00    +0.000 A 
ATOM     11  N   UNL     1      -0.221   9.847  21.260  0.00  0.00    +0.000 NA
ATOM     12  C   UNL     1      -0.305  10.587  20.138  0.00  0.00    +0.000 A 
ATOM     13  C   UNL     1       0.403  10.339  18.975  0.00  0.00    +0.000 A 
ATOM     14  C   UNL     1       1.257   9.232  19.004  0.00  0.00    +0.000 A 
ATOM     15  S   UNL     1       2.325   8.695  17.763  0.00  0.00    +0.000 S 
ENDBRANCH   5   7
BRANCH   1  21
ATOM     16  C   UNL     1       1.895   2.613  22.068  0.00  0.00    +0.000 C 
ATOM     17  C   UNL     1       1.791   2.930  20.606  0.00  0.00    +0.000 A 
ATOM     18  C   UNL     1       0.784   2.395  19.819  0.00  0.00    +0.000 A 
ATOM     19  C   UNL     1       0.754   2.715  18.465  0.00  0.00    +0.000 A 
ATOM     20  C   UNL     1       1.733   3.550  17.932  0.00  0.00    +0.000 A 
ATOM     21  C   UNL     1       2.710   4.045  18.783  0.00  0.00    +0.000 A 
ATOM     22  N   UNL     1       2.741   3.753  20.102  0.00  0.00    +0.000 NA
ENDBRANCH   1  21
BRANCH   3  23
ATOM     23  C   UNL     1       7.057   5.496  16.836  0.00  0.00    +0.000 C 
BRANCH  23  24
ATOM     24  N   UNL     1       7.190   5.807  15.421  0.00  0.00    +0.000 N 
ATOM     25  H   UNL     1       6.988   6.787  15.226  0.00  0.00    +0.000 HD
BRANCH  24  26
ATOM     26  C   UNL     1       6.855   4.951  14.387  0.00  0.00    +0.000 A 
ATOM     27  C   UNL     1       7.583   4.832  13.193  0.00  0.00    +0.000 A 
ATOM     28  C   UNL     1       7.131   4.024  12.143  0.00  0.00    +0.000 A 
ATOM     29  C   UNL     1       5.920   3.359  12.261  0.00  0.00    +0.000 A 
ATOM     30  F   UNL     1       5.474   2.615  11.242  0.00  0.00    +0.000 F 
ATOM     31  C   UNL     1       5.159   3.477  13.412  0.00  0.00    +0.000 A 
ATOM     32  C   UNL     1       5.629   4.268  14.465  0.00  0.00    +0.000 A 
ENDBRANCH  24  26
ENDBRANCH  23  24
ENDBRANCH   3  23
TORSDOF 5
ENDMDL
MODEL 2
REMARK VINA RESULT:      -9.3      0.806      1.172
REMARK  Name = 
REMARK  6 active torsions:
REMARK  status: ('A' for Active; 'I' for Inactive)
REMARK    1  A    between atoms: C_1  and  C_2
REMARK    2  A    between atoms: C_6  and  C_7
REMARK    3  A    between atoms: C_9  and  C_10
REMARK    4  A    between atoms: C_10  and  N_11
REMARK    5  A    between atoms: N_11  and  C_12
REMARK    6  A    between atoms: C_20  and  C_21
REMARK                            x       y       z     vdW  Elec       q    Type
REMARK                         _______ _______ _______ _____ _____    ______ ____
ROOT
ATOM      1  C   UNL     1       3.823   4.991  18.302  0.00  0.00    +0.000 A 
ATOM      2  N   UNL     1       5.037   4.551  17.820  0.00  0.00    +0.000 N 
ATOM      3  C   UNL     1       5.755   5.627  17.368  0.00  0.00    +0.000 A 
ATOM      4  N   UNL     1       5.056   6.734  17.500  0.00  0.00    +0.000 NA
ATOM      5  C   UNL     1       3.885   6.366  18.127  0.00  0.00    +0.000 A 
ATOM      6  H   UNL     1       5.334   3.588  17.767  0.00  0.00    +0.000 HD
ENDROOT
BRANCH   5   7
ATOM      7  C   UNL     1       2.886   7.379  18.584  0.00  0.00    +0.000 A 
ATOM      8  C   UNL     1       2.421   8.415  17.808  0.00  0.00    +0.000 A 
ATOM      9  C   UNL     1       1.440   9.218  18.471  0.00  0.00    +0.000 A 
ATOM     10  C   UNL     1       0.712  10.329  18.019  0.00  0.00    +0.000 A 
ATOM     11  N   UNL     1      -0.159  10.972  18.827  0.00  0.00    +0.000 NA
ATOM     12  C   UNL     1      -0.317  10.531  20.089  0.00  0.00    +0.000 A 
ATOM     13  C   UNL     1       0.339   9.439  20.630  0.00  0.00    +0.000 A 
ATOM     14  C   UNL     1       1.221   8.770  19.774  0.00  0.00    +0.000 A 
ATOM     15  S   UNL     1       2.130   7.344  20.107  0.00  0.00    +0.000 S 
ENDBRANCH   5   7
BRANCH   1  21
ATOM     16  C   UNL     1       1.946   2.626  22.006  0.00  0.00    +0.000 C 
ATOM     17  C   UNL     1       1.840   2.961  20.548  0.00  0.00    +0.000 A 
ATOM     18  C   UNL     1       0.822   2.448  19.760  0.00  0.00    +0.000 A 
ATOM     19  C   UNL     1       0.790   2.783  18.409  0.00  0.00    +0.000 A 
ATOM     20  C   UNL     1       1.777   3.612  17.881  0.00  0.00    +0.000 A 
ATOM     21  C   UNL     1       2.764   4.085  18.733  0.00  0.00    +0.000 A 
ATOM     22  N   UNL     1       2.797   3.778  20.049  0.00  0.00    +0.000 NA
ENDBRANCH   1  21
BRANCH   3  23
ATOM     23  C   UNL     1       7.144   5.500  16.833  0.00  0.00    +0.000 C 
BRANCH  23  24
ATOM     24  N   UNL     1       7.299   5.804  15.419  0.00  0.00    +0.000 N 
ATOM     25  H   UNL     1       7.121   6.788  15.219  0.00  0.00    +0.000 HD
BRANCH  24  26
ATOM     26  C   UNL     1       6.958   4.953  14.383  0.00  0.00    +0.000 A 
ATOM     27  C   UNL     1       7.615   4.913  13.144  0.00  0.00    +0.000 A 
ATOM     28  C   UNL     1       7.152   4.102  12.101  0.00  0.00    +0.000 A 
ATOM     29  C   UNL     1       5.998   3.353  12.274  0.00  0.00    +0.000 A 
ATOM     30  F   UNL     1       5.538   2.605  11.263  0.00  0.00    +0.000 F 
ATOM     31  C   UNL     1       5.305   3.391  13.472  0.00  0.00    +0.000 A 
ATOM     32  C   UNL     1       5.787   4.186  14.517  0.00  0.00    +0.000 A 
ENDBRANCH  24  26
ENDBRANCH  23  24
ENDBRANCH   3  23
TORSDOF 5
ENDMDL
MODEL 3
REMARK VINA RESULT:      -8.9      0.612      1.253
REMARK  Name = 
REMARK  6 active torsions:
REMARK  status: ('A' for Active; 'I' for Inactive)
REMARK    1  A    between atoms: C_1  and  C_2
REMARK    2  A    between atoms: C_6  and  C_7
REMARK    3  A    between atoms: C_9  and  C_10
REMARK    4  A    between atoms: C_10  and  N_11
REMARK    5  A    between atoms: N_11  and  C_12
REMARK    6  A    between atoms: C_20  and  C_21
REMARK                            x       y       z     vdW  Elec       q    Type
REMARK                         _______ _______ _______ _____ _____    ______ ____
ROOT
ATOM      1  C   UNL     1       3.916   5.160  18.942  0.00  0.00    +0.000 A 
ATOM      2  N   UNL     1       5.114   4.700  18.441  0.00  0.00    +0.000 N 
ATOM      3  C   UNL     1       5.678   5.677  17.662  0.00  0.00    +0.000 A 
ATOM      4  N   UNL     1       4.891   6.730  17.605  0.00  0.00    +0.000 NA
ATOM      5  C   UNL     1       3.827   6.449  18.435  0.00  0.00    +0.000 A 
ATOM      6  H   UNL     1       5.497   3.778  18.587  0.00  0.00    +0.000 HD
ENDROOT
BRANCH   5   7
ATOM      7  C   UNL     1       2.783   7.471  18.748  0.00  0.00    +0.000 A 
ATOM      8  C   UNL     1       2.126   7.566  19.953  0.00  0.00    +0.000 A 
ATOM      9  C   UNL     1       1.203   8.657  20.006  0.00  0.00    +0.000 A 
ATOM     10  C   UNL     1       0.376   9.103  21.048  0.00  0.00    +0.000 A 
ATOM     11  N   UNL     1      -0.458  10.154  20.881  0.00  0.00    +0.000 NA
ATOM     12  C   UNL     1      -0.489  10.769  19.684  0.00  0.00    +0.000 A 
ATOM     13  C   UNL     1       0.292  10.419  18.597  0.00  0.00    +0.000 A 
ATOM     14  C   UNL     1       1.166   9.345  18.792  0.00  0.00    +0.000 A 
ATOM     15  S   UNL     1       2.317   8.709  17.679  0.00  0.00    +0.000 S 
ENDBRANCH   5   7
BRANCH   1  21
ATOM     16  C   UNL     1       0.425   1.911  18.654  0.00  0.00    +0.000 C 
ATOM     17  C   UNL     1       1.318   2.716  19.551  0.00  0.00    +0.000 A 
ATOM     18  C   UNL     1       1.238   2.617  20.930  0.00  0.00    +0.000 A 
ATOM     19  C   UNL     1       2.082   3.405  21.706  0.00  0.00    +0.000 A 
ATOM     20  C   UNL     1       2.976   4.275  21.086  0.00  0.00    +0.000 A 
ATOM     21  C   UNL     1       2.996   4.319  19.700  0.00  0.00    +0.000 A 
ATOM     22  N   UNL     1       2.191   3.549  18.937  0.00  0.00    +0.000 NA
ENDBRANCH   1  21
BRANCH   3  23
ATOM     23  C   UNL     1       7.014   5.518  17.014  0.00  0.00    +0.000 C 
BRANCH  23  24
ATOM     24  N   UNL     1       7.073   5.882  15.606  0.00  0.00    +0.000 N 
ATOM     25  H   UNL     1       6.768   6.841  15.447  0.00  0.00    +0.000 HD
BRANCH  24  26
ATOM     26  C   UNL     1       6.796   5.026  14.554  0.00  0.00    +0.000 A 
ATOM     27  C   UNL     1       7.548   4.960  13.371  0.00  0.00    +0.000 A 
ATOM     28  C   UNL     1       7.150   4.147  12.303  0.00  0.00    +0.000 A 
ATOM     29  C   UNL     1       5.971   3.424  12.391  0.00  0.00    +0.000 A 
ATOM     30  F   UNL     1       5.576   2.674  11.354  0.00  0.00    +0.000 F 
ATOM     31  C   UNL     1       5.187   3.489  13.531  0.00  0.00    +0.000 A 
ATOM     32  C   UNL     1       5.602   4.285  14.603  0.00  0.00    +0.000 A 
ENDBRANCH  24  26
ENDBRANCH  23  24
ENDBRANCH   3  23
TORSDOF 5
ENDMDL
MODEL 4
REMARK VINA RESULT:      -8.9      4.679      7.749
REMARK  Name = 
REMARK  6 active torsions:
REMARK  status: ('A' for Active; 'I' for Inactive)
REMARK    1  A    between atoms: C_1  and  C_2
REMARK    2  A    between atoms: C_6  and  C_7
REMARK    3  A    between atoms: C_9  and  C_10
REMARK    4  A    between atoms: C_10  and  N_11
REMARK    5  A    between atoms: N_11  and  C_12
REMARK    6  A    between atoms: C_20  and  C_21
REMARK                            x       y       z     vdW  Elec       q    Type
REMARK                         _______ _______ _______ _____ _____    ______ ____
ROOT
ATOM      1  C   UNL     1       6.786   5.704  16.531  0.00  0.00    +0.000 A 
ATOM      2  N   UNL     1       7.809   6.591  16.786  0.00  0.00    +0.000 N 
ATOM      3  C   UNL     1       7.625   7.141  18.028  0.00  0.00    +0.000 A 
ATOM      4  N   UNL     1       6.518   6.684  18.573  0.00  0.00    +0.000 NA
ATOM      5  C   UNL     1       6.019   5.754  17.686  0.00  0.00    +0.000 A 
ATOM      6  H   UNL     1       8.552   6.831  16.147  0.00  0.00    +0.000 HD
ENDROOT
BRANCH   5   7
ATOM      7  C   UNL     1       4.837   4.904  18.021  0.00  0.00    +0.000 A 
ATOM      8  C   UNL     1       3.564   5.124  17.549  0.00  0.00    +0.000 A 
ATOM      9  C   UNL     1       2.623   4.140  17.990  0.00  0.00    +0.000 A 
ATOM     10  C   UNL     1       1.256   3.994  17.708  0.00  0.00    +0.000 A 
ATOM     11  N   UNL     1       0.530   2.996  18.259  0.00  0.00    +0.000 NA
ATOM     12  C   UNL     1       1.142   2.138  19.096  0.00  0.00    +0.000 A 
ATOM     13  C   UNL     1       2.484   2.184  19.430  0.00  0.00    +0.000 A 
ATOM     14  C   UNL     1       3.227   3.208  18.834  0.00  0.00    +0.000 A 
ATOM     15  S   UNL     1       4.920   3.500  18.978  0.00  0.00    +0.000 S 
ENDBRANCH   5   7
BRANCH   1  21
ATOM     16  C   UNL     1       8.164   5.594  11.957  0.00  0.00    +0.000 C 
ATOM     17  C   UNL     1       7.305   4.981  13.023  0.00  0.00    +0.000 A 
ATOM     18  C   UNL     1       6.472   3.908  12.753  0.00  0.00    +0.000 A 
ATOM     19  C   UNL     1       5.687   3.397  13.782  0.00  0.00    +0.000 A 
ATOM     20  C   UNL     1       5.749   3.974  15.048  0.00  0.00    +0.000 A 
ATOM     21  C   UNL     1       6.607   5.047  15.241  0.00  0.00    +0.000 A 
ATOM     22  N   UNL     1       7.384   5.542  14.253  0.00  0.00    +0.000 NA
ENDBRANCH   1  21
BRANCH   3  23
ATOM     23  C   UNL     1       8.593   8.104  18.632  0.00  0.00    +0.000 C 
BRANCH  23  24
ATOM     24  N   UNL     1       8.472   9.481  18.180  0.00  0.00    +0.000 N 
ATOM     25  H   UNL     1       8.238   9.538  17.190  0.00  0.00    +0.000 HD
BRANCH  24  26
ATOM     26  C   UNL     1       9.246  10.535  18.633  0.00  0.00    +0.000 A 
ATOM     27  C   UNL     1      10.028  11.353  17.804  0.00  0.00    +0.000 A 
ATOM     28  C   UNL     1      10.871  12.335  18.338  0.00  0.00    +0.000 A 
ATOM     29  C   UNL     1      10.973  12.479  19.713  0.00  0.00    +0.000 A 
ATOM     30  F   UNL     1      11.806  13.396  20.222  0.00  0.00    +0.000 F 
ATOM     31  C   UNL     1      10.240  11.668  20.563  0.00  0.00    +0.000 A 
ATOM     32  C   UNL     1       9.383  10.705  20.022  0.00  0.00    +0.000 A 
ENDBRANCH  24  26
ENDBRANCH  23  24
ENDBRANCH   3  23
TORSDOF 5
ENDMDL
MODEL 5
REMARK VINA RESULT:      -8.8      4.578      7.748
REMARK  Name = 
REMARK  6 active torsions:
REMARK  status: ('A' for Active; 'I' for Inactive)
REMARK    1  A    between atoms: C_1  and  C_2
REMARK    2  A    between atoms: C_6  and  C_7
REMARK    3  A    between atoms: C_9  and  C_10
REMARK    4  A    between atoms: C_10  and  N_11
REMARK    5  A    between atoms: N_11  and  C_12
REMARK    6  A    between atoms: C_20  and  C_21
REMARK                            x       y       z     vdW  Elec       q    Type
REMARK                         _______ _______ _______ _____ _____    ______ ____
ROOT
ATOM      1  C   UNL     1       6.779   5.721  16.443  0.00  0.00    +0.000 A 
ATOM      2  N   UNL     1       7.818   6.581  16.728  0.00  0.00    +0.000 N 
ATOM      3  C   UNL     1       7.605   7.146  17.959  0.00  0.00    +0.000 A 
ATOM      4  N   UNL     1       6.466   6.725  18.467  0.00  0.00    +0.000 NA
ATOM      5  C   UNL     1       5.973   5.803  17.569  0.00  0.00    +0.000 A 
ATOM      6  H   UNL     1       8.590   6.794  16.115  0.00  0.00    +0.000 HD
ENDROOT
BRANCH   5   7
ATOM      7  C   UNL     1       4.756   4.989  17.867  0.00  0.00    +0.000 A 
ATOM      8  C   UNL     1       4.781   3.691  18.321  0.00  0.00    +0.000 A 
ATOM      9  C   UNL     1       3.477   3.155  18.566  0.00  0.00    +0.000 A 
ATOM     10  C   UNL     1       3.084   1.901  19.056  0.00  0.00    +0.000 A 
ATOM     11  N   UNL     1       1.778   1.578  19.187  0.00  0.00    +0.000 NA
ATOM     12  C   UNL     1       0.849   2.485  18.831  0.00  0.00    +0.000 A 
ATOM     13  C   UNL     1       1.129   3.752  18.351  0.00  0.00    +0.000 A 
ATOM     14  C   UNL     1       2.484   4.080  18.242  0.00  0.00    +0.000 A 
ATOM     15  S   UNL     1       3.166   5.586  17.755  0.00  0.00    +0.000 S 
ENDBRANCH   5   7
BRANCH   1  21
ATOM     16  C   UNL     1       8.227   5.619  11.890  0.00  0.00    +0.000 C 
ATOM     17  C   UNL     1       7.360   4.998  12.945  0.00  0.00    +0.000 A 
ATOM     18  C   UNL     1       6.544   3.915  12.664  0.00  0.00    +0.000 A 
ATOM     19  C   UNL     1       5.750   3.396  13.683  0.00  0.00    +0.000 A 
ATOM     20  C   UNL     1       5.786   3.976  14.948  0.00  0.00    +0.000 A 
ATOM     21  C   UNL     1       6.628   5.059  15.151  0.00  0.00    +0.000 A 
ATOM     22  N   UNL     1       7.413   5.563  14.174  0.00  0.00    +0.000 NA
ENDBRANCH   1  21
BRANCH   3  23
ATOM     23  C   UNL     1       8.578   8.085  18.592  0.00  0.00    +0.000 C 
BRANCH  23  24
ATOM     24  N   UNL     1       8.405   9.489  18.251  0.00  0.00    +0.000 N 
ATOM     25  H   UNL     1       8.043   9.610  17.306  0.00  0.00    +0.000 HD
BRANCH  24  26
ATOM     26  C   UNL     1       9.238  10.513  18.667  0.00  0.00    +0.000 A 
ATOM     27  C   UNL     1      10.084  11.238  17.814  0.00  0.00    +0.000 A 
ATOM     28  C   UNL     1      10.978  12.191  18.315  0.00  0.00    +0.000 A 
ATOM     29  C   UNL     1      11.067  12.397  19.683  0.00  0.00    +0.000 A 
ATOM     30  F   UNL     1      11.948  13.284  20.163  0.00  0.00    +0.000 F 
ATOM     31  C   UNL     1      10.270  11.677  20.558  0.00  0.00    +0.000 A 
ATOM     32  C   UNL     1       9.363  10.744  20.048  0.00  0.00    +0.000 A 
ENDBRANCH  24  26
ENDBRANCH  23  24
ENDBRANCH   3  23
TORSDOF 5
ENDMDL
MODEL 6
REMARK VINA RESULT:      -8.6      1.028      1.723
REMARK  Name = 
REMARK  6 active torsions:
REMARK  status: ('A' for Active; 'I' for Inactive)
REMARK    1  A    between atoms: C_1  and  C_2
REMARK    2  A    between atoms: C_6  and  C_7
REMARK    3  A    between atoms: C_9  and  C_10
REMARK    4  A    between atoms: C_10  and  N_11
REMARK    5  A    between atoms: N_11  and  C_12
REMARK    6  A    between atoms: C_20  and  C_21
REMARK                            x       y       z     vdW  Elec       q    Type
REMARK                         _______ _______ _______ _____ _____    ______ ____
ROOT
ATOM      1  C   UNL     1       3.943   5.174  18.911  0.00  0.00    +0.000 A 
ATOM      2  N   UNL     1       5.139   4.719  18.399  0.00  0.00    +0.000 N 
ATOM      3  C   UNL     1       5.695   5.700  17.621  0.00  0.00    +0.000 A 
ATOM      4  N   UNL     1       4.905   6.752  17.573  0.00  0.00    +0.000 NA
ATOM      5  C   UNL     1       3.848   6.464  18.409  0.00  0.00    +0.000 A 
ATOM      6  H   UNL     1       5.525   3.797  18.539  0.00  0.00    +0.000 HD
ENDROOT
BRANCH   5   7
ATOM      7  C   UNL     1       2.803   7.483  18.734  0.00  0.00    +0.000 A 
ATOM      8  C   UNL     1       2.327   8.418  17.845  0.00  0.00    +0.000 A 
ATOM      9  C   UNL     1       1.302   9.248  18.396  0.00  0.00    +0.000 A 
ATOM     10  C   UNL     1       0.552  10.281  17.814  0.00  0.00    +0.000 A 
ATOM     11  N   UNL     1      -0.363  10.973  18.529  0.00  0.00    +0.000 NA
ATOM     12  C   UNL     1      -0.542  10.656  19.825  0.00  0.00    +0.000 A 
ATOM     13  C   UNL     1       0.133   9.649  20.492  0.00  0.00    +0.000 A 
ATOM     14  C   UNL     1       1.060   8.928  19.733  0.00  0.00    +0.000 A 
ATOM     15  S   UNL     1       2.005   7.577  20.233  0.00  0.00    +0.000 S 
ENDBRANCH   5   7
BRANCH   1  21
ATOM     16  C   UNL     1       0.430   1.948  18.631  0.00  0.00    +0.000 C 
ATOM     17  C   UNL     1       1.341   2.736  19.525  0.00  0.00    +0.000 A 
ATOM     18  C   UNL     1       1.281   2.617  20.904  0.00  0.00    +0.000 A 
ATOM     19  C   UNL     1       2.142   3.389  21.678  0.00  0.00    +0.000 A 
ATOM     20  C   UNL     1       3.031   4.263  21.056  0.00  0.00    +0.000 A 
ATOM     21  C   UNL     1       3.030   4.327  19.671  0.00  0.00    +0.000 A 
ATOM     22  N   UNL     1       2.209   3.572  18.909  0.00  0.00    +0.000 NA
ENDBRANCH   1  21
BRANCH   3  23
ATOM     23  C   UNL     1       7.027   5.547  16.963  0.00  0.00    +0.000 C 
BRANCH  23  24
ATOM     24  N   UNL     1       7.072   5.898  15.552  0.00  0.00    +0.000 N 
ATOM     25  H   UNL     1       6.758   6.854  15.387  0.00  0.00    +0.000 HD
BRANCH  24  26
ATOM     26  C   UNL     1       6.794   5.030  14.511  0.00  0.00    +0.000 A 
ATOM     27  C   UNL     1       7.554   4.939  13.335  0.00  0.00    +0.000 A 
ATOM     28  C   UNL     1       7.156   4.115  12.275  0.00  0.00    +0.000 A 
ATOM     29  C   UNL     1       5.968   3.405  12.364  0.00  0.00    +0.000 A 
ATOM     30  F   UNL     1       5.573   2.645  11.335  0.00  0.00    +0.000 F 
ATOM     31  C   UNL     1       5.176   3.496  13.497  0.00  0.00    +0.000 A 
ATOM     32  C   UNL     1       5.591   4.303  14.560  0.00  0.00    +0.000 A 
ENDBRANCH  24  26
ENDBRANCH  23  24
ENDBRANCH   3  23
TORSDOF 5
ENDMDL
MODEL 7
REMARK VINA RESULT:      -8.5      2.819      3.606
REMARK  Name = 
REMARK  6 active torsions:
REMARK  status: ('A' for Active; 'I' for Inactive)
REMARK    1  A    between atoms: C_1  and  C_2
REMARK    2  A    between atoms: C_6  and  C_7
REMARK    3  A    between atoms: C_9  and  C_10
REMARK    4  A    between atoms: C_10  and  N_11
REMARK    5  A    between atoms: N_11  and  C_12
REMARK    6  A    between atoms: C_20  and  C_21
REMARK                            x       y       z     vdW  Elec       q    Type
REMARK                         _______ _______ _______ _____ _____    ______ ____
ROOT
ATOM      1  C   UNL     1       2.839   6.173  18.557  0.00  0.00    +0.000 A 
ATOM      2  N   UNL     1       3.695   5.943  17.502  0.00  0.00    +0.000 N 
ATOM      3  C   UNL     1       3.872   7.112  16.807  0.00  0.00    +0.000 A 
ATOM      4  N   UNL     1       3.147   8.075  17.336  0.00  0.00    +0.000 NA
ATOM      5  C   UNL     1       2.549   7.525  18.450  0.00  0.00    +0.000 A 
ATOM      6  H   UNL     1       4.095   5.051  17.253  0.00  0.00    +0.000 HD
ENDROOT
BRANCH   5   7
ATOM      7  C   UNL     1       1.755   8.355  19.405  0.00  0.00    +0.000 A 
ATOM      8  C   UNL     1       1.688   8.130  20.760  0.00  0.00    +0.000 A 
ATOM      9  C   UNL     1       0.890   9.094  21.453  0.00  0.00    +0.000 A 
ATOM     10  C   UNL     1       0.604   9.230  22.820  0.00  0.00    +0.000 A 
ATOM     11  N   UNL     1      -0.210  10.209  23.272  0.00  0.00    +0.000 NA
ATOM     12  C   UNL     1      -0.755  11.059  22.381  0.00  0.00    +0.000 A 
ATOM     13  C   UNL     1      -0.529  11.022  21.016  0.00  0.00    +0.000 A 
ATOM     14  C   UNL     1       0.334  10.017  20.566  0.00  0.00    +0.000 A 
ATOM     15  S   UNL     1       0.879   9.743  18.955  0.00  0.00    +0.000 S 
ENDBRANCH   5   7
BRANCH   1  21
ATOM     16  C   UNL     1       0.482   2.018  18.687  0.00  0.00    +0.000 C 
ATOM     17  C   UNL     1       1.212   3.071  19.467  0.00  0.00    +0.000 A 
ATOM     18  C   UNL     1       1.366   2.977  20.840  0.00  0.00    +0.000 A 
ATOM     19  C   UNL     1       2.038   3.996  21.508  0.00  0.00    +0.000 A 
ATOM     20  C   UNL     1       2.529   5.084  20.790  0.00  0.00    +0.000 A 
ATOM     21  C   UNL     1       2.334   5.107  19.417  0.00  0.00    +0.000 A 
ATOM     22  N   UNL     1       1.696   4.117  18.756  0.00  0.00    +0.000 NA
ENDBRANCH   1  21
BRANCH   3  23
ATOM     23  C   UNL     1       4.790   7.219  15.635  0.00  0.00    +0.000 C 
BRANCH  23  24
ATOM     24  N   UNL     1       5.883   6.260  15.606  0.00  0.00    +0.000 N 
ATOM     25  H   UNL     1       5.665   5.449  15.028  0.00  0.00    +0.000 HD
BRANCH  24  26
ATOM     26  C   UNL     1       6.716   5.976  16.675  0.00  0.00    +0.000 A 
ATOM     27  C   UNL     1       7.007   4.680  17.126  0.00  0.00    +0.000 A 
ATOM     28  C   UNL     1       7.773   4.467  18.279  0.00  0.00    +0.000 A 
ATOM     29  C   UNL     1       8.220   5.552  19.017  0.00  0.00    +0.000 A 
ATOM     30  F   UNL     1       8.923   5.344  20.137  0.00  0.00    +0.000 F 
ATOM     31  C   UNL     1       7.925   6.845  18.619  0.00  0.00    +0.000 A 
ATOM     32  C   UNL     1       7.179   7.050  17.454  0.00  0.00    +0.000 A 
ENDBRANCH  24  26
ENDBRANCH  23  24
ENDBRANCH   3  23
TORSDOF 5
ENDMDL
MODEL 8
REMARK VINA RESULT:      -8.5      1.262      1.834
REMARK  Name = 
REMARK  6 active torsions:
REMARK  status: ('A' for Active; 'I' for Inactive)
REMARK    1  A    between atoms: C_1  and  C_2
REMARK    2  A    between atoms: C_6  and  C_7
REMARK    3  A    between atoms: C_9  and  C_10
REMARK    4  A    between atoms: C_10  and  N_11
REMARK    5  A    between atoms: N_11  and  C_12
REMARK    6  A    between atoms: C_20  and  C_21
REMARK                            x       y       z     vdW  Elec       q    Type
REMARK                         _______ _______ _______ _____ _____    ______ ____
ROOT
ATOM      1  C   UNL     1       3.043   5.875  18.836  0.00  0.00    +0.000 A 
ATOM      2  N   UNL     1       3.994   5.590  17.880  0.00  0.00    +0.000 N 
ATOM      3  C   UNL     1       4.283   6.733  17.181  0.00  0.00    +0.000 A 
ATOM      4  N   UNL     1       3.543   7.733  17.610  0.00  0.00    +0.000 NA
ATOM      5  C   UNL     1       2.814   7.234  18.668  0.00  0.00    +0.000 A 
ATOM      6  H   UNL     1       4.385   4.679  17.694  0.00  0.00    +0.000 HD
ENDROOT
BRANCH   5   7
ATOM      7  C   UNL     1       1.956   8.115  19.517  0.00  0.00    +0.000 A 
ATOM      8  C   UNL     1       1.820   7.987  20.879  0.00  0.00    +0.000 A 
ATOM      9  C   UNL     1       0.970   8.983  21.456  0.00  0.00    +0.000 A 
ATOM     10  C   UNL     1       0.609   9.212  22.792  0.00  0.00    +0.000 A 
ATOM     11  N   UNL     1      -0.245  10.204  23.128  0.00  0.00    +0.000 NA
ATOM     12  C   UNL     1      -0.754  10.976  22.149  0.00  0.00    +0.000 A 
ATOM     13  C   UNL     1      -0.455  10.844  20.805  0.00  0.00    +0.000 A 
ATOM     14  C   UNL     1       0.448   9.827  20.476  0.00  0.00    +0.000 A 
ATOM     15  S   UNL     1       1.083   9.448  18.920  0.00  0.00    +0.000 S 
ENDBRANCH   5   7
BRANCH   1  21
ATOM     16  C   UNL     1       0.360   1.921  18.822  0.00  0.00    +0.000 C 
ATOM     17  C   UNL     1       1.132   2.910  19.644  0.00  0.00    +0.000 A 
ATOM     18  C   UNL     1       1.212   2.799  21.022  0.00  0.00    +0.000 A 
ATOM     19  C   UNL     1       1.930   3.759  21.729  0.00  0.00    +0.000 A 
ATOM     20  C   UNL     1       2.540   4.807  21.043  0.00  0.00    +0.000 A 
ATOM     21  C   UNL     1       2.414   4.851  19.662  0.00  0.00    +0.000 A 
ATOM     22  N   UNL     1       1.732   3.916  18.965  0.00  0.00    +0.000 NA
ENDBRANCH   1  21
BRANCH   3  23
ATOM     23  C   UNL     1       5.320   6.779  16.108  0.00  0.00    +0.000 C 
BRANCH  23  24
ATOM     24  N   UNL     1       6.127   5.577  15.966  0.00  0.00    +0.000 N 
ATOM     25  H   UNL     1       6.833   5.502  16.697  0.00  0.00    +0.000 HD
BRANCH  24  26
ATOM     26  C   UNL     1       6.512   5.019  14.759  0.00  0.00    +0.000 A 
ATOM     27  C   UNL     1       7.555   5.510  13.959  0.00  0.00    +0.000 A 
ATOM     28  C   UNL     1       7.823   4.963  12.699  0.00  0.00    +0.000 A 
ATOM     29  C   UNL     1       7.022   3.945  12.207  0.00  0.00    +0.000 A 
ATOM     30  F   UNL     1       7.260   3.448  10.987  0.00  0.00    +0.000 F 
ATOM     31  C   UNL     1       5.963   3.456  12.955  0.00  0.00    +0.000 A 
ATOM     32  C   UNL     1       5.715   3.993  14.222  0.00  0.00    +0.000 A 
ENDBRANCH  24  26
ENDBRANCH  23  24
ENDBRANCH   3  23
TORSDOF 5
ENDMDL
MODEL 9
REMARK VINA RESULT:      -8.3      4.243      7.594
REMARK  Name = 
REMARK  6 active torsions:
REMARK  status: ('A' for Active; 'I' for Inactive)
REMARK    1  A    between atoms: C_1  and  C_2
REMARK    2  A    between atoms: C_6  and  C_7
REMARK    3  A    between atoms: C_9  and  C_10
REMARK    4  A    between atoms: C_10  and  N_11
REMARK    5  A    between atoms: N_11  and  C_12
REMARK    6  A    between atoms: C_20  and  C_21
REMARK                            x       y       z     vdW  Elec       q    Type
REMARK                         _______ _______ _______ _____ _____    ______ ____
ROOT
ATOM      1  C   UNL     1      -0.635  10.348  18.180  0.00  0.00    +0.000 A 
ATOM      2  N   UNL     1       0.152   9.376  17.600  0.00  0.00    +0.000 N 
ATOM      3  C   UNL     1       1.379   9.370  18.212  0.00  0.00    +0.000 A 
ATOM      4  N   UNL     1       1.439  10.311  19.131  0.00  0.00    +0.000 NA
ATOM      5  C   UNL     1       0.186  10.884  19.162  0.00  0.00    +0.000 A 
ATOM      6  H   UNL     1      -0.114   8.790  16.823  0.00  0.00    +0.000 HD
ENDROOT
BRANCH   5   7
ATOM      7  C   UNL     1      -0.186  11.904  20.189  0.00  0.00    +0.000 A 
ATOM      8  C   UNL     1      -0.185  13.262  19.971  0.00  0.00    +0.000 A 
ATOM      9  C   UNL     1      -0.620  14.015  21.107  0.00  0.00    +0.000 A 
ATOM     10  C   UNL     1      -0.787  15.397  21.277  0.00  0.00    +0.000 A 
ATOM     11  N   UNL     1      -1.187  15.916  22.459  0.00  0.00    +0.000 NA
ATOM     12  C   UNL     1      -1.420  15.077  23.486  0.00  0.00    +0.000 A 
ATOM     13  C   UNL     1      -1.300  13.700  23.422  0.00  0.00    +0.000 A 
ATOM     14  C   UNL     1      -0.907  13.177  22.186  0.00  0.00    +0.000 A 
ATOM     15  S   UNL     1      -0.736  11.518  21.752  0.00  0.00    +0.000 S 
ENDBRANCH   5   7
BRANCH   1  21
ATOM     16  C   UNL     1      -3.570  10.190  14.413  0.00  0.00    +0.000 C 
ATOM     17  C   UNL     1      -3.387  10.601  15.843  0.00  0.00    +0.000 A 
ATOM     18  C   UNL     1      -4.397  11.233  16.550  0.00  0.00    +0.000 A 
ATOM     19  C   UNL     1      -4.157  11.605  17.869  0.00  0.00    +0.000 A 
ATOM     20  C   UNL     1      -2.915  11.344  18.444  0.00  0.00    +0.000 A 
ATOM     21  C   UNL     1      -1.954  10.708  17.672  0.00  0.00    +0.000 A 
ATOM     22  N   UNL     1      -2.181  10.330  16.395  0.00  0.00    +0.000 NA
ENDBRANCH   1  21
BRANCH   3  23
ATOM     23  C   UNL     1       2.450   8.393  17.856  0.00  0.00    +0.000 C 
BRANCH  23  24
ATOM     24  N   UNL     1       2.824   7.463  18.911  0.00  0.00    +0.000 N 
ATOM     25  H   UNL     1       3.798   7.572  19.189  0.00  0.00    +0.000 HD
BRANCH  24  26
ATOM     26  C   UNL     1       2.352   6.167  19.028  0.00  0.00    +0.000 A 
ATOM     27  C   UNL     1       2.132   5.305  17.943  0.00  0.00    +0.000 A 
ATOM     28  C   UNL     1       1.553   4.044  18.123  0.00  0.00    +0.000 A 
ATOM     29  C   UNL     1       1.147   3.647  19.388  0.00  0.00    +0.000 A 
ATOM     30  F   UNL     1       0.562   2.454  19.551  0.00  0.00    +0.000 F 
ATOM     31  C   UNL     1       1.320   4.484  20.478  0.00  0.00    +0.000 A 
ATOM     32  C   UNL     1       1.919   5.734  20.294  0.00  0.00    +0.000 A 
ENDBRANCH  24  26
ENDBRANCH  23  24
ENDBRANCH   3  23
TORSDOF 5
ENDMDL
