MODEL 1
REMARK VINA RESULT:      -9.6      0.000      0.000
REMARK  Name = 
REMARK  6 active torsions:
REMARK  status: ('A' for Active; 'I' for Inactive)
REMARK    1  A    between atoms: C_2  and  C_19
REMARK    2  A    between atoms: N_3  and  C_4
REMARK    3  A    between atoms: C_8  and  S_9
REMARK    4  A    between atoms: S_9  and  N_12
REMARK    5  A    between atoms: C_21  and  N_22
REMARK    6  A    between atoms: C_27  and  N_28
REMARK                            x       y       z     vdW  Elec       q    Type
REMARK                         _______ _______ _______ _____ _____    ______ ____
ROOT
ATOM      1  O   UNL     1       2.249   7.972  17.641  0.00  0.00    +0.000 OA
ATOM      2  C   UNL     1       2.734   7.330  18.571  0.00  0.00    +0.000 C 
ATOM      3  N   UNL     1       2.425   7.533  19.911  0.00  0.00    +0.000 N 
ATOM      4  H   UNL     1       3.089   7.192  20.596  0.00  0.00    +0.000 HD
ENDROOT
BRANCH   3   5
ATOM      5  C   UNL     1       1.454   8.450  20.364  0.00  0.00    +0.000 A 
ATOM      6  C   UNL     1       0.676   8.087  21.468  0.00  0.00    +0.000 A 
ATOM      7  C   UNL     1      -0.266   8.975  21.993  0.00  0.00    +0.000 A 
ATOM      8  C   UNL     1      -0.485  10.205  21.378  0.00  0.00    +0.000 A 
ATOM      9  C   UNL     1       0.254  10.551  20.240  0.00  0.00    +0.000 A 
ATOM     10  C   UNL     1       1.228   9.678  19.734  0.00  0.00    +0.000 A 
BRANCH   9  11
ATOM     11  S   UNL     1      -0.177  12.037  19.341  0.00  0.00    +0.000 S 
ATOM     12  O   UNL     1      -0.640  13.007  20.312  0.00  0.00    +0.000 OA
ATOM     13  O   UNL     1       0.936  12.340  18.465  0.00  0.00    +0.000 OA
BRANCH  11  14
ATOM     14  N   UNL     1      -1.505  11.571  18.361  0.00  0.00    +0.000 NA
ATOM     15  C   UNL     1      -1.361  10.248  17.701  0.00  0.00    +0.000 C 
ATOM     16  C   UNL     1      -2.488   9.994  16.705  0.00  0.00    +0.000 C 
ATOM     17  C   UNL     1      -3.850  10.177  17.359  0.00  0.00    +0.000 C 
ATOM     18  C   UNL     1      -3.950  11.586  17.923  0.00  0.00    +0.000 C 
ATOM     19  C   UNL     1      -2.844  11.848  18.941  0.00  0.00    +0.000 C 
ENDBRANCH  11  14
ENDBRANCH   9  11
ENDBRANCH   3   5
BRANCH   2  20
ATOM     20  C   UNL     1       3.746   6.261  18.303  0.00  0.00    +0.000 A 
ATOM     21  C   UNL     1       4.866   6.666  17.543  0.00  0.00    +0.000 A 
ATOM     22  C   UNL     1       5.942   5.795  17.356  0.00  0.00    +0.000 A 
ATOM     23  C   UNL     1       5.936   4.537  17.947  0.00  0.00    +0.000 A 
ATOM     24  C   UNL     1       4.820   4.138  18.689  0.00  0.00    +0.000 A 
ATOM     25  C   UNL     1       3.686   4.958  18.880  0.00  0.00    +0.000 A 
BRANCH  25  26
ATOM     26  N   UNL     1       2.604   4.422  19.545  0.00  0.00    +0.000 N 
ATOM     27  C   UNL     1       2.480   4.417  21.016  0.00  0.00    +0.000 C 
ATOM     28  C   UNL     1       2.164   2.993  21.511  0.00  0.00    +0.000 C 
ATOM     29  O   UNL     1       1.001   2.451  20.862  0.00  0.00    +0.000 OA
ATOM     30  C   UNL     1       1.188   2.423  19.436  0.00  0.00    +0.000 C 
ATOM     31  C   UNL     1       1.441   3.831  18.863  0.00  0.00    +0.000 C 
ENDBRANCH  25  26
BRANCH  22  32
ATOM     32  N   UNL     1       7.081   6.209  16.528  0.00  0.00    +0.000 N 
ATOM     33  O   UNL     1       7.359   5.507  15.546  0.00  0.00    +0.000 OA
ATOM     34  O   UNL     1       7.707   7.220  16.874  0.00  0.00    +0.000 OA
ENDBRANCH  22  32
ENDBRANCH   2  20
TORSDOF 6
ENDMDL
MODEL 2
REMARK VINA RESULT:      -9.3      0.715      1.227
REMARK  Name = 
REMARK  6 active torsions:
REMARK  status: ('A' for Active; 'I' for Inactive)
REMARK    1  A    between atoms: C_2  and  C_19
REMARK    2  A    between atoms: N_3  and  C_4
REMARK    3  A    between atoms: C_8  and  S_9
REMARK    4  A    between atoms: S_9  and  N_12
REMARK    5  A    between atoms: C_21  and  N_22
REMARK    6  A    between atoms: C_27  and  N_28
REMARK                            x       y       z     vdW  Elec       q    Type
REMARK                         _______ _______ _______ _____ _____    ______ ____
ROOT
ATOM      1  O   UNL     1       1.603   6.175  18.020  0.00  0.00    +0.000 OA
ATOM      2  C   UNL     1       2.654   6.412  18.612  0.00  0.00    +0.000 C 
ATOM      3  N   UNL     1       2.804   7.396  19.583  0.00  0.00    +0.000 N 
ATOM      4  H   UNL     1       3.745   7.721  19.772  0.00  0.00    +0.000 HD
ENDROOT
BRANCH   3   5
ATOM      5  C   UNL     1       1.745   8.192  20.067  0.00  0.00    +0.000 A 
ATOM      6  C   UNL     1       0.914   7.647  21.050  0.00  0.00    +0.000 A 
ATOM      7  C   UNL     1      -0.120   8.406  21.604  0.00  0.00    +0.000 A 
ATOM      8  C   UNL     1      -0.374   9.692  21.130  0.00  0.00    +0.000 A 
ATOM      9  C   UNL     1       0.423  10.221  20.108  0.00  0.00    +0.000 A 
ATOM     10  C   UNL     1       1.486   9.476  19.577  0.00  0.00    +0.000 A 
BRANCH   9  11
ATOM     11  S   UNL     1      -0.038  11.784  19.368  0.00  0.00    +0.000 S 
ATOM     12  O   UNL     1      -0.509  12.642  20.436  0.00  0.00    +0.000 OA
ATOM     13  O   UNL     1       1.065  12.194  18.523  0.00  0.00    +0.000 OA
BRANCH  11  14
ATOM     14  N   UNL     1      -1.365  11.399  18.352  0.00  0.00    +0.000 NA
ATOM     15  C   UNL     1      -1.249  10.104  17.636  0.00  0.00    +0.000 C 
ATOM     16  C   UNL     1      -2.369   9.926  16.617  0.00  0.00    +0.000 C 
ATOM     17  C   UNL     1      -3.734  10.118  17.262  0.00  0.00    +0.000 C 
ATOM     18  C   UNL     1      -3.803  11.503  17.886  0.00  0.00    +0.000 C 
ATOM     19  C   UNL     1      -2.703  11.688  18.928  0.00  0.00    +0.000 C 
ENDBRANCH  11  14
ENDBRANCH   9  11
ENDBRANCH   3   5
BRANCH   2  20
ATOM     20  C   UNL     1       3.893   5.637  18.292  0.00  0.00    +0.000 A 
ATOM     21  C   UNL     1       4.909   6.366  17.634  0.00  0.00    +0.000 A 
ATOM     22  C   UNL     1       6.162   5.788  17.416  0.00  0.00    +0.000 A 
ATOM     23  C   UNL     1       6.431   4.505  17.878  0.00  0.00    +0.000 A 
ATOM     24  C   UNL     1       5.419   3.785  18.519  0.00  0.00    +0.000 A 
ATOM     25  C   UNL     1       4.122   4.300  18.732  0.00  0.00    +0.000 A 
BRANCH  25  26
ATOM     26  N   UNL     1       3.175   3.463  19.285  0.00  0.00    +0.000 N 
ATOM     27  C   UNL     1       2.319   2.568  18.482  0.00  0.00    +0.000 C 
ATOM     28  C   UNL     1       0.841   2.777  18.862  0.00  0.00    +0.000 C 
ATOM     29  O   UNL     1       0.627   2.616  20.275  0.00  0.00    +0.000 OA
ATOM     30  C   UNL     1       1.439   3.545  21.014  0.00  0.00    +0.000 C 
ATOM     31  C   UNL     1       2.940   3.345  20.733  0.00  0.00    +0.000 C 
ENDBRANCH  25  26
BRANCH  22  32
ATOM     32  N   UNL     1       7.195   6.537  16.691  0.00  0.00    +0.000 N 
ATOM     33  O   UNL     1       7.535   7.636  17.153  0.00  0.00    +0.000 OA
ATOM     34  O   UNL     1       7.647   6.038  15.653  0.00  0.00    +0.000 OA
ENDBRANCH  22  32
ENDBRANCH   2  20
TORSDOF 6
ENDMDL
MODEL 3
REMARK VINA RESULT:      -9.3      0.764      1.425
REMARK  Name = 
REMARK  6 active torsions:
REMARK  status: ('A' for Active; 'I' for Inactive)
REMARK    1  A    between atoms: C_2  and  C_19
REMARK    2  A    between atoms: N_3  and  C_4
REMARK    3  A    between atoms: C_8  and  S_9
REMARK    4  A    between atoms: S_9  and  N_12
REMARK    5  A    between atoms: C_21  and  N_22
REMARK    6  A    between atoms: C_27  and  N_28
REMARK                            x       y       z     vdW  Elec       q    Type
REMARK                         _______ _______ _______ _____ _____    ______ ____
ROOT
ATOM      1  O   UNL     1       1.698   6.410  17.852  0.00  0.00    +0.000 OA
ATOM      2  C   UNL     1       2.678   6.473  18.593  0.00  0.00    +0.000 C 
ATOM      3  N   UNL     1       2.749   7.259  19.737  0.00  0.00    +0.000 N 
ATOM      4  H   UNL     1       3.672   7.486  20.087  0.00  0.00    +0.000 HD
ENDROOT
BRANCH   3   5
ATOM      5  C   UNL     1       1.672   8.021  20.236  0.00  0.00    +0.000 A 
ATOM      6  C   UNL     1       0.917   7.481  21.282  0.00  0.00    +0.000 A 
ATOM      7  C   UNL     1      -0.129   8.212  21.850  0.00  0.00    +0.000 A 
ATOM      8  C   UNL     1      -0.473   9.458  21.332  0.00  0.00    +0.000 A 
ATOM      9  C   UNL     1       0.246   9.979  20.249  0.00  0.00    +0.000 A 
ATOM     10  C   UNL     1       1.322   9.266  19.702  0.00  0.00    +0.000 A 
BRANCH   9  11
ATOM     11  S   UNL     1      -0.332  11.479  19.464  0.00  0.00    +0.000 S 
ATOM     12  O   UNL     1      -0.657  12.418  20.518  0.00  0.00    +0.000 OA
ATOM     13  O   UNL     1       0.636  11.821  18.441  0.00  0.00    +0.000 OA
BRANCH  11  14
ATOM     14  N   UNL     1      -1.784  11.017  18.678  0.00  0.00    +0.000 NA
ATOM     15  C   UNL     1      -2.850  12.050  18.677  0.00  0.00    +0.000 C 
ATOM     16  C   UNL     1      -4.164  11.498  18.132  0.00  0.00    +0.000 C 
ATOM     17  C   UNL     1      -3.966  10.858  16.766  0.00  0.00    +0.000 C 
ATOM     18  C   UNL     1      -2.932   9.749  16.876  0.00  0.00    +0.000 C 
ATOM     19  C   UNL     1      -1.603  10.290  17.396  0.00  0.00    +0.000 C 
ENDBRANCH  11  14
ENDBRANCH   9  11
ENDBRANCH   3   5
BRANCH   2  20
ATOM     20  C   UNL     1       3.914   5.691  18.277  0.00  0.00    +0.000 A 
ATOM     21  C   UNL     1       4.940   6.416  17.631  0.00  0.00    +0.000 A 
ATOM     22  C   UNL     1       6.190   5.830  17.419  0.00  0.00    +0.000 A 
ATOM     23  C   UNL     1       6.448   4.543  17.877  0.00  0.00    +0.000 A 
ATOM     24  C   UNL     1       5.426   3.827  18.507  0.00  0.00    +0.000 A 
ATOM     25  C   UNL     1       4.130   4.350  18.713  0.00  0.00    +0.000 A 
BRANCH  25  26
ATOM     26  N   UNL     1       3.174   3.517  19.255  0.00  0.00    +0.000 N 
ATOM     27  C   UNL     1       2.308   2.642  18.440  0.00  0.00    +0.000 C 
ATOM     28  C   UNL     1       0.832   2.862  18.821  0.00  0.00    +0.000 C 
ATOM     29  O   UNL     1       0.616   2.686  20.232  0.00  0.00    +0.000 OA
ATOM     30  C   UNL     1       1.437   3.597  20.983  0.00  0.00    +0.000 C 
ATOM     31  C   UNL     1       2.937   3.383  20.701  0.00  0.00    +0.000 C 
ENDBRANCH  25  26
BRANCH  22  32
ATOM     32  N   UNL     1       7.235   6.576  16.707  0.00  0.00    +0.000 N 
ATOM     33  O   UNL     1       7.690   6.074  15.670  0.00  0.00    +0.000 OA
ATOM     34  O   UNL     1       7.612   7.648  17.197  0.00  0.00    +0.000 OA
ENDBRANCH  22  32
ENDBRANCH   2  20
TORSDOF 6
ENDMDL
MODEL 4
REMARK VINA RESULT:      -9.2      0.520      1.133
REMARK  Name = 
REMARK  6 active torsions:
REMARK  status: ('A' for Active; 'I' for Inactive)
REMARK    1  A    between atoms: C_2  and  C_19
REMARK    2  A    between atoms: N_3  and  C_4
REMARK    3  A    between atoms: C_8  and  S_9
REMARK    4  A    between atoms: S_9  and  N_12
REMARK    5  A    between atoms: C_21  and  N_22
REMARK    6  A    between atoms: C_27  and  N_28
REMARK                            x       y       z     vdW  Elec       q    Type
REMARK                         _______ _______ _______ _____ _____    ______ ____
ROOT
ATOM      1  O   UNL     1       1.852   7.858  17.783  0.00  0.00    +0.000 OA
ATOM      2  C   UNL     1       2.499   7.359  18.703  0.00  0.00    +0.000 C 
ATOM      3  N   UNL     1       2.326   7.673  20.046  0.00  0.00    +0.000 N 
ATOM      4  H   UNL     1       3.093   7.463  20.674  0.00  0.00    +0.000 HD
ENDROOT
BRANCH   3   5
ATOM      5  C   UNL     1       1.328   8.544  20.528  0.00  0.00    +0.000 A 
ATOM      6  C   UNL     1       0.719   8.232  21.747  0.00  0.00    +0.000 A 
ATOM      7  C   UNL     1      -0.240   9.084  22.299  0.00  0.00    +0.000 A 
ATOM      8  C   UNL     1      -0.648  10.221  21.604  0.00  0.00    +0.000 A 
ATOM      9  C   UNL     1      -0.080  10.509  20.357  0.00  0.00    +0.000 A 
ATOM     10  C   UNL     1       0.912   9.676  19.818  0.00  0.00    +0.000 A 
BRANCH   9  11
ATOM     11  S   UNL     1      -0.754  11.850  19.383  0.00  0.00    +0.000 S 
ATOM     12  O   UNL     1      -1.319  12.811  20.309  0.00  0.00    +0.000 OA
ATOM     13  O   UNL     1       0.272  12.247  18.441  0.00  0.00    +0.000 OA
BRANCH  11  14
ATOM     14  N   UNL     1      -2.033  11.131  18.496  0.00  0.00    +0.000 NA
ATOM     15  C   UNL     1      -3.350  11.801  18.643  0.00  0.00    +0.000 C 
ATOM     16  C   UNL     1      -4.464  10.997  17.981  0.00  0.00    +0.000 C 
ATOM     17  C   UNL     1      -4.126  10.681  16.532  0.00  0.00    +0.000 C 
ATOM     18  C   UNL     1      -2.815   9.912  16.478  0.00  0.00    +0.000 C 
ATOM     19  C   UNL     1      -1.684  10.714  17.114  0.00  0.00    +0.000 C 
ENDBRANCH  11  14
ENDBRANCH   9  11
ENDBRANCH   3   5
BRANCH   2  20
ATOM     20  C   UNL     1       3.575   6.360  18.413  0.00  0.00    +0.000 A 
ATOM     21  C   UNL     1       4.739   6.883  17.809  0.00  0.00    +0.000 A 
ATOM     22  C   UNL     1       5.863   6.073  17.626  0.00  0.00    +0.000 A 
ATOM     23  C   UNL     1       5.857   4.756  18.073  0.00  0.00    +0.000 A 
ATOM     24  C   UNL     1       4.698   4.241  18.662  0.00  0.00    +0.000 A 
ATOM     25  C   UNL     1       3.519   4.999  18.836  0.00  0.00    +0.000 A 
BRANCH  25  26
ATOM     26  N   UNL     1       2.406   4.358  19.336  0.00  0.00    +0.000 N 
ATOM     27  C   UNL     1       2.146   4.197  20.781  0.00  0.00    +0.000 C 
ATOM     28  C   UNL     1       1.852   2.719  21.100  0.00  0.00    +0.000 C 
ATOM     29  O   UNL     1       0.782   2.203  20.291  0.00  0.00    +0.000 OA
ATOM     30  C   UNL     1       1.103   2.328  18.895  0.00  0.00    +0.000 C 
ATOM     31  C   UNL     1       1.342   3.796  18.490  0.00  0.00    +0.000 C 
ENDBRANCH  25  26
BRANCH  22  32
ATOM     32  N   UNL     1       7.052   6.614  16.957  0.00  0.00    +0.000 N 
ATOM     33  O   UNL     1       7.687   7.499  17.546  0.00  0.00    +0.000 OA
ATOM     34  O   UNL     1       7.333   6.169  15.836  0.00  0.00    +0.000 OA
ENDBRANCH  22  32
ENDBRANCH   2  20
TORSDOF 6
ENDMDL
MODEL 5
REMARK VINA RESULT:      -9.1      2.219      3.234
REMARK  Name = 
REMARK  6 active torsions:
REMARK  status: ('A' for Active; 'I' for Inactive)
REMARK    1  A    between atoms: C_2  and  C_19
REMARK    2  A    between atoms: N_3  and  C_4
REMARK    3  A    between atoms: C_8  and  S_9
REMARK    4  A    between atoms: S_9  and  N_12
REMARK    5  A    between atoms: C_21  and  N_22
REMARK    6  A    between atoms: C_27  and  N_28
REMARK                            x       y       z     vdW  Elec       q    Type
REMARK                         _______ _______ _______ _____ _____    ______ ____
ROOT
ATOM      1  O   UNL     1       1.615   5.741  18.056  0.00  0.00    +0.000 OA
ATOM      2  C   UNL     1       2.710   6.271  18.238  0.00  0.00    +0.000 C 
ATOM      3  N   UNL     1       2.887   7.584  18.659  0.00  0.00    +0.000 N 
ATOM      4  H   UNL     1       3.787   8.012  18.475  0.00  0.00    +0.000 HD
ENDROOT
BRANCH   3   5
ATOM      5  C   UNL     1       1.829   8.448  19.007  0.00  0.00    +0.000 A 
ATOM      6  C   UNL     1       1.268   9.236  17.997  0.00  0.00    +0.000 A 
ATOM      7  C   UNL     1       0.184  10.073  18.272  0.00  0.00    +0.000 A 
ATOM      8  C   UNL     1      -0.304  10.180  19.572  0.00  0.00    +0.000 A 
ATOM      9  C   UNL     1       0.289   9.433  20.597  0.00  0.00    +0.000 A 
ATOM     10  C   UNL     1       1.353   8.563  20.318  0.00  0.00    +0.000 A 
BRANCH   9  11
ATOM     11  S   UNL     1      -0.208   9.732  22.290  0.00  0.00    +0.000 S 
ATOM     12  O   UNL     1      -1.163   8.702  22.645  0.00  0.00    +0.000 OA
ATOM     13  O   UNL     1       1.005   9.912  23.062  0.00  0.00    +0.000 OA
BRANCH  11  14
ATOM     14  N   UNL     1      -1.025  11.238  22.235  0.00  0.00    +0.000 NA
ATOM     15  C   UNL     1      -2.011  11.455  23.323  0.00  0.00    +0.000 C 
ATOM     16  C   UNL     1      -2.825  12.725  23.097  0.00  0.00    +0.000 C 
ATOM     17  C   UNL     1      -1.917  13.927  22.881  0.00  0.00    +0.000 C 
ATOM     18  C   UNL     1      -1.008  13.662  21.691  0.00  0.00    +0.000 C 
ATOM     19  C   UNL     1      -0.168  12.408  21.913  0.00  0.00    +0.000 C 
ENDBRANCH  11  14
ENDBRANCH   9  11
ENDBRANCH   3   5
BRANCH   2  20
ATOM     20  C   UNL     1       3.970   5.505  17.984  0.00  0.00    +0.000 A 
ATOM     21  C   UNL     1       4.976   6.212  17.288  0.00  0.00    +0.000 A 
ATOM     22  C   UNL     1       6.245   5.651  17.123  0.00  0.00    +0.000 A 
ATOM     23  C   UNL     1       6.539   4.409  17.674  0.00  0.00    +0.000 A 
ATOM     24  C   UNL     1       5.536   3.710  18.353  0.00  0.00    +0.000 A 
ATOM     25  C   UNL     1       4.224   4.207  18.517  0.00  0.00    +0.000 A 
BRANCH  25  26
ATOM     26  N   UNL     1       3.291   3.388  19.116  0.00  0.00    +0.000 N 
ATOM     27  C   UNL     1       2.528   2.359  18.381  0.00  0.00    +0.000 C 
ATOM     28  C   UNL     1       1.022   2.525  18.657  0.00  0.00    +0.000 C 
ATOM     29  O   UNL     1       0.736   2.517  20.067  0.00  0.00    +0.000 OA
ATOM     30  C   UNL     1       1.456   3.569  20.732  0.00  0.00    +0.000 C 
ATOM     31  C   UNL     1       2.979   3.424  20.553  0.00  0.00    +0.000 C 
ENDBRANCH  25  26
BRANCH  22  32
ATOM     32  N   UNL     1       7.269   6.374  16.360  0.00  0.00    +0.000 N 
ATOM     33  O   UNL     1       7.622   7.483  16.785  0.00  0.00    +0.000 OA
ATOM     34  O   UNL     1       7.701   5.843  15.328  0.00  0.00    +0.000 OA
ENDBRANCH  22  32
ENDBRANCH   2  20
TORSDOF 6
ENDMDL
MODEL 6
REMARK VINA RESULT:      -9.1      1.719      2.548
REMARK  Name = 
REMARK  6 active torsions:
REMARK  status: ('A' for Active; 'I' for Inactive)
REMARK    1  A    between atoms: C_2  and  C_19
REMARK    2  A    between atoms: N_3  and  C_4
REMARK    3  A    between atoms: C_8  and  S_9
REMARK    4  A    between atoms: S_9  and  N_12
REMARK    5  A    between atoms: C_21  and  N_22
REMARK    6  A    between atoms: C_27  and  N_28
REMARK                            x       y       z     vdW  Elec       q    Type
REMARK                         _______ _______ _______ _____ _____    ______ ____
ROOT
ATOM      1  O   UNL     1       2.285   8.070  17.643  0.00  0.00    +0.000 OA
ATOM      2  C   UNL     1       2.730   7.394  18.569  0.00  0.00    +0.000 C 
ATOM      3  N   UNL     1       2.395   7.577  19.906  0.00  0.00    +0.000 N 
ATOM      4  H   UNL     1       3.033   7.202  20.599  0.00  0.00    +0.000 HD
ENDROOT
BRANCH   3   5
ATOM      5  C   UNL     1       1.438   8.509  20.357  0.00  0.00    +0.000 A 
ATOM      6  C   UNL     1       1.098   8.494  21.713  0.00  0.00    +0.000 A 
ATOM      7  C   UNL     1       0.195   9.428  22.227  0.00  0.00    +0.000 A 
ATOM      8  C   UNL     1      -0.427  10.339  21.377  0.00  0.00    +0.000 A 
ATOM      9  C   UNL     1      -0.131  10.322  20.009  0.00  0.00    +0.000 A 
ATOM     10  C   UNL     1       0.805   9.412  19.496  0.00  0.00    +0.000 A 
BRANCH   9  11
ATOM     11  S   UNL     1      -1.083  11.354  18.899  0.00  0.00    +0.000 S 
ATOM     12  O   UNL     1      -1.223  10.628  17.653  0.00  0.00    +0.000 OA
ATOM     13  O   UNL     1      -2.252  11.797  19.632  0.00  0.00    +0.000 OA
BRANCH  11  14
ATOM     14  N   UNL     1      -0.085  12.721  18.626  0.00  0.00    +0.000 NA
ATOM     15  C   UNL     1      -0.543  13.971  19.283  0.00  0.00    +0.000 C 
ATOM     16  C   UNL     1       0.285  15.172  18.839  0.00  0.00    +0.000 C 
ATOM     17  C   UNL     1       1.772  14.917  19.038  0.00  0.00    +0.000 C 
ATOM     18  C   UNL     1       2.177  13.677  18.255  0.00  0.00    +0.000 C 
ATOM     19  C   UNL     1       1.375  12.460  18.706  0.00  0.00    +0.000 C 
ENDBRANCH  11  14
ENDBRANCH   9  11
ENDBRANCH   3   5
BRANCH   2  20
ATOM     20  C   UNL     1       3.720   6.305  18.301  0.00  0.00    +0.000 A 
ATOM     21  C   UNL     1       4.841   6.682  17.529  0.00  0.00    +0.000 A 
ATOM     22  C   UNL     1       5.898   5.789  17.340  0.00  0.00    +0.000 A 
ATOM     23  C   UNL     1       5.874   4.536  17.941  0.00  0.00    +0.000 A 
ATOM     24  C   UNL     1       4.757   4.164  18.695  0.00  0.00    +0.000 A 
ATOM     25  C   UNL     1       3.641   5.007  18.888  0.00  0.00    +0.000 A 
BRANCH  25  26
ATOM     26  N   UNL     1       2.554   4.497  19.567  0.00  0.00    +0.000 N 
ATOM     27  C   UNL     1       2.422   4.547  21.037  0.00  0.00    +0.000 C 
ATOM     28  C   UNL     1       2.101   3.142  21.582  0.00  0.00    +0.000 C 
ATOM     29  O   UNL     1       0.942   2.577  20.947  0.00  0.00    +0.000 OA
ATOM     30  C   UNL     1       1.137   2.496  19.525  0.00  0.00    +0.000 C 
ATOM     31  C   UNL     1       1.395   3.881  18.901  0.00  0.00    +0.000 C 
ENDBRANCH  25  26
BRANCH  22  32
ATOM     32  N   UNL     1       7.038   6.176  16.499  0.00  0.00    +0.000 N 
ATOM     33  O   UNL     1       7.722   7.139  16.871  0.00  0.00    +0.000 OA
ATOM     34  O   UNL     1       7.231   5.531  15.460  0.00  0.00    +0.000 OA
ENDBRANCH  22  32
ENDBRANCH   2  20
TORSDOF 6
ENDMDL
MODEL 7
REMARK VINA RESULT:      -9.1      1.236      1.854
REMARK  Name = 
REMARK  6 active torsions:
REMARK  status: ('A' for Active; 'I' for Inactive)
REMARK    1  A    between atoms: C_2  and  C_19
REMARK    2  A    between atoms: N_3  and  C_4
REMARK    3  A    between atoms: C_8  and  S_9
REMARK    4  A    between atoms: S_9  and  N_12
REMARK    5  A    between atoms: C_21  and  N_22
REMARK    6  A    between atoms: C_27  and  N_28
REMARK                            x       y       z     vdW  Elec       q    Type
REMARK                         _______ _______ _______ _____ _____    ______ ____
ROOT
ATOM      1  O   UNL     1       1.926   7.803  17.639  0.00  0.00    +0.000 OA
ATOM      2  C   UNL     1       2.562   7.343  18.586  0.00  0.00    +0.000 C 
ATOM      3  N   UNL     1       2.379   7.717  19.912  0.00  0.00    +0.000 N 
ATOM      4  H   UNL     1       3.139   7.531  20.556  0.00  0.00    +0.000 HD
ENDROOT
BRANCH   3   5
ATOM      5  C   UNL     1       1.381   8.614  20.345  0.00  0.00    +0.000 A 
ATOM      6  C   UNL     1       0.848   8.432  21.625  0.00  0.00    +0.000 A 
ATOM      7  C   UNL     1      -0.106   9.320  22.128  0.00  0.00    +0.000 A 
ATOM      8  C   UNL     1      -0.584  10.357  21.330  0.00  0.00    +0.000 A 
ATOM      9  C   UNL     1      -0.093  10.511  20.028  0.00  0.00    +0.000 A 
ATOM     10  C   UNL     1       0.894   9.645  19.534  0.00  0.00    +0.000 A 
BRANCH   9  11
ATOM     11  S   UNL     1      -0.858  11.712  18.945  0.00  0.00    +0.000 S 
ATOM     12  O   UNL     1       0.134  12.728  18.661  0.00  0.00    +0.000 OA
ATOM     13  O   UNL     1      -1.488  10.972  17.870  0.00  0.00    +0.000 OA
BRANCH  11  14
ATOM     14  N   UNL     1      -2.100  12.414  19.898  0.00  0.00    +0.000 NA
ATOM     15  C   UNL     1      -1.804  13.778  20.403  0.00  0.00    +0.000 C 
ATOM     16  C   UNL     1      -2.866  14.252  21.390  0.00  0.00    +0.000 C 
ATOM     17  C   UNL     1      -4.261  14.138  20.792  0.00  0.00    +0.000 C 
ATOM     18  C   UNL     1      -4.518  12.694  20.391  0.00  0.00    +0.000 C 
ATOM     19  C   UNL     1      -3.478  12.213  19.384  0.00  0.00    +0.000 C 
ENDBRANCH  11  14
ENDBRANCH   9  11
ENDBRANCH   3   5
BRANCH   2  20
ATOM     20  C   UNL     1       3.634   6.326  18.351  0.00  0.00    +0.000 A 
ATOM     21  C   UNL     1       4.753   6.784  17.620  0.00  0.00    +0.000 A 
ATOM     22  C   UNL     1       5.876   5.968  17.467  0.00  0.00    +0.000 A 
ATOM     23  C   UNL     1       5.918   4.713  18.064  0.00  0.00    +0.000 A 
ATOM     24  C   UNL     1       4.803   4.261  18.777  0.00  0.00    +0.000 A 
ATOM     25  C   UNL     1       3.625   5.023  18.932  0.00  0.00    +0.000 A 
BRANCH  25  26
ATOM     26  N   UNL     1       2.553   4.436  19.571  0.00  0.00    +0.000 N 
ATOM     27  C   UNL     1       2.321   4.540  21.025  0.00  0.00    +0.000 C 
ATOM     28  C   UNL     1       2.108   3.137  21.624  0.00  0.00    +0.000 C 
ATOM     29  O   UNL     1       1.055   2.426  20.952  0.00  0.00    +0.000 OA
ATOM     30  C   UNL     1       1.350   2.299  19.550  0.00  0.00    +0.000 C 
ATOM     31  C   UNL     1       1.508   3.673  18.870  0.00  0.00    +0.000 C 
ENDBRANCH  25  26
BRANCH  22  32
ATOM     32  N   UNL     1       7.015   6.436  16.668  0.00  0.00    +0.000 N 
ATOM     33  O   UNL     1       7.391   5.717  15.732  0.00  0.00    +0.000 OA
ATOM     34  O   UNL     1       7.544   7.507  16.993  0.00  0.00    +0.000 OA
ENDBRANCH  22  32
ENDBRANCH   2  20
TORSDOF 6
ENDMDL
MODEL 8
REMARK VINA RESULT:      -9.0      1.340      2.079
REMARK  Name = 
REMARK  6 active torsions:
REMARK  status: ('A' for Active; 'I' for Inactive)
REMARK    1  A    between atoms: C_2  and  C_19
REMARK    2  A    between atoms: N_3  and  C_4
REMARK    3  A    between atoms: C_8  and  S_9
REMARK    4  A    between atoms: S_9  and  N_12
REMARK    5  A    between atoms: C_21  and  N_22
REMARK    6  A    between atoms: C_27  and  N_28
REMARK                            x       y       z     vdW  Elec       q    Type
REMARK                         _______ _______ _______ _____ _____    ______ ____
ROOT
ATOM      1  O   UNL     1       1.591   6.241  17.877  0.00  0.00    +0.000 OA
ATOM      2  C   UNL     1       2.620   6.472  18.509  0.00  0.00    +0.000 C 
ATOM      3  N   UNL     1       2.737   7.450  19.491  0.00  0.00    +0.000 N 
ATOM      4  H   UNL     1       3.671   7.771  19.717  0.00  0.00    +0.000 HD
ENDROOT
BRANCH   3   5
ATOM      5  C   UNL     1       1.663   8.246  19.940  0.00  0.00    +0.000 A 
ATOM      6  C   UNL     1       1.053   7.900  21.150  0.00  0.00    +0.000 A 
ATOM      7  C   UNL     1       0.018   8.680  21.670  0.00  0.00    +0.000 A 
ATOM      8  C   UNL     1      -0.461   9.773  20.952  0.00  0.00    +0.000 A 
ATOM      9  C   UNL     1       0.110  10.092  19.714  0.00  0.00    +0.000 A 
ATOM     10  C   UNL     1       1.176   9.333  19.208  0.00  0.00    +0.000 A 
BRANCH   9  11
ATOM     11  S   UNL     1      -0.645  11.365  18.710  0.00  0.00    +0.000 S 
ATOM     12  O   UNL     1       0.379  12.348  18.421  0.00  0.00    +0.000 OA
ATOM     13  O   UNL     1      -1.351  10.694  17.636  0.00  0.00    +0.000 OA
BRANCH  11  14
ATOM     14  N   UNL     1      -1.814  12.082  19.739  0.00  0.00    +0.000 NA
ATOM     15  C   UNL     1      -1.382  13.343  20.392  0.00  0.00    +0.000 C 
ATOM     16  C   UNL     1      -2.396  13.813  21.430  0.00  0.00    +0.000 C 
ATOM     17  C   UNL     1      -3.790  13.913  20.828  0.00  0.00    +0.000 C 
ATOM     18  C   UNL     1      -4.194  12.558  20.269  0.00  0.00    +0.000 C 
ATOM     19  C   UNL     1      -3.202  12.086  19.210  0.00  0.00    +0.000 C 
ENDBRANCH  11  14
ENDBRANCH   9  11
ENDBRANCH   3   5
BRANCH   2  20
ATOM     20  C   UNL     1       3.868   5.696  18.230  0.00  0.00    +0.000 A 
ATOM     21  C   UNL     1       4.890   6.411  17.567  0.00  0.00    +0.000 A 
ATOM     22  C   UNL     1       6.149   5.834  17.385  0.00  0.00    +0.000 A 
ATOM     23  C   UNL     1       6.419   4.566  17.888  0.00  0.00    +0.000 A 
ATOM     24  C   UNL     1       5.400   3.859  18.533  0.00  0.00    +0.000 A 
ATOM     25  C   UNL     1       4.097   4.373  18.712  0.00  0.00    +0.000 A 
BRANCH  25  26
ATOM     26  N   UNL     1       3.147   3.546  19.274  0.00  0.00    +0.000 N 
ATOM     27  C   UNL     1       2.488   2.451  18.534  0.00  0.00    +0.000 C 
ATOM     28  C   UNL     1       0.958   2.570  18.674  0.00  0.00    +0.000 C 
ATOM     29  O   UNL     1       0.553   2.620  20.053  0.00  0.00    +0.000 OA
ATOM     30  C   UNL     1       1.174   3.734  20.718  0.00  0.00    +0.000 C 
ATOM     31  C   UNL     1       2.712   3.642  20.676  0.00  0.00    +0.000 C 
ENDBRANCH  25  26
BRANCH  22  32
ATOM     32  N   UNL     1       7.190   6.569  16.656  0.00  0.00    +0.000 N 
ATOM     33  O   UNL     1       7.659   6.039  15.640  0.00  0.00    +0.000 OA
ATOM     34  O   UNL     1       7.551   7.661  17.114  0.00  0.00    +0.000 OA
ENDBRANCH  22  32
ENDBRANCH   2  20
TORSDOF 6
ENDMDL
MODEL 9
REMARK VINA RESULT:      -9.0      1.946      2.870
REMARK  Name = 
REMARK  6 active torsions:
REMARK  status: ('A' for Active; 'I' for Inactive)
REMARK    1  A    between atoms: C_2  and  C_19
REMARK    2  A    between atoms: N_3  and  C_4
REMARK    3  A    between atoms: C_8  and  S_9
REMARK    4  A    between atoms: S_9  and  N_12
REMARK    5  A    between atoms: C_21  and  N_22
REMARK    6  A    between atoms: C_27  and  N_28
REMARK                            x       y       z     vdW  Elec       q    Type
REMARK                         _______ _______ _______ _____ _____    ______ ____
ROOT
ATOM      1  O   UNL     1       1.930   7.890  17.749  0.00  0.00    +0.000 OA
ATOM      2  C   UNL     1       2.548   7.364  18.674  0.00  0.00    +0.000 C 
ATOM      3  N   UNL     1       2.356   7.664  20.018  0.00  0.00    +0.000 N 
ATOM      4  H   UNL     1       3.106   7.427  20.657  0.00  0.00    +0.000 HD
ENDROOT
BRANCH   3   5
ATOM      5  C   UNL     1       1.371   8.554  20.492  0.00  0.00    +0.000 A 
ATOM      6  C   UNL     1       0.520   8.108  21.508  0.00  0.00    +0.000 A 
ATOM      7  C   UNL     1      -0.441   8.962  22.053  0.00  0.00    +0.000 A 
ATOM      8  C   UNL     1      -0.605  10.247  21.540  0.00  0.00    +0.000 A 
ATOM      9  C   UNL     1       0.208  10.680  20.487  0.00  0.00    +0.000 A 
ATOM     10  C   UNL     1       1.201   9.838  19.964  0.00  0.00    +0.000 A 
BRANCH   9  11
ATOM     11  S   UNL     1      -0.146  12.248  19.702  0.00  0.00    +0.000 S 
ATOM     12  O   UNL     1      -0.565  11.964  18.345  0.00  0.00    +0.000 OA
ATOM     13  O   UNL     1      -1.008  12.987  20.603  0.00  0.00    +0.000 OA
BRANCH  11  14
ATOM     14  N   UNL     1       1.369  13.050  19.648  0.00  0.00    +0.000 NA
ATOM     15  C   UNL     1       1.853  13.381  18.285  0.00  0.00    +0.000 C 
ATOM     16  C   UNL     1       3.281  13.916  18.312  0.00  0.00    +0.000 C 
ATOM     17  C   UNL     1       3.411  15.083  19.279  0.00  0.00    +0.000 C 
ATOM     18  C   UNL     1       2.989  14.632  20.669  0.00  0.00    +0.000 C 
ATOM     19  C   UNL     1       1.552  14.118  20.664  0.00  0.00    +0.000 C 
ENDBRANCH  11  14
ENDBRANCH   9  11
ENDBRANCH   3   5
BRANCH   2  20
ATOM     20  C   UNL     1       3.603   6.342  18.391  0.00  0.00    +0.000 A 
ATOM     21  C   UNL     1       4.712   6.806  17.650  0.00  0.00    +0.000 A 
ATOM     22  C   UNL     1       5.822   5.982  17.452  0.00  0.00    +0.000 A 
ATOM     23  C   UNL     1       5.861   4.712  18.016  0.00  0.00    +0.000 A 
ATOM     24  C   UNL     1       4.757   4.254  18.741  0.00  0.00    +0.000 A 
ATOM     25  C   UNL     1       3.591   5.025  18.939  0.00  0.00    +0.000 A 
BRANCH  25  26
ATOM     26  N   UNL     1       2.525   4.433  19.584  0.00  0.00    +0.000 N 
ATOM     27  C   UNL     1       2.361   4.442  21.051  0.00  0.00    +0.000 C 
ATOM     28  C   UNL     1       2.119   3.009  21.561  0.00  0.00    +0.000 C 
ATOM     29  O   UNL     1       1.011   2.386  20.890  0.00  0.00    +0.000 OA
ATOM     30  C   UNL     1       1.239   2.348  19.471  0.00  0.00    +0.000 C 
ATOM     31  C   UNL     1       1.421   3.760  18.882  0.00  0.00    +0.000 C 
ENDBRANCH  25  26
BRANCH  22  32
ATOM     32  N   UNL     1       6.950   6.458  16.643  0.00  0.00    +0.000 N 
ATOM     33  O   UNL     1       7.337   5.731  15.717  0.00  0.00    +0.000 OA
ATOM     34  O   UNL     1       7.460   7.544  16.948  0.00  0.00    +0.000 OA
ENDBRANCH  22  32
ENDBRANCH   2  20
TORSDOF 6
ENDMDL
