MODEL 1
REMARK VINA RESULT:     -10.2      0.000      0.000
REMARK  Name = 
REMARK  3 active torsions:
REMARK  status: ('A' for Active; 'I' for Inactive)
REMARK    1  A    between atoms: C_15  and  C_17
REMARK    2  A    between atoms: C_19  and  C_20
REMARK    3  A    between atoms: C_20  and  C_21
REMARK                            x       y       z     vdW  Elec       q    Type
REMARK                         _______ _______ _______ _____ _____    ______ ____
ROOT
ATOM      1  C   UNL     1       0.698  10.442  19.930  0.00  0.00    +0.000 A 
ATOM      2  C   UNL     1       1.336   9.731  18.854  0.00  0.00    +0.000 A 
ATOM      3  C   UNL     1       1.830   8.403  19.008  0.00  0.00    +0.000 A 
ATOM      4  C   UNL     1       1.758   7.862  20.309  0.00  0.00    +0.000 A 
ATOM      5  C   UNL     1       1.077   8.513  21.343  0.00  0.00    +0.000 A 
ATOM      6  C   UNL     1       0.500   9.760  21.127  0.00  0.00    +0.000 A 
ATOM      7  F   UNL     1      -0.244  10.280  22.115  0.00  0.00    +0.000 F 
ENDROOT
BRANCH   1  22
ATOM      8  O   UNL     1      -1.188  18.169  18.960  0.00  0.00    +0.000 OA
ATOM      9  C   UNL     1      -0.773  17.021  19.079  0.00  0.00    +0.000 C 
ATOM     10  N   UNL     1      -1.521  16.019  19.645  0.00  0.00    +0.000 N 
ATOM     11  C   UNL     1      -1.157  14.602  19.562  0.00  0.00    +0.000 C 
ATOM     12  C   UNL     1       0.350  14.393  19.838  0.00  0.00    +0.000 C 
ATOM     13  C   UNL     1       1.125  15.349  18.918  0.00  0.00    +0.000 A 
ATOM     14  C   UNL     1       2.400  15.023  18.422  0.00  0.00    +0.000 A 
ATOM     15  C   UNL     1       3.086  15.917  17.591  0.00  0.00    +0.000 A 
ATOM     16  C   UNL     1       2.550  17.171  17.295  0.00  0.00    +0.000 A 
ATOM     17  C   UNL     1       1.299  17.513  17.795  0.00  0.00    +0.000 A 
ATOM     18  C   UNL     1       0.583  16.605  18.599  0.00  0.00    +0.000 A 
ATOM     19  C   UNL     1       3.007  13.677  18.711  0.00  0.00    +0.000 C 
ATOM     20  C   UNL     1       2.388  13.016  19.934  0.00  0.00    +0.000 C 
ATOM     21  N   UNL     1       0.921  12.999  19.827  0.00  0.00    +0.000 N 
ATOM     22  C   UNL     1       0.137  11.830  19.725  0.00  0.00    +0.000 C 
ATOM     23  O   UNL     1      -1.064  11.880  19.446  0.00  0.00    +0.000 OA
ATOM     24  H   UNL     1      -2.487  16.276  19.839  0.00  0.00    +0.000 HD
ENDBRANCH   1  22
BRANCH   3  25
ATOM     25  C   UNL     1       2.476   7.557  17.857  0.00  0.00    +0.000 C 
BRANCH  25  26
ATOM     26  C   UNL     1       3.097   6.174  18.268  0.00  0.00    +0.000 A 
ATOM     27  N   UNL     1       4.403   6.157  18.376  0.00  0.00    +0.000 NA
ATOM     28  N   UNL     1       5.043   4.955  18.112  0.00  0.00    +0.000 N 
ATOM     29  C   UNL     1       4.406   4.184  17.149  0.00  0.00    +0.000 A 
ATOM     30  O   UNL     1       4.806   3.882  16.043  0.00  0.00    +0.000 OA
ATOM     31  C   UNL     1       3.091   3.787  17.637  0.00  0.00    +0.000 A 
ATOM     32  C   UNL     1       2.834   2.415  17.760  0.00  0.00    +0.000 A 
ATOM     33  C   UNL     1       1.842   2.013  18.636  0.00  0.00    +0.000 A 
ATOM     34  C   UNL     1       1.091   2.991  19.304  0.00  0.00    +0.000 A 
ATOM     35  C   UNL     1       1.333   4.388  19.121  0.00  0.00    +0.000 A 
ATOM     36  C   UNL     1       2.364   4.812  18.272  0.00  0.00    +0.000 A 
ATOM     37  H   UNL     1       5.099   4.456  19.001  0.00  0.00    +0.000 HD
ENDBRANCH  25  26
ENDBRANCH   3  25
TORSDOF 3
ENDMDL
MODEL 2
REMARK VINA RESULT:      -9.7      3.996      6.221
REMARK  Name = 
REMARK  3 active torsions:
REMARK  status: ('A' for Active; 'I' for Inactive)
REMARK    1  A    between atoms: C_15  and  C_17
REMARK    2  A    between atoms: C_19  and  C_20
REMARK    3  A    between atoms: C_20  and  C_21
REMARK                            x       y       z     vdW  Elec       q    Type
REMARK                         _______ _______ _______ _____ _____    ______ ____
ROOT
ATOM      1  C   UNL     1       2.526   5.490  18.855  0.00  0.00    +0.000 A 
ATOM      2  C   UNL     1       3.654   5.850  18.038  0.00  0.00    +0.000 A 
ATOM      3  C   UNL     1       4.217   4.954  17.083  0.00  0.00    +0.000 A 
ATOM      4  C   UNL     1       3.675   3.652  17.059  0.00  0.00    +0.000 A 
ATOM      5  C   UNL     1       2.535   3.314  17.796  0.00  0.00    +0.000 A 
ATOM      6  C   UNL     1       1.935   4.250  18.632  0.00  0.00    +0.000 A 
ATOM      7  F   UNL     1       0.777   3.910  19.216  0.00  0.00    +0.000 F 
ENDROOT
BRANCH   1  22
ATOM      8  O   UNL     1      -0.573  11.504  23.149  0.00  0.00    +0.000 OA
ATOM      9  C   UNL     1      -0.124  10.658  22.383  0.00  0.00    +0.000 C 
ATOM     10  N   UNL     1       0.599   9.576  22.819  0.00  0.00    +0.000 N 
ATOM     11  C   UNL     1       0.918   8.429  21.964  0.00  0.00    +0.000 C 
ATOM     12  C   UNL     1       1.393   8.886  20.565  0.00  0.00    +0.000 C 
ATOM     13  C   UNL     1       0.345   9.869  20.020  0.00  0.00    +0.000 A 
ATOM     14  C   UNL     1       0.083   9.979  18.643  0.00  0.00    +0.000 A 
ATOM     15  C   UNL     1      -0.873  10.888  18.175  0.00  0.00    +0.000 A 
ATOM     16  C   UNL     1      -1.532  11.747  19.054  0.00  0.00    +0.000 A 
ATOM     17  C   UNL     1      -1.269  11.662  20.417  0.00  0.00    +0.000 A 
ATOM     18  C   UNL     1      -0.338  10.723  20.902  0.00  0.00    +0.000 A 
ATOM     19  C   UNL     1       0.767   9.064  17.664  0.00  0.00    +0.000 C 
ATOM     20  C   UNL     1       2.047   8.467  18.230  0.00  0.00    +0.000 C 
ATOM     21  N   UNL     1       1.797   7.856  19.543  0.00  0.00    +0.000 N 
ATOM     22  C   UNL     1       1.916   6.477  19.824  0.00  0.00    +0.000 C 
ATOM     23  O   UNL     1       1.511   5.997  20.885  0.00  0.00    +0.000 OA
ATOM     24  H   UNL     1       0.619   9.466  23.830  0.00  0.00    +0.000 HD
ENDBRANCH   1  22
BRANCH   3  25
ATOM     25  C   UNL     1       5.403   5.312  16.122  0.00  0.00    +0.000 C 
BRANCH  25  26
ATOM     26  C   UNL     1       6.789   5.608  16.801  0.00  0.00    +0.000 A 
ATOM     27  N   UNL     1       7.528   4.554  17.045  0.00  0.00    +0.000 NA
ATOM     28  N   UNL     1       8.390   4.625  18.129  0.00  0.00    +0.000 N 
ATOM     29  C   UNL     1       7.911   5.405  19.173  0.00  0.00    +0.000 A 
ATOM     30  O   UNL     1       7.591   5.053  20.290  0.00  0.00    +0.000 OA
ATOM     31  C   UNL     1       7.786   6.788  18.726  0.00  0.00    +0.000 A 
ATOM     32  C   UNL     1       8.538   7.757  19.404  0.00  0.00    +0.000 A 
ATOM     33  C   UNL     1       8.824   8.938  18.746  0.00  0.00    +0.000 A 
ATOM     34  C   UNL     1       8.293   9.146  17.465  0.00  0.00    +0.000 A 
ATOM     35  C   UNL     1       7.481   8.167  16.814  0.00  0.00    +0.000 A 
ATOM     36  C   UNL     1       7.218   6.945  17.448  0.00  0.00    +0.000 A 
ATOM     37  H   UNL     1       9.273   4.994  17.773  0.00  0.00    +0.000 HD
ENDBRANCH  25  26
ENDBRANCH   3  25
TORSDOF 3
ENDMDL
MODEL 3
REMARK VINA RESULT:      -9.7      3.410      5.073
REMARK  Name = 
REMARK  3 active torsions:
REMARK  status: ('A' for Active; 'I' for Inactive)
REMARK    1  A    between atoms: C_15  and  C_17
REMARK    2  A    between atoms: C_19  and  C_20
REMARK    3  A    between atoms: C_20  and  C_21
REMARK                            x       y       z     vdW  Elec       q    Type
REMARK                         _______ _______ _______ _____ _____    ______ ____
ROOT
ATOM      1  C   UNL     1       0.371  10.351  19.406  0.00  0.00    +0.000 A 
ATOM      2  C   UNL     1       0.731   8.995  19.725  0.00  0.00    +0.000 A 
ATOM      3  C   UNL     1       1.851   8.346  19.130  0.00  0.00    +0.000 A 
ATOM      4  C   UNL     1       2.525   9.070  18.123  0.00  0.00    +0.000 A 
ATOM      5  C   UNL     1       2.228  10.411  17.855  0.00  0.00    +0.000 A 
ATOM      6  C   UNL     1       1.204  11.054  18.542  0.00  0.00    +0.000 A 
ATOM      7  F   UNL     1       1.048  12.370  18.333  0.00  0.00    +0.000 F 
ENDROOT
BRANCH   1  22
ATOM      8  O   UNL     1      -6.224  14.106  21.978  0.00  0.00    +0.000 OA
ATOM      9  C   UNL     1      -5.282  13.508  21.470  0.00  0.00    +0.000 C 
ATOM     10  N   UNL     1      -4.018  13.527  22.006  0.00  0.00    +0.000 N 
ATOM     11  C   UNL     1      -2.950  12.622  21.574  0.00  0.00    +0.000 C 
ATOM     12  C   UNL     1      -2.897  12.512  20.032  0.00  0.00    +0.000 C 
ATOM     13  C   UNL     1      -4.314  12.173  19.545  0.00  0.00    +0.000 A 
ATOM     14  C   UNL     1      -4.531  11.399  18.391  0.00  0.00    +0.000 A 
ATOM     15  C   UNL     1      -5.834  11.111  17.967  0.00  0.00    +0.000 A 
ATOM     16  C   UNL     1      -6.937  11.641  18.638  0.00  0.00    +0.000 A 
ATOM     17  C   UNL     1      -6.735  12.423  19.769  0.00  0.00    +0.000 A 
ATOM     18  C   UNL     1      -5.430  12.685  20.227  0.00  0.00    +0.000 A 
ATOM     19  C   UNL     1      -3.369  10.802  17.646  0.00  0.00    +0.000 C 
ATOM     20  C   UNL     1      -2.064  11.530  17.935  0.00  0.00    +0.000 C 
ATOM     21  N   UNL     1      -1.847  11.648  19.384  0.00  0.00    +0.000 N 
ATOM     22  C   UNL     1      -0.791  11.033  20.091  0.00  0.00    +0.000 C 
ATOM     23  O   UNL     1      -0.768  11.008  21.324  0.00  0.00    +0.000 OA
ATOM     24  H   UNL     1      -3.958  13.970  22.920  0.00  0.00    +0.000 HD
ENDBRANCH   1  22
BRANCH   3  25
ATOM     25  C   UNL     1       2.329   6.895  19.485  0.00  0.00    +0.000 C 
BRANCH  25  26
ATOM     26  C   UNL     1       2.553   5.917  18.277  0.00  0.00    +0.000 A 
ATOM     27  N   UNL     1       1.593   5.048  18.075  0.00  0.00    +0.000 NA
ATOM     28  N   UNL     1       1.951   3.832  17.511  0.00  0.00    +0.000 N 
ATOM     29  C   UNL     1       3.223   3.405  17.866  0.00  0.00    +0.000 A 
ATOM     30  O   UNL     1       3.533   2.438  18.532  0.00  0.00    +0.000 OA
ATOM     31  C   UNL     1       4.211   4.342  17.346  0.00  0.00    +0.000 A 
ATOM     32  C   UNL     1       5.163   3.845  16.445  0.00  0.00    +0.000 A 
ATOM     33  C   UNL     1       5.778   4.738  15.588  0.00  0.00    +0.000 A 
ATOM     34  C   UNL     1       5.481   6.104  15.704  0.00  0.00    +0.000 A 
ATOM     35  C   UNL     1       4.549   6.596  16.669  0.00  0.00    +0.000 A 
ATOM     36  C   UNL     1       3.882   5.701  17.516  0.00  0.00    +0.000 A 
ATOM     37  H   UNL     1       1.873   3.948  16.499  0.00  0.00    +0.000 HD
ENDBRANCH  25  26
ENDBRANCH   3  25
TORSDOF 3
ENDMDL
MODEL 4
REMARK VINA RESULT:      -9.6      3.412     10.340
REMARK  Name = 
REMARK  3 active torsions:
REMARK  status: ('A' for Active; 'I' for Inactive)
REMARK    1  A    between atoms: C_15  and  C_17
REMARK    2  A    between atoms: C_19  and  C_20
REMARK    3  A    between atoms: C_20  and  C_21
REMARK                            x       y       z     vdW  Elec       q    Type
REMARK                         _______ _______ _______ _____ _____    ______ ____
ROOT
ATOM      1  C   UNL     1       0.543  10.200  18.860  0.00  0.00    +0.000 A 
ATOM      2  C   UNL     1       0.816  11.060  19.981  0.00  0.00    +0.000 A 
ATOM      3  C   UNL     1      -0.102  12.061  20.412  0.00  0.00    +0.000 A 
ATOM      4  C   UNL     1      -1.248  12.238  19.609  0.00  0.00    +0.000 A 
ATOM      5  C   UNL     1      -1.558  11.364  18.562  0.00  0.00    +0.000 A 
ATOM      6  C   UNL     1      -0.697  10.320  18.241  0.00  0.00    +0.000 A 
ATOM      7  F   UNL     1      -1.105   9.442  17.313  0.00  0.00    +0.000 F 
ENDROOT
BRANCH   1  22
ATOM      8  O   UNL     1       5.564   4.045  17.801  0.00  0.00    +0.000 OA
ATOM      9  C   UNL     1       4.748   4.921  18.070  0.00  0.00    +0.000 C 
ATOM     10  N   UNL     1       4.776   6.162  17.485  0.00  0.00    +0.000 N 
ATOM     11  C   UNL     1       3.675   7.124  17.591  0.00  0.00    +0.000 C 
ATOM     12  C   UNL     1       3.138   7.205  19.039  0.00  0.00    +0.000 C 
ATOM     13  C   UNL     1       2.836   5.771  19.501  0.00  0.00    +0.000 A 
ATOM     14  C   UNL     1       1.803   5.493  20.413  0.00  0.00    +0.000 A 
ATOM     15  C   UNL     1       1.554   4.176  20.821  0.00  0.00    +0.000 A 
ATOM     16  C   UNL     1       2.366   3.129  20.386  0.00  0.00    +0.000 A 
ATOM     17  C   UNL     1       3.403   3.393  19.498  0.00  0.00    +0.000 A 
ATOM     18  C   UNL     1       3.636   4.708  19.051  0.00  0.00    +0.000 A 
ATOM     19  C   UNL     1       0.899   6.594  20.898  0.00  0.00    +0.000 C 
ATOM     20  C   UNL     1       1.531   7.969  20.738  0.00  0.00    +0.000 C 
ATOM     21  N   UNL     1       2.019   8.159  19.365  0.00  0.00    +0.000 N 
ATOM     22  C   UNL     1       1.511   9.112  18.456  0.00  0.00    +0.000 C 
ATOM     23  O   UNL     1       1.825   9.098  17.263  0.00  0.00    +0.000 OA
ATOM     24  H   UNL     1       5.444   6.251  16.723  0.00  0.00    +0.000 HD
ENDBRANCH   1  22
BRANCH   3  25
ATOM     25  C   UNL     1       0.112  12.983  21.662  0.00  0.00    +0.000 C 
BRANCH  25  26
ATOM     26  C   UNL     1      -0.983  12.903  22.786  0.00  0.00    +0.000 A 
ATOM     27  N   UNL     1      -1.438  11.701  23.039  0.00  0.00    +0.000 NA
ATOM     28  N   UNL     1      -2.745  11.605  23.496  0.00  0.00    +0.000 N 
ATOM     29  C   UNL     1      -3.587  12.585  22.989  0.00  0.00    +0.000 A 
ATOM     30  O   UNL     1      -4.535  12.448  22.243  0.00  0.00    +0.000 OA
ATOM     31  C   UNL     1      -3.143  13.894  23.454  0.00  0.00    +0.000 A 
ATOM     32  C   UNL     1      -4.042  14.645  24.223  0.00  0.00    +0.000 A 
ATOM     33  C   UNL     1      -3.528  15.620  25.059  0.00  0.00    +0.000 A 
ATOM     34  C   UNL     1      -2.147  15.863  25.047  0.00  0.00    +0.000 A 
ATOM     35  C   UNL     1      -1.255  15.121  24.213  0.00  0.00    +0.000 A 
ATOM     36  C   UNL     1      -1.752  14.100  23.393  0.00  0.00    +0.000 A 
ATOM     37  H   UNL     1      -2.699  11.654  24.515  0.00  0.00    +0.000 HD
ENDBRANCH  25  26
ENDBRANCH   3  25
TORSDOF 3
ENDMDL
MODEL 5
REMARK VINA RESULT:      -9.5      3.294      4.694
REMARK  Name = 
REMARK  3 active torsions:
REMARK  status: ('A' for Active; 'I' for Inactive)
REMARK    1  A    between atoms: C_15  and  C_17
REMARK    2  A    between atoms: C_19  and  C_20
REMARK    3  A    between atoms: C_20  and  C_21
REMARK                            x       y       z     vdW  Elec       q    Type
REMARK                         _______ _______ _______ _____ _____    ______ ____
ROOT
ATOM      1  C   UNL     1       0.864  10.283  19.911  0.00  0.00    +0.000 A 
ATOM      2  C   UNL     1       1.173   8.903  20.177  0.00  0.00    +0.000 A 
ATOM      3  C   UNL     1       1.931   8.105  19.272  0.00  0.00    +0.000 A 
ATOM      4  C   UNL     1       2.271   8.713  18.045  0.00  0.00    +0.000 A 
ATOM      5  C   UNL     1       2.038  10.071  17.805  0.00  0.00    +0.000 A 
ATOM      6  C   UNL     1       1.400  10.854  18.761  0.00  0.00    +0.000 A 
ATOM      7  F   UNL     1       1.316  12.173  18.529  0.00  0.00    +0.000 F 
ENDROOT
BRANCH   1  22
ATOM      8  O   UNL     1      -3.799  15.085  24.315  0.00  0.00    +0.000 OA
ATOM      9  C   UNL     1      -3.182  14.356  23.546  0.00  0.00    +0.000 C 
ATOM     10  N   UNL     1      -1.863  14.026  23.740  0.00  0.00    +0.000 N 
ATOM     11  C   UNL     1      -1.185  12.963  22.994  0.00  0.00    +0.000 C 
ATOM     12  C   UNL     1      -1.525  13.031  21.486  0.00  0.00    +0.000 C 
ATOM     13  C   UNL     1      -3.055  13.081  21.359  0.00  0.00    +0.000 A 
ATOM     14  C   UNL     1      -3.722  12.521  20.255  0.00  0.00    +0.000 A 
ATOM     15  C   UNL     1      -5.118  12.587  20.163  0.00  0.00    +0.000 A 
ATOM     16  C   UNL     1      -5.865  13.266  21.126  0.00  0.00    +0.000 A 
ATOM     17  C   UNL     1      -5.216  13.840  22.213  0.00  0.00    +0.000 A 
ATOM     18  C   UNL     1      -3.816  13.745  22.335  0.00  0.00    +0.000 A 
ATOM     19  C   UNL     1      -2.952  11.773  19.201  0.00  0.00    +0.000 C 
ATOM     20  C   UNL     1      -1.477  12.148  19.189  0.00  0.00    +0.000 C 
ATOM     21  N   UNL     1      -0.904  12.038  20.539  0.00  0.00    +0.000 N 
ATOM     22  C   UNL     1       0.102  11.120  20.912  0.00  0.00    +0.000 C 
ATOM     23  O   UNL     1       0.407  10.942  22.093  0.00  0.00    +0.000 OA
ATOM     24  H   UNL     1      -1.483  14.329  24.633  0.00  0.00    +0.000 HD
ENDBRANCH   1  22
BRANCH   3  25
ATOM     25  C   UNL     1       2.352   6.618  19.537  0.00  0.00    +0.000 C 
BRANCH  25  26
ATOM     26  C   UNL     1       2.591   5.722  18.270  0.00  0.00    +0.000 A 
ATOM     27  N   UNL     1       1.647   4.850  18.015  0.00  0.00    +0.000 NA
ATOM     28  N   UNL     1       2.026   3.678  17.375  0.00  0.00    +0.000 N 
ATOM     29  C   UNL     1       3.307   3.254  17.701  0.00  0.00    +0.000 A 
ATOM     30  O   UNL     1       3.637   2.253  18.304  0.00  0.00    +0.000 OA
ATOM     31  C   UNL     1       4.276   4.241  17.239  0.00  0.00    +0.000 A 
ATOM     32  C   UNL     1       5.234   3.819  16.307  0.00  0.00    +0.000 A 
ATOM     33  C   UNL     1       5.831   4.776  15.507  0.00  0.00    +0.000 A 
ATOM     34  C   UNL     1       5.509   6.126  15.710  0.00  0.00    +0.000 A 
ATOM     35  C   UNL     1       4.569   6.539  16.705  0.00  0.00    +0.000 A 
ATOM     36  C   UNL     1       3.922   5.579  17.494  0.00  0.00    +0.000 A 
ATOM     37  H   UNL     1       1.944   3.856  16.373  0.00  0.00    +0.000 HD
ENDBRANCH  25  26
ENDBRANCH   3  25
TORSDOF 3
ENDMDL
MODEL 6
REMARK VINA RESULT:      -9.3      3.636      5.006
REMARK  Name = 
REMARK  3 active torsions:
REMARK  status: ('A' for Active; 'I' for Inactive)
REMARK    1  A    between atoms: C_15  and  C_17
REMARK    2  A    between atoms: C_19  and  C_20
REMARK    3  A    between atoms: C_20  and  C_21
REMARK                            x       y       z     vdW  Elec       q    Type
REMARK                         _______ _______ _______ _____ _____    ______ ____
ROOT
ATOM      1  C   UNL     1       0.433   9.913  19.435  0.00  0.00    +0.000 A 
ATOM      2  C   UNL     1       0.719   8.746  20.226  0.00  0.00    +0.000 A 
ATOM      3  C   UNL     1       1.759   7.833  19.886  0.00  0.00    +0.000 A 
ATOM      4  C   UNL     1       2.423   8.076  18.665  0.00  0.00    +0.000 A 
ATOM      5  C   UNL     1       2.202   9.243  17.925  0.00  0.00    +0.000 A 
ATOM      6  C   UNL     1       1.263  10.176  18.349  0.00  0.00    +0.000 A 
ATOM      7  F   UNL     1       1.183  11.330  17.670  0.00  0.00    +0.000 F 
ENDROOT
BRANCH   1  22
ATOM      8  O   UNL     1      -5.758  14.863  20.609  0.00  0.00    +0.000 OA
ATOM      9  C   UNL     1      -4.886  14.044  20.336  0.00  0.00    +0.000 C 
ATOM     10  N   UNL     1      -3.591  14.172  20.771  0.00  0.00    +0.000 N 
ATOM     11  C   UNL     1      -2.605  13.091  20.682  0.00  0.00    +0.000 C 
ATOM     12  C   UNL     1      -2.662  12.392  19.303  0.00  0.00    +0.000 C 
ATOM     13  C   UNL     1      -4.124  12.002  19.042  0.00  0.00    +0.000 A 
ATOM     14  C   UNL     1      -4.460  10.863  18.289  0.00  0.00    +0.000 A 
ATOM     15  C   UNL     1      -5.802  10.535  18.062  0.00  0.00    +0.000 A 
ATOM     16  C   UNL     1      -6.827  11.365  18.519  0.00  0.00    +0.000 A 
ATOM     17  C   UNL     1      -6.508  12.504  19.248  0.00  0.00    +0.000 A 
ATOM     18  C   UNL     1      -5.162  12.821  19.516  0.00  0.00    +0.000 A 
ATOM     19  C   UNL     1      -3.385   9.938  17.788  0.00  0.00    +0.000 C 
ATOM     20  C   UNL     1      -2.025  10.619  17.720  0.00  0.00    +0.000 C 
ATOM     21  N   UNL     1      -1.706  11.268  19.000  0.00  0.00    +0.000 N 
ATOM     22  C   UNL     1      -0.641  10.893  19.847  0.00  0.00    +0.000 C 
ATOM     23  O   UNL     1      -0.537  11.342  20.991  0.00  0.00    +0.000 OA
ATOM     24  H   UNL     1      -3.446  14.925  21.439  0.00  0.00    +0.000 HD
ENDBRANCH   1  22
BRANCH   3  25
ATOM     25  C   UNL     1       2.157   6.582  20.743  0.00  0.00    +0.000 C 
BRANCH  25  26
ATOM     26  C   UNL     1       1.813   5.176  20.131  0.00  0.00    +0.000 A 
ATOM     27  N   UNL     1       0.683   4.651  20.538  0.00  0.00    +0.000 NA
ATOM     28  N   UNL     1       0.607   3.266  20.573  0.00  0.00    +0.000 N 
ATOM     29  C   UNL     1       1.816   2.648  20.864  0.00  0.00    +0.000 A 
ATOM     30  O   UNL     1       2.111   1.999  21.847  0.00  0.00    +0.000 OA
ATOM     31  C   UNL     1       2.771   2.925  19.798  0.00  0.00    +0.000 A 
ATOM     32  C   UNL     1       3.292   1.830  19.096  0.00  0.00    +0.000 A 
ATOM     33  C   UNL     1       3.790   2.047  17.824  0.00  0.00    +0.000 A 
ATOM     34  C   UNL     1       3.820   3.356  17.323  0.00  0.00    +0.000 A 
ATOM     35  C   UNL     1       3.334   4.468  18.079  0.00  0.00    +0.000 A 
ATOM     36  C   UNL     1       2.785   4.260  19.351  0.00  0.00    +0.000 A 
ATOM     37  H   UNL     1       0.257   2.973  19.660  0.00  0.00    +0.000 HD
ENDBRANCH  25  26
ENDBRANCH   3  25
TORSDOF 3
ENDMDL
MODEL 7
REMARK VINA RESULT:      -9.2      3.360     10.378
REMARK  Name = 
REMARK  3 active torsions:
REMARK  status: ('A' for Active; 'I' for Inactive)
REMARK    1  A    between atoms: C_15  and  C_17
REMARK    2  A    between atoms: C_19  and  C_20
REMARK    3  A    between atoms: C_20  and  C_21
REMARK                            x       y       z     vdW  Elec       q    Type
REMARK                         _______ _______ _______ _____ _____    ______ ____
ROOT
ATOM      1  C   UNL     1       0.997   9.157  20.097  0.00  0.00    +0.000 A 
ATOM      2  C   UNL     1       0.005  10.016  19.506  0.00  0.00    +0.000 A 
ATOM      3  C   UNL     1      -0.830  10.864  20.290  0.00  0.00    +0.000 A 
ATOM      4  C   UNL     1      -0.707  10.733  21.690  0.00  0.00    +0.000 A 
ATOM      5  C   UNL     1       0.300   9.956  22.273  0.00  0.00    +0.000 A 
ATOM      6  C   UNL     1       1.179   9.232  21.474  0.00  0.00    +0.000 A 
ATOM      7  F   UNL     1       2.198   8.607  22.081  0.00  0.00    +0.000 F 
ENDROOT
BRANCH   1  22
ATOM      8  O   UNL     1       5.604   3.806  16.309  0.00  0.00    +0.000 OA
ATOM      9  C   UNL     1       4.840   4.520  16.950  0.00  0.00    +0.000 C 
ATOM     10  N   UNL     1       4.997   5.882  17.034  0.00  0.00    +0.000 N 
ATOM     11  C   UNL     1       3.966   6.776  17.567  0.00  0.00    +0.000 C 
ATOM     12  C   UNL     1       3.346   6.207  18.865  0.00  0.00    +0.000 C 
ATOM     13  C   UNL     1       2.910   4.763  18.575  0.00  0.00    +0.000 A 
ATOM     14  C   UNL     1       1.804   4.184  19.220  0.00  0.00    +0.000 A 
ATOM     15  C   UNL     1       1.433   2.863  18.940  0.00  0.00    +0.000 A 
ATOM     16  C   UNL     1       2.190   2.078  18.071  0.00  0.00    +0.000 A 
ATOM     17  C   UNL     1       3.298   2.633  17.441  0.00  0.00    +0.000 A 
ATOM     18  C   UNL     1       3.656   3.973  17.685  0.00  0.00    +0.000 A 
ATOM     19  C   UNL     1       0.955   5.000  20.156  0.00  0.00    +0.000 C 
ATOM     20  C   UNL     1       1.696   6.218  20.691  0.00  0.00    +0.000 C 
ATOM     21  N   UNL     1       2.283   6.992  19.587  0.00  0.00    +0.000 N 
ATOM     22  C   UNL     1       1.905   8.307  19.238  0.00  0.00    +0.000 C 
ATOM     23  O   UNL     1       2.291   8.834  18.193  0.00  0.00    +0.000 OA
ATOM     24  H   UNL     1       5.716   6.259  16.421  0.00  0.00    +0.000 HD
ENDBRANCH   1  22
BRANCH   3  25
ATOM     25  C   UNL     1      -1.883  11.865  19.700  0.00  0.00    +0.000 C 
BRANCH  25  26
ATOM     26  C   UNL     1      -2.363  13.018  20.654  0.00  0.00    +0.000 A 
ATOM     27  N   UNL     1      -1.614  14.092  20.654  0.00  0.00    +0.000 NA
ATOM     28  N   UNL     1      -1.573  14.833  21.826  0.00  0.00    +0.000 N 
ATOM     29  C   UNL     1      -1.704  14.065  22.976  0.00  0.00    +0.000 A 
ATOM     30  O   UNL     1      -0.882  13.870  23.848  0.00  0.00    +0.000 OA
ATOM     31  C   UNL     1      -3.022  13.442  22.995  0.00  0.00    +0.000 A 
ATOM     32  C   UNL     1      -3.870  13.754  24.066  0.00  0.00    +0.000 A 
ATOM     33  C   UNL     1      -5.232  13.593  23.889  0.00  0.00    +0.000 A 
ATOM     34  C   UNL     1      -5.699  13.059  22.679  0.00  0.00    +0.000 A 
ATOM     35  C   UNL     1      -4.811  12.695  21.619  0.00  0.00    +0.000 A 
ATOM     36  C   UNL     1      -3.432  12.893  21.765  0.00  0.00    +0.000 A 
ATOM     37  H   UNL     1      -2.324  15.522  21.760  0.00  0.00    +0.000 HD
ENDBRANCH  25  26
ENDBRANCH   3  25
TORSDOF 3
ENDMDL
MODEL 8
REMARK VINA RESULT:      -9.2      3.762     10.296
REMARK  Name = 
REMARK  3 active torsions:
REMARK  status: ('A' for Active; 'I' for Inactive)
REMARK    1  A    between atoms: C_15  and  C_17
REMARK    2  A    between atoms: C_19  and  C_20
REMARK    3  A    between atoms: C_20  and  C_21
REMARK                            x       y       z     vdW  Elec       q    Type
REMARK                         _______ _______ _______ _____ _____    ______ ____
ROOT
ATOM      1  C   UNL     1       0.968   9.290  19.134  0.00  0.00    +0.000 A 
ATOM      2  C   UNL     1       0.005  10.047  18.379  0.00  0.00    +0.000 A 
ATOM      3  C   UNL     1      -0.946  10.906  19.004  0.00  0.00    +0.000 A 
ATOM      4  C   UNL     1      -0.965  10.887  20.415  0.00  0.00    +0.000 A 
ATOM      5  C   UNL     1       0.010  10.211  21.157  0.00  0.00    +0.000 A 
ATOM      6  C   UNL     1       1.000   9.477  20.512  0.00  0.00    +0.000 A 
ATOM      7  F   UNL     1       1.977   8.954  21.268  0.00  0.00    +0.000 F 
ENDROOT
BRANCH   1  22
ATOM      8  O   UNL     1       6.225   3.945  16.305  0.00  0.00    +0.000 OA
ATOM      9  C   UNL     1       5.364   4.661  16.806  0.00  0.00    +0.000 C 
ATOM     10  N   UNL     1       5.419   6.031  16.750  0.00  0.00    +0.000 N 
ATOM     11  C   UNL     1       4.288   6.894  17.105  0.00  0.00    +0.000 C 
ATOM     12  C   UNL     1       3.607   6.418  18.410  0.00  0.00    +0.000 C 
ATOM     13  C   UNL     1       3.297   4.922  18.250  0.00  0.00    +0.000 A 
ATOM     14  C   UNL     1       2.186   4.329  18.874  0.00  0.00    +0.000 A 
ATOM     15  C   UNL     1       1.931   2.961  18.716  0.00  0.00    +0.000 A 
ATOM     16  C   UNL     1       2.809   2.151  17.996  0.00  0.00    +0.000 A 
ATOM     17  C   UNL     1       3.923   2.721  17.390  0.00  0.00    +0.000 A 
ATOM     18  C   UNL     1       4.166   4.103  17.510  0.00  0.00    +0.000 A 
ATOM     19  C   UNL     1       1.210   5.171  19.650  0.00  0.00    +0.000 C 
ATOM     20  C   UNL     1       1.819   6.492  20.099  0.00  0.00    +0.000 C 
ATOM     21  N   UNL     1       2.438   7.190  18.962  0.00  0.00    +0.000 N 
ATOM     22  C   UNL     1       1.999   8.427  18.443  0.00  0.00    +0.000 C 
ATOM     23  O   UNL     1       2.430   8.870  17.376  0.00  0.00    +0.000 OA
ATOM     24  H   UNL     1       6.157   6.397  16.153  0.00  0.00    +0.000 HD
ENDBRANCH   1  22
BRANCH   3  25
ATOM     25  C   UNL     1      -1.974  11.802  18.232  0.00  0.00    +0.000 C 
BRANCH  25  26
ATOM     26  C   UNL     1      -3.492  11.573  18.566  0.00  0.00    +0.000 A 
ATOM     27  N   UNL     1      -4.129  10.769  17.751  0.00  0.00    +0.000 NA
ATOM     28  N   UNL     1      -5.487  10.993  17.577  0.00  0.00    +0.000 N 
ATOM     29  C   UNL     1      -5.849  12.330  17.672  0.00  0.00    +0.000 A 
ATOM     30  O   UNL     1      -6.288  13.055  16.803  0.00  0.00    +0.000 OA
ATOM     31  C   UNL     1      -5.579  12.810  19.023  0.00  0.00    +0.000 A 
ATOM     32  C   UNL     1      -6.666  13.287  19.768  0.00  0.00    +0.000 A 
ATOM     33  C   UNL     1      -6.560  13.290  21.147  0.00  0.00    +0.000 A 
ATOM     34  C   UNL     1      -5.353  12.887  21.735  0.00  0.00    +0.000 A 
ATOM     35  C   UNL     1      -4.237  12.456  20.953  0.00  0.00    +0.000 A 
ATOM     36  C   UNL     1      -4.341  12.404  19.556  0.00  0.00    +0.000 A 
ATOM     37  H   UNL     1      -5.965  10.434  18.284  0.00  0.00    +0.000 HD
ENDBRANCH  25  26
ENDBRANCH   3  25
TORSDOF 3
ENDMDL
MODEL 9
REMARK VINA RESULT:      -9.2      4.073      5.943
REMARK  Name = 
REMARK  3 active torsions:
REMARK  status: ('A' for Active; 'I' for Inactive)
REMARK    1  A    between atoms: C_15  and  C_17
REMARK    2  A    between atoms: C_19  and  C_20
REMARK    3  A    between atoms: C_20  and  C_21
REMARK                            x       y       z     vdW  Elec       q    Type
REMARK                         _______ _______ _______ _____ _____    ______ ____
ROOT
ATOM      1  C   UNL     1       2.584   6.131  18.930  0.00  0.00    +0.000 A 
ATOM      2  C   UNL     1       3.504   6.677  17.967  0.00  0.00    +0.000 A 
ATOM      3  C   UNL     1       4.146   5.867  16.986  0.00  0.00    +0.000 A 
ATOM      4  C   UNL     1       3.916   4.478  17.081  0.00  0.00    +0.000 A 
ATOM      5  C   UNL     1       2.973   3.945  17.965  0.00  0.00    +0.000 A 
ATOM      6  C   UNL     1       2.272   4.779  18.830  0.00  0.00    +0.000 A 
ATOM      7  F   UNL     1       1.293   4.230  19.566  0.00  0.00    +0.000 F 
ENDROOT
BRANCH   1  22
ATOM      8  O   UNL     1      -1.115  11.662  23.395  0.00  0.00    +0.000 OA
ATOM      9  C   UNL     1      -0.581  10.891  22.604  0.00  0.00    +0.000 C 
ATOM     10  N   UNL     1       0.249   9.875  23.009  0.00  0.00    +0.000 N 
ATOM     11  C   UNL     1       0.684   8.793  22.122  0.00  0.00    +0.000 C 
ATOM     12  C   UNL     1       1.109   9.339  20.738  0.00  0.00    +0.000 C 
ATOM     13  C   UNL     1      -0.034  10.225  20.220  0.00  0.00    +0.000 A 
ATOM     14  C   UNL     1      -0.306  10.349  18.847  0.00  0.00    +0.000 A 
ATOM     15  C   UNL     1      -1.351  11.170  18.403  0.00  0.00    +0.000 A 
ATOM     16  C   UNL     1      -2.095  11.929  19.306  0.00  0.00    +0.000 A 
ATOM     17  C   UNL     1      -1.824  11.830  20.666  0.00  0.00    +0.000 A 
ATOM     18  C   UNL     1      -0.801  10.977  21.126  0.00  0.00    +0.000 A 
ATOM     19  C   UNL     1       0.468   9.540  17.842  0.00  0.00    +0.000 C 
ATOM     20  C   UNL     1       1.803   9.060  18.394  0.00  0.00    +0.000 C 
ATOM     21  N   UNL     1       1.617   8.387  19.687  0.00  0.00    +0.000 N 
ATOM     22  C   UNL     1       1.877   7.020  19.926  0.00  0.00    +0.000 C 
ATOM     23  O   UNL     1       1.524   6.469  20.971  0.00  0.00    +0.000 OA
ATOM     24  H   UNL     1       0.281   9.737  24.017  0.00  0.00    +0.000 HD
ENDBRANCH   1  22
BRANCH   3  25
ATOM     25  C   UNL     1       5.106   6.414  15.873  0.00  0.00    +0.000 C 
BRANCH  25  26
ATOM     26  C   UNL     1       6.074   5.370  15.209  0.00  0.00    +0.000 A 
ATOM     27  N   UNL     1       7.257   5.272  15.763  0.00  0.00    +0.000 NA
ATOM     28  N   UNL     1       8.311   4.904  14.940  0.00  0.00    +0.000 N 
ATOM     29  C   UNL     1       8.182   5.354  13.633  0.00  0.00    +0.000 A 
ATOM     30  O   UNL     1       8.869   6.165  13.045  0.00  0.00    +0.000 OA
ATOM     31  C   UNL     1       7.017   4.730  13.019  0.00  0.00    +0.000 A 
ATOM     32  C   UNL     1       7.231   3.939  11.881  0.00  0.00    +0.000 A 
ATOM     33  C   UNL     1       6.288   2.978  11.569  0.00  0.00    +0.000 A 
ATOM     34  C   UNL     1       5.130   2.883  12.354  0.00  0.00    +0.000 A 
ATOM     35  C   UNL     1       4.906   3.737  13.477  0.00  0.00    +0.000 A 
ATOM     36  C   UNL     1       5.871   4.688  13.836  0.00  0.00    +0.000 A 
ATOM     37  H   UNL     1       8.361   3.885  14.972  0.00  0.00    +0.000 HD
ENDBRANCH  25  26
ENDBRANCH   3  25
TORSDOF 3
ENDMDL
