MODEL 1
REMARK VINA RESULT:      -6.9      0.000      0.000
REMARK  Name = 
REMARK  4 active torsions:
REMARK  status: ('A' for Active; 'I' for Inactive)
REMARK    1  A    between atoms: C_2  and  C_3
REMARK    2  A    between atoms: C_3  and  C_4
REMARK    3  A    between atoms: C_4  and  S_5
REMARK    4  A    between atoms: S_5  and  C_8
REMARK                            x       y       z     vdW  Elec       q    Type
REMARK                         _______ _______ _______ _____ _____    ______ ____
ROOT
ATOM      1  C   UNL     1       4.379   4.001  16.940  0.00  0.00    +0.000 C 
ENDROOT
BRANCH   1   2
ATOM      2  S   UNL     1       5.655   4.579  15.844  0.00  0.00    +0.000 S 
ATOM      3  O   UNL     1       6.480   3.445  15.472  0.00  0.00    +0.000 OA
ATOM      4  O   UNL     1       5.042   5.415  14.831  0.00  0.00    +0.000 OA
BRANCH   2   5
ATOM      5  C   UNL     1       6.639   5.633  16.886  0.00  0.00    +0.000 A 
ATOM      6  C   UNL     1       6.715   7.003  16.605  0.00  0.00    +0.000 A 
ATOM      7  C   UNL     1       7.490   7.825  17.422  0.00  0.00    +0.000 A 
ATOM      8  C   UNL     1       8.165   7.277  18.508  0.00  0.00    +0.000 A 
ATOM      9  F   UNL     1       8.914   8.069  19.285  0.00  0.00    +0.000 F 
ATOM     10  C   UNL     1       8.075   5.919  18.802  0.00  0.00    +0.000 A 
ATOM     11  C   UNL     1       7.301   5.087  17.990  0.00  0.00    +0.000 A 
ENDBRANCH   2   5
ENDBRANCH   1   2
BRANCH   1  12
ATOM     12  C   UNL     1       3.565   5.172  17.471  0.00  0.00    +0.000 C 
BRANCH  12  14
ATOM     13  O   UNL     1       4.459   5.668  19.631  0.00  0.00    +0.000 OA
ATOM     14  C   UNL     1       3.535   5.173  18.984  0.00  0.00    +0.000 C 
ATOM     15  N   UNL     1       2.424   4.619  19.587  0.00  0.00    +0.000 N 
ATOM     16  C   UNL     1       2.249   4.718  21.039  0.00  0.00    +0.000 C 
ATOM     17  C   UNL     1       2.066   3.329  21.658  0.00  0.00    +0.000 C 
ATOM     18  O   UNL     1       0.991   2.617  21.020  0.00  0.00    +0.000 OA
ATOM     19  C   UNL     1       1.247   2.462  19.615  0.00  0.00    +0.000 C 
ATOM     20  C   UNL     1       1.379   3.826  18.926  0.00  0.00    +0.000 C 
ENDBRANCH  12  14
ENDBRANCH   1  12
TORSDOF 4
ENDMDL
MODEL 2
REMARK VINA RESULT:      -6.8      2.916      3.845
REMARK  Name = 
REMARK  4 active torsions:
REMARK  status: ('A' for Active; 'I' for Inactive)
REMARK    1  A    between atoms: C_2  and  C_3
REMARK    2  A    between atoms: C_3  and  C_4
REMARK    3  A    between atoms: C_4  and  S_5
REMARK    4  A    between atoms: S_5  and  C_8
REMARK                            x       y       z     vdW  Elec       q    Type
REMARK                         _______ _______ _______ _____ _____    ______ ____
ROOT
ATOM      1  C   UNL     1       4.820   3.933  16.623  0.00  0.00    +0.000 C 
ENDROOT
BRANCH   1   2
ATOM      2  S   UNL     1       5.541   4.976  17.870  0.00  0.00    +0.000 S 
ATOM      3  O   UNL     1       5.783   4.168  19.051  0.00  0.00    +0.000 OA
ATOM      4  O   UNL     1       6.612   5.740  17.262  0.00  0.00    +0.000 OA
BRANCH   2   5
ATOM      5  C   UNL     1       4.229   6.110  18.261  0.00  0.00    +0.000 A 
ATOM      6  C   UNL     1       3.461   5.904  19.415  0.00  0.00    +0.000 A 
ATOM      7  C   UNL     1       2.431   6.794  19.717  0.00  0.00    +0.000 A 
ATOM      8  C   UNL     1       2.187   7.876  18.877  0.00  0.00    +0.000 A 
ATOM      9  F   UNL     1       1.192   8.723  19.167  0.00  0.00    +0.000 F 
ATOM     10  C   UNL     1       2.962   8.095  17.742  0.00  0.00    +0.000 A 
ATOM     11  C   UNL     1       3.997   7.211  17.431  0.00  0.00    +0.000 A 
ENDBRANCH   2   5
ENDBRANCH   1   2
BRANCH   1  12
ATOM     12  C   UNL     1       4.195   2.700  17.259  0.00  0.00    +0.000 C 
BRANCH  12  14
ATOM     13  O   UNL     1       1.993   3.489  16.770  0.00  0.00    +0.000 OA
ATOM     14  C   UNL     1       2.735   2.933  17.581  0.00  0.00    +0.000 C 
ATOM     15  N   UNL     1       2.283   2.476  18.803  0.00  0.00    +0.000 N 
ATOM     16  C   UNL     1       0.854   2.526  19.124  0.00  0.00    +0.000 C 
ATOM     17  C   UNL     1       0.620   3.296  20.428  0.00  0.00    +0.000 C 
ATOM     18  O   UNL     1       1.408   2.749  21.499  0.00  0.00    +0.000 OA
ATOM     19  C   UNL     1       2.808   2.803  21.181  0.00  0.00    +0.000 C 
ATOM     20  C   UNL     1       3.116   1.996  19.913  0.00  0.00    +0.000 C 
ENDBRANCH  12  14
ENDBRANCH   1  12
TORSDOF 4
ENDMDL
MODEL 3
REMARK VINA RESULT:      -6.8      3.352      4.078
REMARK  Name = 
REMARK  4 active torsions:
REMARK  status: ('A' for Active; 'I' for Inactive)
REMARK    1  A    between atoms: C_2  and  C_3
REMARK    2  A    between atoms: C_3  and  C_4
REMARK    3  A    between atoms: C_4  and  S_5
REMARK    4  A    between atoms: S_5  and  C_8
REMARK                            x       y       z     vdW  Elec       q    Type
REMARK                         _______ _______ _______ _____ _____    ______ ____
ROOT
ATOM      1  C   UNL     1       5.286   5.234  17.097  0.00  0.00    +0.000 C 
ENDROOT
BRANCH   1   2
ATOM      2  S   UNL     1       6.977   5.452  16.593  0.00  0.00    +0.000 S 
ATOM      3  O   UNL     1       7.272   6.873  16.601  0.00  0.00    +0.000 OA
ATOM      4  O   UNL     1       7.799   4.520  17.339  0.00  0.00    +0.000 OA
BRANCH   2   5
ATOM      5  C   UNL     1       6.968   4.920  14.896  0.00  0.00    +0.000 A 
ATOM      6  C   UNL     1       6.066   3.929  14.489  0.00  0.00    +0.000 A 
ATOM      7  C   UNL     1       6.064   3.512  13.158  0.00  0.00    +0.000 A 
ATOM      8  C   UNL     1       6.948   4.093  12.254  0.00  0.00    +0.000 A 
ATOM      9  F   UNL     1       6.948   3.685  10.979  0.00  0.00    +0.000 F 
ATOM     10  C   UNL     1       7.831   5.093  12.651  0.00  0.00    +0.000 A 
ATOM     11  C   UNL     1       7.841   5.518  13.981  0.00  0.00    +0.000 A 
ENDBRANCH   2   5
ENDBRANCH   1   2
BRANCH   1  12
ATOM     12  C   UNL     1       5.164   5.349  18.609  0.00  0.00    +0.000 C 
BRANCH  12  14
ATOM     13  O   UNL     1       5.350   3.210  19.659  0.00  0.00    +0.000 OA
ATOM     14  C   UNL     1       4.602   4.078  19.209  0.00  0.00    +0.000 C 
ATOM     15  N   UNL     1       3.227   3.959  19.243  0.00  0.00    +0.000 N 
ATOM     16  C   UNL     1       2.604   2.832  19.944  0.00  0.00    +0.000 C 
ATOM     17  C   UNL     1       1.668   2.063  19.006  0.00  0.00    +0.000 C 
ATOM     18  O   UNL     1       0.701   2.943  18.407  0.00  0.00    +0.000 OA
ATOM     19  C   UNL     1       1.352   3.979  17.655  0.00  0.00    +0.000 C 
ATOM     20  C   UNL     1       2.261   4.826  18.556  0.00  0.00    +0.000 C 
ENDBRANCH  12  14
ENDBRANCH   1  12
TORSDOF 4
ENDMDL
MODEL 4
REMARK VINA RESULT:      -6.8      3.184      3.760
REMARK  Name = 
REMARK  4 active torsions:
REMARK  status: ('A' for Active; 'I' for Inactive)
REMARK    1  A    between atoms: C_2  and  C_3
REMARK    2  A    between atoms: C_3  and  C_4
REMARK    3  A    between atoms: C_4  and  S_5
REMARK    4  A    between atoms: S_5  and  C_8
REMARK                            x       y       z     vdW  Elec       q    Type
REMARK                         _______ _______ _______ _____ _____    ______ ____
ROOT
ATOM      1  C   UNL     1       5.038   5.821  16.727  0.00  0.00    +0.000 C 
ENDROOT
BRANCH   1   2
ATOM      2  S   UNL     1       6.768   5.470  16.509  0.00  0.00    +0.000 S 
ATOM      3  O   UNL     1       7.499   6.720  16.605  0.00  0.00    +0.000 OA
ATOM      4  O   UNL     1       7.114   4.342  17.351  0.00  0.00    +0.000 OA
BRANCH   2   5
ATOM      5  C   UNL     1       6.863   4.927  14.818  0.00  0.00    +0.000 A 
ATOM      6  C   UNL     1       7.796   5.517  13.957  0.00  0.00    +0.000 A 
ATOM      7  C   UNL     1       7.866   5.091  12.631  0.00  0.00    +0.000 A 
ATOM      8  C   UNL     1       7.018   4.081  12.187  0.00  0.00    +0.000 A 
ATOM      9  F   UNL     1       7.083   3.680  10.911  0.00  0.00    +0.000 F 
ATOM     10  C   UNL     1       6.104   3.478  13.047  0.00  0.00    +0.000 A 
ATOM     11  C   UNL     1       6.027   3.897  14.376  0.00  0.00    +0.000 A 
ENDBRANCH   2   5
ENDBRANCH   1   2
BRANCH   1  12
ATOM     12  C   UNL     1       4.334   4.637  17.374  0.00  0.00    +0.000 C 
BRANCH  12  14
ATOM     13  O   UNL     1       4.834   5.527  19.536  0.00  0.00    +0.000 OA
ATOM     14  C   UNL     1       4.032   4.912  18.831  0.00  0.00    +0.000 C 
ATOM     15  N   UNL     1       2.818   4.463  19.313  0.00  0.00    +0.000 N 
ATOM     16  C   UNL     1       2.387   4.822  20.667  0.00  0.00    +0.000 C 
ATOM     17  C   UNL     1       2.066   3.565  21.483  0.00  0.00    +0.000 C 
ATOM     18  O   UNL     1       1.109   2.737  20.800  0.00  0.00    +0.000 OA
ATOM     19  C   UNL     1       1.609   2.333  19.516  0.00  0.00    +0.000 C 
ATOM     20  C   UNL     1       1.893   3.552  18.627  0.00  0.00    +0.000 C 
ENDBRANCH  12  14
ENDBRANCH   1  12
TORSDOF 4
ENDMDL
MODEL 5
REMARK VINA RESULT:      -6.7      3.208      3.853
REMARK  Name = 
REMARK  4 active torsions:
REMARK  status: ('A' for Active; 'I' for Inactive)
REMARK    1  A    between atoms: C_2  and  C_3
REMARK    2  A    between atoms: C_3  and  C_4
REMARK    3  A    between atoms: C_4  and  S_5
REMARK    4  A    between atoms: S_5  and  C_8
REMARK                            x       y       z     vdW  Elec       q    Type
REMARK                         _______ _______ _______ _____ _____    ______ ____
ROOT
ATOM      1  C   UNL     1       5.103   6.108  16.691  0.00  0.00    +0.000 C 
ENDROOT
BRANCH   1   2
ATOM      2  S   UNL     1       6.789   5.567  16.525  0.00  0.00    +0.000 S 
ATOM      3  O   UNL     1       7.649   6.733  16.605  0.00  0.00    +0.000 OA
ATOM      4  O   UNL     1       6.992   4.433  17.404  0.00  0.00    +0.000 OA
BRANCH   2   5
ATOM      5  C   UNL     1       6.861   4.967  14.852  0.00  0.00    +0.000 A 
ATOM      6  C   UNL     1       6.003   3.935  14.452  0.00  0.00    +0.000 A 
ATOM      7  C   UNL     1       6.065   3.466  13.141  0.00  0.00    +0.000 A 
ATOM      8  C   UNL     1       6.967   4.035  12.247  0.00  0.00    +0.000 A 
ATOM      9  F   UNL     1       7.028   3.576  10.991  0.00  0.00    +0.000 F 
ATOM     10  C   UNL     1       7.806   5.076  12.636  0.00  0.00    +0.000 A 
ATOM     11  C   UNL     1       7.751   5.554  13.947  0.00  0.00    +0.000 A 
ENDBRANCH   2   5
ENDBRANCH   1   2
BRANCH   1  12
ATOM     12  C   UNL     1       4.215   4.952  17.125  0.00  0.00    +0.000 C 
BRANCH  12  14
ATOM     13  O   UNL     1       4.564   5.564  19.409  0.00  0.00    +0.000 OA
ATOM     14  C   UNL     1       3.789   5.103  18.569  0.00  0.00    +0.000 C 
ATOM     15  N   UNL     1       2.500   4.723  18.884  0.00  0.00    +0.000 N 
ATOM     16  C   UNL     1       1.964   4.980  20.223  0.00  0.00    +0.000 C 
ATOM     17  C   UNL     1       1.457   3.682  20.861  0.00  0.00    +0.000 C 
ATOM     18  O   UNL     1       0.509   3.022  20.004  0.00  0.00    +0.000 OA
ATOM     19  C   UNL     1       1.103   2.707  18.735  0.00  0.00    +0.000 C 
ATOM     20  C   UNL     1       1.577   3.977  18.018  0.00  0.00    +0.000 C 
ENDBRANCH  12  14
ENDBRANCH   1  12
TORSDOF 4
ENDMDL
MODEL 6
REMARK VINA RESULT:      -6.7      0.269      1.119
REMARK  Name = 
REMARK  4 active torsions:
REMARK  status: ('A' for Active; 'I' for Inactive)
REMARK    1  A    between atoms: C_2  and  C_3
REMARK    2  A    between atoms: C_3  and  C_4
REMARK    3  A    between atoms: C_4  and  S_5
REMARK    4  A    between atoms: S_5  and  C_8
REMARK                            x       y       z     vdW  Elec       q    Type
REMARK                         _______ _______ _______ _____ _____    ______ ____
ROOT
ATOM      1  C   UNL     1       4.759   4.000  17.058  0.00  0.00    +0.000 C 
ENDROOT
BRANCH   1   2
ATOM      2  S   UNL     1       5.882   4.776  15.919  0.00  0.00    +0.000 S 
ATOM      3  O   UNL     1       6.800   3.765  15.427  0.00  0.00    +0.000 OA
ATOM      4  O   UNL     1       5.111   5.588  14.998  0.00  0.00    +0.000 OA
BRANCH   2   5
ATOM      5  C   UNL     1       6.814   5.881  16.955  0.00  0.00    +0.000 A 
ATOM      6  C   UNL     1       7.458   5.379  18.094  0.00  0.00    +0.000 A 
ATOM      7  C   UNL     1       8.185   6.248  18.906  0.00  0.00    +0.000 A 
ATOM      8  C   UNL     1       8.271   7.596  18.569  0.00  0.00    +0.000 A 
ATOM      9  F   UNL     1       8.964   8.428  19.355  0.00  0.00    +0.000 F 
ATOM     10  C   UNL     1       7.650   8.093  17.426  0.00  0.00    +0.000 A 
ATOM     11  C   UNL     1       6.920   7.231  16.606  0.00  0.00    +0.000 A 
ENDBRANCH   2   5
ENDBRANCH   1   2
BRANCH   1  12
ATOM     12  C   UNL     1       3.661   4.971  17.465  0.00  0.00    +0.000 C 
BRANCH  12  14
ATOM     13  O   UNL     1       4.445   5.650  19.618  0.00  0.00    +0.000 OA
ATOM     14  C   UNL     1       3.563   5.084  18.971  0.00  0.00    +0.000 C 
ATOM     15  N   UNL     1       2.440   4.545  19.566  0.00  0.00    +0.000 N 
ATOM     16  C   UNL     1       2.198   4.747  20.998  0.00  0.00    +0.000 C 
ATOM     17  C   UNL     1       2.022   3.402  21.711  0.00  0.00    +0.000 C 
ATOM     18  O   UNL     1       0.994   2.616  21.083  0.00  0.00    +0.000 OA
ATOM     19  C   UNL     1       1.316   2.364  19.706  0.00  0.00    +0.000 C 
ATOM     20  C   UNL     1       1.446   3.677  18.922  0.00  0.00    +0.000 C 
ENDBRANCH  12  14
ENDBRANCH   1  12
TORSDOF 4
ENDMDL
MODEL 7
REMARK VINA RESULT:      -6.7      2.794      5.732
REMARK  Name = 
REMARK  4 active torsions:
REMARK  status: ('A' for Active; 'I' for Inactive)
REMARK    1  A    between atoms: C_2  and  C_3
REMARK    2  A    between atoms: C_3  and  C_4
REMARK    3  A    between atoms: C_4  and  S_5
REMARK    4  A    between atoms: S_5  and  C_8
REMARK                            x       y       z     vdW  Elec       q    Type
REMARK                         _______ _______ _______ _____ _____    ______ ____
ROOT
ATOM      1  C   UNL     1       3.587   2.634  19.653  0.00  0.00    +0.000 C 
ENDROOT
BRANCH   1   2
ATOM      2  S   UNL     1       1.898   3.113  19.373  0.00  0.00    +0.000 S 
ATOM      3  O   UNL     1       1.511   2.654  18.051  0.00  0.00    +0.000 OA
ATOM      4  O   UNL     1       1.120   2.750  20.541  0.00  0.00    +0.000 OA
BRANCH   2   5
ATOM      5  C   UNL     1       1.982   4.888  19.315  0.00  0.00    +0.000 A 
ATOM      6  C   UNL     1       2.194   5.528  18.087  0.00  0.00    +0.000 A 
ATOM      7  C   UNL     1       2.263   6.920  18.046  0.00  0.00    +0.000 A 
ATOM      8  C   UNL     1       2.110   7.652  19.220  0.00  0.00    +0.000 A 
ATOM      9  F   UNL     1       2.184   8.988  19.177  0.00  0.00    +0.000 F 
ATOM     10  C   UNL     1       1.878   7.019  20.438  0.00  0.00    +0.000 A 
ATOM     11  C   UNL     1       1.807   5.626  20.490  0.00  0.00    +0.000 A 
ENDBRANCH   2   5
ENDBRANCH   1   2
BRANCH   1  12
ATOM     12  C   UNL     1       4.453   3.020  18.463  0.00  0.00    +0.000 C 
BRANCH  12  14
ATOM     13  O   UNL     1       5.470   4.564  19.978  0.00  0.00    +0.000 OA
ATOM     14  C   UNL     1       5.456   4.088  18.841  0.00  0.00    +0.000 C 
ATOM     15  N   UNL     1       6.352   4.478  17.866  0.00  0.00    +0.000 N 
ATOM     16  C   UNL     1       7.447   5.394  18.197  0.00  0.00    +0.000 C 
ATOM     17  C   UNL     1       7.420   6.622  17.283  0.00  0.00    +0.000 C 
ATOM     18  O   UNL     1       7.425   6.235  15.898  0.00  0.00    +0.000 OA
ATOM     19  C   UNL     1       6.285   5.415  15.595  0.00  0.00    +0.000 C 
ATOM     20  C   UNL     1       6.289   4.134  16.439  0.00  0.00    +0.000 C 
ENDBRANCH  12  14
ENDBRANCH   1  12
TORSDOF 4
ENDMDL
MODEL 8
REMARK VINA RESULT:      -6.7      3.370      4.129
REMARK  Name = 
REMARK  4 active torsions:
REMARK  status: ('A' for Active; 'I' for Inactive)
REMARK    1  A    between atoms: C_2  and  C_3
REMARK    2  A    between atoms: C_3  and  C_4
REMARK    3  A    between atoms: C_4  and  S_5
REMARK    4  A    between atoms: S_5  and  C_8
REMARK                            x       y       z     vdW  Elec       q    Type
REMARK                         _______ _______ _______ _____ _____    ______ ____
ROOT
ATOM      1  C   UNL     1       5.099   6.164  16.649  0.00  0.00    +0.000 C 
ENDROOT
BRANCH   1   2
ATOM      2  S   UNL     1       6.779   5.601  16.489  0.00  0.00    +0.000 S 
ATOM      3  O   UNL     1       7.651   6.761  16.539  0.00  0.00    +0.000 OA
ATOM      4  O   UNL     1       6.975   4.486  17.394  0.00  0.00    +0.000 OA
BRANCH   2   5
ATOM      5  C   UNL     1       6.838   4.963  14.830  0.00  0.00    +0.000 A 
ATOM      6  C   UNL     1       5.956   3.942  14.453  0.00  0.00    +0.000 A 
ATOM      7  C   UNL     1       6.008   3.442  13.153  0.00  0.00    +0.000 A 
ATOM      8  C   UNL     1       6.923   3.970  12.247  0.00  0.00    +0.000 A 
ATOM      9  F   UNL     1       6.974   3.481  11.002  0.00  0.00    +0.000 F 
ATOM     10  C   UNL     1       7.786   4.999  12.614  0.00  0.00    +0.000 A 
ATOM     11  C   UNL     1       7.743   5.507  13.913  0.00  0.00    +0.000 A 
ENDBRANCH   2   5
ENDBRANCH   1   2
BRANCH   1  12
ATOM     12  C   UNL     1       4.612   5.978  18.079  0.00  0.00    +0.000 C 
BRANCH  12  14
ATOM     13  O   UNL     1       2.281   6.501  18.150  0.00  0.00    +0.000 OA
ATOM     14  C   UNL     1       3.142   5.621  18.112  0.00  0.00    +0.000 C 
ATOM     15  N   UNL     1       2.824   4.277  18.076  0.00  0.00    +0.000 N 
ATOM     16  C   UNL     1       1.426   3.856  17.952  0.00  0.00    +0.000 C 
ATOM     17  C   UNL     1       1.042   2.913  19.097  0.00  0.00    +0.000 C 
ATOM     18  O   UNL     1       1.948   1.800  19.176  0.00  0.00    +0.000 OA
ATOM     19  C   UNL     1       3.294   2.254  19.389  0.00  0.00    +0.000 C 
ATOM     20  C   UNL     1       3.760   3.157  18.240  0.00  0.00    +0.000 C 
ENDBRANCH  12  14
ENDBRANCH   1  12
TORSDOF 4
ENDMDL
MODEL 9
REMARK VINA RESULT:      -6.7      2.709      5.737
REMARK  Name = 
REMARK  4 active torsions:
REMARK  status: ('A' for Active; 'I' for Inactive)
REMARK    1  A    between atoms: C_2  and  C_3
REMARK    2  A    between atoms: C_3  and  C_4
REMARK    3  A    between atoms: C_4  and  S_5
REMARK    4  A    between atoms: S_5  and  C_8
REMARK                            x       y       z     vdW  Elec       q    Type
REMARK                         _______ _______ _______ _____ _____    ______ ____
ROOT
ATOM      1  C   UNL     1       3.290   2.405  19.533  0.00  0.00    +0.000 C 
ENDROOT
BRANCH   1   2
ATOM      2  S   UNL     1       1.633   3.051  19.536  0.00  0.00    +0.000 S 
ATOM      3  O   UNL     1       0.951   2.551  18.356  0.00  0.00    +0.000 OA
ATOM      4  O   UNL     1       1.069   2.855  20.857  0.00  0.00    +0.000 OA
BRANCH   2   5
ATOM      5  C   UNL     1       1.876   4.797  19.309  0.00  0.00    +0.000 A 
ATOM      6  C   UNL     1       1.892   5.642  20.426  0.00  0.00    +0.000 A 
ATOM      7  C   UNL     1       2.080   7.011  20.244  0.00  0.00    +0.000 A 
ATOM      8  C   UNL     1       2.261   7.517  18.961  0.00  0.00    +0.000 A 
ATOM      9  F   UNL     1       2.433   8.833  18.790  0.00  0.00    +0.000 F 
ATOM     10  C   UNL     1       2.266   6.677  17.850  0.00  0.00    +0.000 A 
ATOM     11  C   UNL     1       2.080   5.304  18.022  0.00  0.00    +0.000 A 
ENDBRANCH   2   5
ENDBRANCH   1   2
BRANCH   1  12
ATOM     12  C   UNL     1       4.008   2.793  18.249  0.00  0.00    +0.000 C 
BRANCH  12  14
ATOM     13  O   UNL     1       5.514   3.955  19.695  0.00  0.00    +0.000 OA
ATOM     14  C   UNL     1       5.200   3.679  18.537  0.00  0.00    +0.000 C 
ATOM     15  N   UNL     1       5.917   4.136  17.448  0.00  0.00    +0.000 N 
ATOM     16  C   UNL     1       7.169   4.871  17.649  0.00  0.00    +0.000 C 
ATOM     17  C   UNL     1       7.115   6.232  16.946  0.00  0.00    +0.000 C 
ATOM     18  O   UNL     1       6.779   6.082  15.556  0.00  0.00    +0.000 OA
ATOM     19  C   UNL     1       5.503   5.440  15.407  0.00  0.00    +0.000 C 
ATOM     20  C   UNL     1       5.513   4.042  16.039  0.00  0.00    +0.000 C 
ENDBRANCH  12  14
ENDBRANCH   1  12
TORSDOF 4
ENDMDL
