MODEL 1
REMARK VINA RESULT:      -6.9      0.000      0.000
REMARK  Name = 
REMARK  4 active torsions:
REMARK  status: ('A' for Active; 'I' for Inactive)
REMARK    1  A    between atoms: C_2  and  C_3
REMARK    2  A    between atoms: C_3  and  S_10
REMARK    3  A    between atoms: C_4  and  C_5
REMARK    4  A    between atoms: S_10  and  C_13
REMARK                            x       y       z     vdW  Elec       q    Type
REMARK                         _______ _______ _______ _____ _____    ______ ____
ROOT
ATOM      1  C   UNL     1       4.389   4.345  18.829  0.00  0.00    +0.000 C 
ATOM      2  C   UNL     1       3.115   4.725  18.601  0.00  0.00    +0.000 C 
ENDROOT
BRANCH   2   3
ATOM      3  C   UNL     1       1.966   3.973  18.973  0.00  0.00    +0.000 A 
ATOM      4  C   UNL     1       1.226   4.071  20.124  0.00  0.00    +0.000 A 
ATOM      5  N   UNL     1       0.271   3.090  20.010  0.00  0.00    +0.000 N 
ATOM      6  C   UNL     1       0.457   2.473  18.805  0.00  0.00    +0.000 A 
ATOM      7  N   UNL     1       1.459   3.009  18.147  0.00  0.00    +0.000 NA
ATOM      8  H   UNL     1      -0.435   2.848  20.693  0.00  0.00    +0.000 HD
ENDBRANCH   2   3
BRANCH   1   9
ATOM      9  S   UNL     1       5.703   5.320  18.301  0.00  0.00    +0.000 S 
ATOM     10  O   UNL     1       5.291   6.711  18.207  0.00  0.00    +0.000 OA
ATOM     11  O   UNL     1       6.896   4.981  19.054  0.00  0.00    +0.000 OA
BRANCH   9  12
ATOM     12  C   UNL     1       5.989   4.782  16.615  0.00  0.00    +0.000 A 
ATOM     13  C   UNL     1       5.023   4.006  15.962  0.00  0.00    +0.000 A 
ATOM     14  C   UNL     1       5.207   3.658  14.620  0.00  0.00    +0.000 A 
ATOM     15  C   UNL     1       6.344   4.094  13.938  0.00  0.00    +0.000 A 
ATOM     16 CL   UNL     1       6.562   3.671  12.284  0.00  0.00    +0.000 Cl
ATOM     17  C   UNL     1       7.297   4.881  14.583  0.00  0.00    +0.000 A 
ATOM     18  C   UNL     1       7.120   5.234  15.925  0.00  0.00    +0.000 A 
ENDBRANCH   9  12
ENDBRANCH   1   9
BRANCH   1  20
ATOM     19  N   UNL     1       4.959   2.006  20.220  0.00  0.00    +0.000 NA
ATOM     20  C   UNL     1       4.700   3.067  19.590  0.00  0.00    +0.000 C 
ENDBRANCH   1  20
TORSDOF 4
ENDMDL
MODEL 2
REMARK VINA RESULT:      -6.7      0.176      1.116
REMARK  Name = 
REMARK  4 active torsions:
REMARK  status: ('A' for Active; 'I' for Inactive)
REMARK    1  A    between atoms: C_2  and  C_3
REMARK    2  A    between atoms: C_3  and  S_10
REMARK    3  A    between atoms: C_4  and  C_5
REMARK    4  A    between atoms: S_10  and  C_13
REMARK                            x       y       z     vdW  Elec       q    Type
REMARK                         _______ _______ _______ _____ _____    ______ ____
ROOT
ATOM      1  C   UNL     1       4.474   4.258  18.841  0.00  0.00    +0.000 C 
ATOM      2  C   UNL     1       3.217   4.674  18.586  0.00  0.00    +0.000 C 
ENDROOT
BRANCH   2   3
ATOM      3  C   UNL     1       2.038   3.966  18.955  0.00  0.00    +0.000 A 
ATOM      4  C   UNL     1       1.291   4.105  20.097  0.00  0.00    +0.000 A 
ATOM      5  N   UNL     1       0.304   3.156  19.986  0.00  0.00    +0.000 N 
ATOM      6  C   UNL     1       0.481   2.517  18.791  0.00  0.00    +0.000 A 
ATOM      7  N   UNL     1       1.507   3.009  18.137  0.00  0.00    +0.000 NA
ATOM      8  H   UNL     1      -0.417   2.948  20.664  0.00  0.00    +0.000 HD
ENDBRANCH   2   3
BRANCH   1   9
ATOM      9  S   UNL     1       5.827   5.179  18.313  0.00  0.00    +0.000 S 
ATOM     10  O   UNL     1       5.520   6.599  18.369  0.00  0.00    +0.000 OA
ATOM     11  O   UNL     1       7.033   4.686  18.951  0.00  0.00    +0.000 OA
BRANCH   9  12
ATOM     12  C   UNL     1       5.968   4.779  16.571  0.00  0.00    +0.000 A 
ATOM     13  C   UNL     1       6.974   5.377  15.802  0.00  0.00    +0.000 A 
ATOM     14  C   UNL     1       7.139   5.002  14.465  0.00  0.00    +0.000 A 
ATOM     15  C   UNL     1       6.308   4.028  13.909  0.00  0.00    +0.000 A 
ATOM     16 CL   UNL     1       6.519   3.562  12.266  0.00  0.00    +0.000 Cl
ATOM     17  C   UNL     1       5.317   3.420  14.680  0.00  0.00    +0.000 A 
ATOM     18  C   UNL     1       5.147   3.789  16.018  0.00  0.00    +0.000 A 
ENDBRANCH   9  12
ENDBRANCH   1   9
BRANCH   1  20
ATOM     19  N   UNL     1       4.947   1.932  20.288  0.00  0.00    +0.000 NA
ATOM     20  C   UNL     1       4.733   2.986  19.632  0.00  0.00    +0.000 C 
ENDBRANCH   1  20
TORSDOF 4
ENDMDL
MODEL 3
REMARK VINA RESULT:      -6.6      4.397      6.343
REMARK  Name = 
REMARK  4 active torsions:
REMARK  status: ('A' for Active; 'I' for Inactive)
REMARK    1  A    between atoms: C_2  and  C_3
REMARK    2  A    between atoms: C_3  and  S_10
REMARK    3  A    between atoms: C_4  and  C_5
REMARK    4  A    between atoms: S_10  and  C_13
REMARK                            x       y       z     vdW  Elec       q    Type
REMARK                         _______ _______ _______ _____ _____    ______ ____
ROOT
ATOM      1  C   UNL     1       4.096   4.997  18.419  0.00  0.00    +0.000 C 
ATOM      2  C   UNL     1       4.017   4.820  17.084  0.00  0.00    +0.000 C 
ENDROOT
BRANCH   2   3
ATOM      3  C   UNL     1       5.127   4.853  16.194  0.00  0.00    +0.000 A 
ATOM      4  C   UNL     1       5.713   5.948  15.611  0.00  0.00    +0.000 A 
ATOM      5  N   UNL     1       6.697   5.430  14.805  0.00  0.00    +0.000 N 
ATOM      6  C   UNL     1       6.680   4.072  14.956  0.00  0.00    +0.000 A 
ATOM      7  N   UNL     1       5.757   3.701  15.813  0.00  0.00    +0.000 NA
ATOM      8  H   UNL     1       7.316   5.946  14.195  0.00  0.00    +0.000 HD
ENDBRANCH   2   3
BRANCH   1   9
ATOM      9  S   UNL     1       2.679   4.975  19.393  0.00  0.00    +0.000 S 
ATOM     10  O   UNL     1       1.597   4.308  18.689  0.00  0.00    +0.000 OA
ATOM     11  O   UNL     1       3.019   4.553  20.739  0.00  0.00    +0.000 OA
BRANCH   9  12
ATOM     12  C   UNL     1       2.203   6.700  19.500  0.00  0.00    +0.000 A 
ATOM     13  C   UNL     1       2.303   7.518  18.368  0.00  0.00    +0.000 A 
ATOM     14  C   UNL     1       1.852   8.840  18.428  0.00  0.00    +0.000 A 
ATOM     15  C   UNL     1       1.294   9.332  19.609  0.00  0.00    +0.000 A 
ATOM     16 CL   UNL     1       0.731  10.957  19.676  0.00  0.00    +0.000 Cl
ATOM     17  C   UNL     1       1.178   8.511  20.731  0.00  0.00    +0.000 A 
ATOM     18  C   UNL     1       1.626   7.188  20.679  0.00  0.00    +0.000 A 
ENDBRANCH   9  12
ENDBRANCH   1   9
BRANCH   1  20
ATOM     19  N   UNL     1       6.554   5.337  19.674  0.00  0.00    +0.000 NA
ATOM     20  C   UNL     1       5.440   5.183  19.105  0.00  0.00    +0.000 C 
ENDBRANCH   1  20
TORSDOF 4
ENDMDL
MODEL 4
REMARK VINA RESULT:      -6.5      1.196      2.066
REMARK  Name = 
REMARK  4 active torsions:
REMARK  status: ('A' for Active; 'I' for Inactive)
REMARK    1  A    between atoms: C_2  and  C_3
REMARK    2  A    between atoms: C_3  and  S_10
REMARK    3  A    between atoms: C_4  and  C_5
REMARK    4  A    between atoms: S_10  and  C_13
REMARK                            x       y       z     vdW  Elec       q    Type
REMARK                         _______ _______ _______ _____ _____    ______ ____
ROOT
ATOM      1  C   UNL     1       4.394   5.076  18.588  0.00  0.00    +0.000 C 
ATOM      2  C   UNL     1       4.011   3.904  19.134  0.00  0.00    +0.000 C 
ENDROOT
BRANCH   2   3
ATOM      3  C   UNL     1       2.685   3.601  19.555  0.00  0.00    +0.000 A 
ATOM      4  C   UNL     1       2.092   3.891  20.757  0.00  0.00    +0.000 A 
ATOM      5  N   UNL     1       0.839   3.335  20.672  0.00  0.00    +0.000 N 
ATOM      6  C   UNL     1       0.724   2.768  19.434  0.00  0.00    +0.000 A 
ATOM      7  N   UNL     1       1.818   2.941  18.730  0.00  0.00    +0.000 NA
ATOM      8  H   UNL     1       0.129   3.326  21.391  0.00  0.00    +0.000 HD
ENDBRANCH   2   3
BRANCH   1   9
ATOM      9  S   UNL     1       6.036   5.344  18.151  0.00  0.00    +0.000 S 
ATOM     10  O   UNL     1       6.345   6.763  18.210  0.00  0.00    +0.000 OA
ATOM     11  O   UNL     1       6.888   4.400  18.849  0.00  0.00    +0.000 OA
BRANCH   9  12
ATOM     12  C   UNL     1       6.097   4.904  16.414  0.00  0.00    +0.000 A 
ATOM     13  C   UNL     1       7.220   5.248  15.651  0.00  0.00    +0.000 A 
ATOM     14  C   UNL     1       7.306   4.831  14.320  0.00  0.00    +0.000 A 
ATOM     15  C   UNL     1       6.281   4.065  13.763  0.00  0.00    +0.000 A 
ATOM     16 CL   UNL     1       6.395   3.545  12.127  0.00  0.00    +0.000 Cl
ATOM     17  C   UNL     1       5.172   3.706  14.528  0.00  0.00    +0.000 A 
ATOM     18  C   UNL     1       5.078   4.119  15.861  0.00  0.00    +0.000 A 
ENDBRANCH   9  12
ENDBRANCH   1   9
BRANCH   1  20
ATOM     19  N   UNL     1       2.548   7.092  18.079  0.00  0.00    +0.000 NA
ATOM     20  C   UNL     1       3.385   6.178  18.310  0.00  0.00    +0.000 C 
ENDBRANCH   1  20
TORSDOF 4
ENDMDL
MODEL 5
REMARK VINA RESULT:      -6.5      1.218      1.751
REMARK  Name = 
REMARK  4 active torsions:
REMARK  status: ('A' for Active; 'I' for Inactive)
REMARK    1  A    between atoms: C_2  and  C_3
REMARK    2  A    between atoms: C_3  and  S_10
REMARK    3  A    between atoms: C_4  and  C_5
REMARK    4  A    between atoms: S_10  and  C_13
REMARK                            x       y       z     vdW  Elec       q    Type
REMARK                         _______ _______ _______ _____ _____    ______ ____
ROOT
ATOM      1  C   UNL     1       4.428   5.116  18.614  0.00  0.00    +0.000 C 
ATOM      2  C   UNL     1       4.046   3.937  19.145  0.00  0.00    +0.000 C 
ENDROOT
BRANCH   2   3
ATOM      3  C   UNL     1       2.723   3.632  19.574  0.00  0.00    +0.000 A 
ATOM      4  C   UNL     1       2.167   3.833  20.812  0.00  0.00    +0.000 A 
ATOM      5  N   UNL     1       0.899   3.317  20.713  0.00  0.00    +0.000 N 
ATOM      6  C   UNL     1       0.739   2.860  19.435  0.00  0.00    +0.000 A 
ATOM      7  N   UNL     1       1.819   3.066  18.719  0.00  0.00    +0.000 NA
ATOM      8  H   UNL     1       0.206   3.264  21.448  0.00  0.00    +0.000 HD
ENDBRANCH   2   3
BRANCH   1   9
ATOM      9  S   UNL     1       6.066   5.387  18.165  0.00  0.00    +0.000 S 
ATOM     10  O   UNL     1       6.337   6.812  18.089  0.00  0.00    +0.000 OA
ATOM     11  O   UNL     1       6.936   4.538  18.958  0.00  0.00    +0.000 OA
BRANCH   9  12
ATOM     12  C   UNL     1       6.156   4.783  16.479  0.00  0.00    +0.000 A 
ATOM     13  C   UNL     1       5.095   4.036  15.953  0.00  0.00    +0.000 A 
ATOM     14  C   UNL     1       5.127   3.638  14.613  0.00  0.00    +0.000 A 
ATOM     15  C   UNL     1       6.208   3.996  13.807  0.00  0.00    +0.000 A 
ATOM     16 CL   UNL     1       6.239   3.512  12.155  0.00  0.00    +0.000 Cl
ATOM     17  C   UNL     1       7.257   4.755  14.326  0.00  0.00    +0.000 A 
ATOM     18  C   UNL     1       7.232   5.158  15.665  0.00  0.00    +0.000 A 
ENDBRANCH   9  12
ENDBRANCH   1   9
BRANCH   1  20
ATOM     19  N   UNL     1       2.583   7.146  18.154  0.00  0.00    +0.000 NA
ATOM     20  C   UNL     1       3.419   6.226  18.362  0.00  0.00    +0.000 C 
ENDBRANCH   1  20
TORSDOF 4
ENDMDL
MODEL 6
REMARK VINA RESULT:      -6.5      2.677      3.361
REMARK  Name = 
REMARK  4 active torsions:
REMARK  status: ('A' for Active; 'I' for Inactive)
REMARK    1  A    between atoms: C_2  and  C_3
REMARK    2  A    between atoms: C_3  and  S_10
REMARK    3  A    between atoms: C_4  and  C_5
REMARK    4  A    between atoms: S_10  and  C_13
REMARK                            x       y       z     vdW  Elec       q    Type
REMARK                         _______ _______ _______ _____ _____    ______ ____
ROOT
ATOM      1  C   UNL     1       3.489   5.030  18.281  0.00  0.00    +0.000 C 
ATOM      2  C   UNL     1       3.756   6.271  18.735  0.00  0.00    +0.000 C 
ENDROOT
BRANCH   2   3
ATOM      3  C   UNL     1       2.821   7.343  18.761  0.00  0.00    +0.000 A 
ATOM      4  C   UNL     1       1.998   7.724  19.792  0.00  0.00    +0.000 A 
ATOM      5  N   UNL     1       1.262   8.766  19.284  0.00  0.00    +0.000 N 
ATOM      6  C   UNL     1       1.685   8.983  18.003  0.00  0.00    +0.000 A 
ATOM      7  N   UNL     1       2.647   8.153  17.674  0.00  0.00    +0.000 NA
ATOM      8  H   UNL     1       0.529   9.277  19.756  0.00  0.00    +0.000 HD
ENDBRANCH   2   3
BRANCH   1   9
ATOM      9  S   UNL     1       4.712   3.821  18.262  0.00  0.00    +0.000 S 
ATOM     10  O   UNL     1       5.660   4.048  19.340  0.00  0.00    +0.000 OA
ATOM     11  O   UNL     1       4.102   2.512  18.115  0.00  0.00    +0.000 OA
BRANCH   9  12
ATOM     12  C   UNL     1       5.612   4.141  16.745  0.00  0.00    +0.000 A 
ATOM     13  C   UNL     1       4.967   3.991  15.511  0.00  0.00    +0.000 A 
ATOM     14  C   UNL     1       5.641   4.323  14.332  0.00  0.00    +0.000 A 
ATOM     15  C   UNL     1       6.947   4.811  14.392  0.00  0.00    +0.000 A 
ATOM     16 CL   UNL     1       7.771   5.227  12.940  0.00  0.00    +0.000 Cl
ATOM     17  C   UNL     1       7.584   4.977  15.622  0.00  0.00    +0.000 A 
ATOM     18  C   UNL     1       6.915   4.649  16.806  0.00  0.00    +0.000 A 
ENDBRANCH   9  12
ENDBRANCH   1   9
BRANCH   1  20
ATOM     19  N   UNL     1       0.939   4.338  17.415  0.00  0.00    +0.000 NA
ATOM     20  C   UNL     1       2.095   4.652  17.808  0.00  0.00    +0.000 C 
ENDBRANCH   1  20
TORSDOF 4
ENDMDL
MODEL 7
REMARK VINA RESULT:      -6.4      4.100      6.263
REMARK  Name = 
REMARK  4 active torsions:
REMARK  status: ('A' for Active; 'I' for Inactive)
REMARK    1  A    between atoms: C_2  and  C_3
REMARK    2  A    between atoms: C_3  and  S_10
REMARK    3  A    between atoms: C_4  and  C_5
REMARK    4  A    between atoms: S_10  and  C_13
REMARK                            x       y       z     vdW  Elec       q    Type
REMARK                         _______ _______ _______ _____ _____    ______ ____
ROOT
ATOM      1  C   UNL     1       4.624   4.007  17.264  0.00  0.00    +0.000 C 
ATOM      2  C   UNL     1       4.711   4.084  15.920  0.00  0.00    +0.000 C 
ENDROOT
BRANCH   2   3
ATOM      3  C   UNL     1       5.869   4.503  15.206  0.00  0.00    +0.000 A 
ATOM      4  C   UNL     1       6.796   5.444  15.575  0.00  0.00    +0.000 A 
ATOM      5  N   UNL     1       7.669   5.507  14.516  0.00  0.00    +0.000 N 
ATOM      6  C   UNL     1       7.253   4.598  13.585  0.00  0.00    +0.000 A 
ATOM      7  N   UNL     1       6.182   3.958  13.992  0.00  0.00    +0.000 NA
ATOM      8  H   UNL     1       8.467   6.121  14.423  0.00  0.00    +0.000 HD
ENDBRANCH   2   3
BRANCH   1   9
ATOM      9  S   UNL     1       3.158   3.523  18.022  0.00  0.00    +0.000 S 
ATOM     10  O   UNL     1       2.160   3.192  17.019  0.00  0.00    +0.000 OA
ATOM     11  O   UNL     1       3.446   2.573  19.080  0.00  0.00    +0.000 OA
BRANCH   9  12
ATOM     12  C   UNL     1       2.571   5.017  18.820  0.00  0.00    +0.000 A 
ATOM     13  C   UNL     1       2.011   4.944  20.102  0.00  0.00    +0.000 A 
ATOM     14  C   UNL     1       1.632   6.118  20.759  0.00  0.00    +0.000 A 
ATOM     15  C   UNL     1       1.823   7.355  20.140  0.00  0.00    +0.000 A 
ATOM     16 CL   UNL     1       1.363   8.798  20.956  0.00  0.00    +0.000 Cl
ATOM     17  C   UNL     1       2.397   7.429  18.871  0.00  0.00    +0.000 A 
ATOM     18  C   UNL     1       2.780   6.259  18.208  0.00  0.00    +0.000 A 
ENDBRANCH   9  12
ENDBRANCH   1   9
BRANCH   1  20
ATOM     19  N   UNL     1       6.821   4.560  18.876  0.00  0.00    +0.000 NA
ATOM     20  C   UNL     1       5.825   4.310  18.145  0.00  0.00    +0.000 C 
ENDBRANCH   1  20
TORSDOF 4
ENDMDL
MODEL 8
REMARK VINA RESULT:      -6.4      4.116      6.327
REMARK  Name = 
REMARK  4 active torsions:
REMARK  status: ('A' for Active; 'I' for Inactive)
REMARK    1  A    between atoms: C_2  and  C_3
REMARK    2  A    between atoms: C_3  and  S_10
REMARK    3  A    between atoms: C_4  and  C_5
REMARK    4  A    between atoms: S_10  and  C_13
REMARK                            x       y       z     vdW  Elec       q    Type
REMARK                         _______ _______ _______ _____ _____    ______ ____
ROOT
ATOM      1  C   UNL     1       4.633   4.052  17.271  0.00  0.00    +0.000 C 
ATOM      2  C   UNL     1       4.669   4.109  15.924  0.00  0.00    +0.000 C 
ENDROOT
BRANCH   2   3
ATOM      3  C   UNL     1       5.809   4.482  15.159  0.00  0.00    +0.000 A 
ATOM      4  C   UNL     1       6.752   5.434  15.454  0.00  0.00    +0.000 A 
ATOM      5  N   UNL     1       7.596   5.437  14.371  0.00  0.00    +0.000 N 
ATOM      6  C   UNL     1       7.150   4.484  13.499  0.00  0.00    +0.000 A 
ATOM      7  N   UNL     1       6.086   3.874  13.967  0.00  0.00    +0.000 NA
ATOM      8  H   UNL     1       8.396   6.038  14.226  0.00  0.00    +0.000 HD
ENDBRANCH   2   3
BRANCH   1   9
ATOM      9  S   UNL     1       3.184   3.623  18.093  0.00  0.00    +0.000 S 
ATOM     10  O   UNL     1       2.127   3.344  17.135  0.00  0.00    +0.000 OA
ATOM     11  O   UNL     1       3.479   2.652  19.130  0.00  0.00    +0.000 OA
BRANCH   9  12
ATOM     12  C   UNL     1       2.698   5.134  18.927  0.00  0.00    +0.000 A 
ATOM     13  C   UNL     1       2.819   6.362  18.264  0.00  0.00    +0.000 A 
ATOM     14  C   UNL     1       2.362   7.530  18.881  0.00  0.00    +0.000 A 
ATOM     15  C   UNL     1       1.778   7.464  20.147  0.00  0.00    +0.000 A 
ATOM     16 CL   UNL     1       1.207   8.903  20.899  0.00  0.00    +0.000 Cl
ATOM     17  C   UNL     1       1.641   6.240  20.799  0.00  0.00    +0.000 A 
ATOM     18  C   UNL     1       2.095   5.067  20.188  0.00  0.00    +0.000 A 
ENDBRANCH   9  12
ENDBRANCH   1   9
BRANCH   1  20
ATOM     19  N   UNL     1       6.908   4.555  18.788  0.00  0.00    +0.000 NA
ATOM     20  C   UNL     1       5.877   4.327  18.100  0.00  0.00    +0.000 C 
ENDBRANCH   1  20
TORSDOF 4
ENDMDL
MODEL 9
REMARK VINA RESULT:      -6.4      4.295      6.262
REMARK  Name = 
REMARK  4 active torsions:
REMARK  status: ('A' for Active; 'I' for Inactive)
REMARK    1  A    between atoms: C_2  and  C_3
REMARK    2  A    between atoms: C_3  and  S_10
REMARK    3  A    between atoms: C_4  and  C_5
REMARK    4  A    between atoms: S_10  and  C_13
REMARK                            x       y       z     vdW  Elec       q    Type
REMARK                         _______ _______ _______ _____ _____    ______ ____
ROOT
ATOM      1  C   UNL     1       4.311   4.908  18.326  0.00  0.00    +0.000 C 
ATOM      2  C   UNL     1       4.330   4.791  16.983  0.00  0.00    +0.000 C 
ENDROOT
BRANCH   2   3
ATOM      3  C   UNL     1       5.495   4.911  16.175  0.00  0.00    +0.000 A 
ATOM      4  C   UNL     1       6.393   5.948  16.134  0.00  0.00    +0.000 A 
ATOM      5  N   UNL     1       7.289   5.595  15.155  0.00  0.00    +0.000 N 
ATOM      6  C   UNL     1       6.916   4.370  14.677  0.00  0.00    +0.000 A 
ATOM      7  N   UNL     1       5.849   3.924  15.299  0.00  0.00    +0.000 NA
ATOM      8  H   UNL     1       8.076   6.139  14.828  0.00  0.00    +0.000 HD
ENDBRANCH   2   3
BRANCH   1   9
ATOM      9  S   UNL     1       2.834   4.781  19.198  0.00  0.00    +0.000 S 
ATOM     10  O   UNL     1       1.850   4.053  18.414  0.00  0.00    +0.000 OA
ATOM     11  O   UNL     1       3.106   4.365  20.561  0.00  0.00    +0.000 OA
BRANCH   9  12
ATOM     12  C   UNL     1       2.238   6.469  19.286  0.00  0.00    +0.000 A 
ATOM     13  C   UNL     1       1.778   6.979  20.507  0.00  0.00    +0.000 A 
ATOM     14  C   UNL     1       1.393   8.320  20.595  0.00  0.00    +0.000 A 
ATOM     15  C   UNL     1       1.480   9.144  19.472  0.00  0.00    +0.000 A 
ATOM     16 CL   UNL     1       1.014  10.797  19.587  0.00  0.00    +0.000 Cl
ATOM     17  C   UNL     1       1.955   8.641  18.261  0.00  0.00    +0.000 A 
ATOM     18  C   UNL     1       2.343   7.301  18.165  0.00  0.00    +0.000 A 
ENDBRANCH   9  12
ENDBRANCH   1   9
BRANCH   1  20
ATOM     19  N   UNL     1       6.660   5.295  19.763  0.00  0.00    +0.000 NA
ATOM     20  C   UNL     1       5.596   5.119  19.112  0.00  0.00    +0.000 C 
ENDBRANCH   1  20
TORSDOF 4
ENDMDL
