MODEL 1
REMARK VINA RESULT:      -6.4      0.000      0.000
REMARK  Name = 
REMARK  4 active torsions:
REMARK  status: ('A' for Active; 'I' for Inactive)
REMARK    1  A    between atoms: C_2  and  C_3
REMARK    2  A    between atoms: C_2  and  C_5
REMARK    3  A    between atoms: C_3  and  O_4
REMARK    4  A    between atoms: C_5  and  C_6
REMARK                            x       y       z     vdW  Elec       q    Type
REMARK                         _______ _______ _______ _____ _____    ______ ____
ROOT
ATOM      1  C   UNL     1       4.546   5.136  17.138  0.00  0.00    +0.000 A 
ATOM      2  C   UNL     1       4.627   6.466  16.767  0.00  0.00    +0.000 A 
ATOM      3  N   UNL     1       3.867   7.205  17.633  0.00  0.00    +0.000 N 
ATOM      4  C   UNL     1       3.264   6.382  18.555  0.00  0.00    +0.000 A 
ATOM      5  C   UNL     1       2.408   6.702  19.615  0.00  0.00    +0.000 A 
ATOM      6  C   UNL     1       1.925   5.649  20.397  0.00  0.00    +0.000 A 
ATOM      7  C   UNL     1       2.294   4.335  20.122  0.00  0.00    +0.000 A 
ATOM      8 BR   UNL     1       1.602   2.934  21.191  0.00  0.00    +0.000 Br
ATOM      9  C   UNL     1       3.163   4.029  19.069  0.00  0.00    +0.000 A 
ATOM     10  C   UNL     1       3.661   5.076  18.265  0.00  0.00    +0.000 A 
ATOM     11  H   UNL     1       3.761   8.210  17.607  0.00  0.00    +0.000 HD
ENDROOT
BRANCH   1  12
ATOM     12  C   UNL     1       5.271   3.995  16.497  0.00  0.00    +0.000 C 
BRANCH  12  14
ATOM     13  O   UNL     1       7.590   4.547  16.733  0.00  0.00    +0.000 OA
ATOM     14  C   UNL     1       6.643   4.344  15.960  0.00  0.00    +0.000 C 
BRANCH  14  15
ATOM     15  C   UNL     1       6.803   4.611  14.467  0.00  0.00    +0.000 C 
BRANCH  15  16
ATOM     16  O   UNL     1       7.836   5.548  14.189  0.00  0.00    +0.000 OA
ATOM     17  H   UNL     1       7.552   6.044  13.396  0.00  0.00    +0.000 HD
ENDBRANCH  15  16
ENDBRANCH  14  15
ENDBRANCH  12  14
ENDBRANCH   1  12
TORSDOF 4
ENDMDL
MODEL 2
REMARK VINA RESULT:      -6.4      3.753      5.646
REMARK  Name = 
REMARK  4 active torsions:
REMARK  status: ('A' for Active; 'I' for Inactive)
REMARK    1  A    between atoms: C_2  and  C_3
REMARK    2  A    between atoms: C_2  and  C_5
REMARK    3  A    between atoms: C_3  and  O_4
REMARK    4  A    between atoms: C_5  and  C_6
REMARK                            x       y       z     vdW  Elec       q    Type
REMARK                         _______ _______ _______ _____ _____    ______ ____
ROOT
ATOM      1  C   UNL     1       3.691   4.641  18.239  0.00  0.00    +0.000 A 
ATOM      2  C   UNL     1       4.250   5.036  19.441  0.00  0.00    +0.000 A 
ATOM      3  N   UNL     1       5.587   5.256  19.246  0.00  0.00    +0.000 N 
ATOM      4  C   UNL     1       5.925   4.989  17.941  0.00  0.00    +0.000 A 
ATOM      5  C   UNL     1       7.168   5.076  17.302  0.00  0.00    +0.000 A 
ATOM      6  C   UNL     1       7.228   4.726  15.951  0.00  0.00    +0.000 A 
ATOM      7  C   UNL     1       6.084   4.312  15.276  0.00  0.00    +0.000 A 
ATOM      8 BR   UNL     1       6.209   3.826  13.450  0.00  0.00    +0.000 Br
ATOM      9  C   UNL     1       4.843   4.243  15.920  0.00  0.00    +0.000 A 
ATOM     10  C   UNL     1       4.760   4.589  17.285  0.00  0.00    +0.000 A 
ATOM     11  H   UNL     1       6.237   5.571  19.953  0.00  0.00    +0.000 HD
ENDROOT
BRANCH   1  12
ATOM     12  C   UNL     1       2.244   4.355  17.990  0.00  0.00    +0.000 C 
BRANCH  12  14
ATOM     13  O   UNL     1       2.477   2.000  17.616  0.00  0.00    +0.000 OA
ATOM     14  C   UNL     1       1.848   2.906  18.182  0.00  0.00    +0.000 C 
BRANCH  14  15
ATOM     15  C   UNL     1       0.563   2.589  18.940  0.00  0.00    +0.000 C 
BRANCH  15  16
ATOM     16  O   UNL     1       0.536   3.176  20.235  0.00  0.00    +0.000 OA
ATOM     17  H   UNL     1      -0.383   3.094  20.555  0.00  0.00    +0.000 HD
ENDBRANCH  15  16
ENDBRANCH  14  15
ENDBRANCH  12  14
ENDBRANCH   1  12
TORSDOF 4
ENDMDL
MODEL 3
REMARK VINA RESULT:      -6.4      3.998      5.540
REMARK  Name = 
REMARK  4 active torsions:
REMARK  status: ('A' for Active; 'I' for Inactive)
REMARK    1  A    between atoms: C_2  and  C_3
REMARK    2  A    between atoms: C_2  and  C_5
REMARK    3  A    between atoms: C_3  and  O_4
REMARK    4  A    between atoms: C_5  and  C_6
REMARK                            x       y       z     vdW  Elec       q    Type
REMARK                         _______ _______ _______ _____ _____    ______ ____
ROOT
ATOM      1  C   UNL     1       2.527   3.255  18.358  0.00  0.00    +0.000 A 
ATOM      2  C   UNL     1       3.536   2.398  17.960  0.00  0.00    +0.000 A 
ATOM      3  N   UNL     1       4.563   3.145  17.448  0.00  0.00    +0.000 N 
ATOM      4  C   UNL     1       4.238   4.480  17.477  0.00  0.00    +0.000 A 
ATOM      5  C   UNL     1       4.979   5.591  17.058  0.00  0.00    +0.000 A 
ATOM      6  C   UNL     1       4.390   6.850  17.194  0.00  0.00    +0.000 A 
ATOM      7  C   UNL     1       3.113   6.981  17.731  0.00  0.00    +0.000 A 
ATOM      8 BR   UNL     1       2.340   8.704  17.879  0.00  0.00    +0.000 Br
ATOM      9  C   UNL     1       2.387   5.865  18.161  0.00  0.00    +0.000 A 
ATOM     10  C   UNL     1       2.961   4.583  18.032  0.00  0.00    +0.000 A 
ATOM     11  H   UNL     1       5.437   2.776  17.100  0.00  0.00    +0.000 HD
ENDROOT
BRANCH   1  12
ATOM     12  C   UNL     1       1.246   2.863  19.025  0.00  0.00    +0.000 C 
BRANCH  12  14
ATOM     13  O   UNL     1       0.761   4.567  20.638  0.00  0.00    +0.000 OA
ATOM     14  C   UNL     1       1.086   3.389  20.436  0.00  0.00    +0.000 C 
BRANCH  14  15
ATOM     15  C   UNL     1       1.497   2.497  21.603  0.00  0.00    +0.000 C 
BRANCH  15  16
ATOM     16  O   UNL     1       2.895   2.547  21.860  0.00  0.00    +0.000 OA
ATOM     17  H   UNL     1       3.292   1.803  21.368  0.00  0.00    +0.000 HD
ENDBRANCH  15  16
ENDBRANCH  14  15
ENDBRANCH  12  14
ENDBRANCH   1  12
TORSDOF 4
ENDMDL
MODEL 4
REMARK VINA RESULT:      -6.4      3.739      5.488
REMARK  Name = 
REMARK  4 active torsions:
REMARK  status: ('A' for Active; 'I' for Inactive)
REMARK    1  A    between atoms: C_2  and  C_3
REMARK    2  A    between atoms: C_2  and  C_5
REMARK    3  A    between atoms: C_3  and  O_4
REMARK    4  A    between atoms: C_5  and  C_6
REMARK                            x       y       z     vdW  Elec       q    Type
REMARK                         _______ _______ _______ _____ _____    ______ ____
ROOT
ATOM      1  C   UNL     1       3.701   4.832  18.331  0.00  0.00    +0.000 A 
ATOM      2  C   UNL     1       4.302   5.159  19.532  0.00  0.00    +0.000 A 
ATOM      3  N   UNL     1       5.653   5.249  19.330  0.00  0.00    +0.000 N 
ATOM      4  C   UNL     1       5.957   4.961  18.020  0.00  0.00    +0.000 A 
ATOM      5  C   UNL     1       7.199   4.931  17.375  0.00  0.00    +0.000 A 
ATOM      6  C   UNL     1       7.216   4.589  16.021  0.00  0.00    +0.000 A 
ATOM      7  C   UNL     1       6.033   4.294  15.349  0.00  0.00    +0.000 A 
ATOM      8 BR   UNL     1       6.100   3.814  13.519  0.00  0.00    +0.000 Br
ATOM      9  C   UNL     1       4.795   4.342  16.001  0.00  0.00    +0.000 A 
ATOM     10  C   UNL     1       4.754   4.683  17.369  0.00  0.00    +0.000 A 
ATOM     11  H   UNL     1       6.335   5.493  20.035  0.00  0.00    +0.000 HD
ENDROOT
BRANCH   1  12
ATOM     12  C   UNL     1       2.231   4.691  18.089  0.00  0.00    +0.000 C 
BRANCH  12  14
ATOM     13  O   UNL     1       0.818   4.055  19.916  0.00  0.00    +0.000 OA
ATOM     14  C   UNL     1       1.541   3.681  18.981  0.00  0.00    +0.000 C 
BRANCH  14  15
ATOM     15  C   UNL     1       1.883   2.203  18.821  0.00  0.00    +0.000 C 
BRANCH  15  16
ATOM     16  O   UNL     1       2.111   1.842  17.465  0.00  0.00    +0.000 OA
ATOM     17  H   UNL     1       1.520   1.085  17.279  0.00  0.00    +0.000 HD
ENDBRANCH  15  16
ENDBRANCH  14  15
ENDBRANCH  12  14
ENDBRANCH   1  12
TORSDOF 4
ENDMDL
MODEL 5
REMARK VINA RESULT:      -6.3      1.378      2.013
REMARK  Name = 
REMARK  4 active torsions:
REMARK  status: ('A' for Active; 'I' for Inactive)
REMARK    1  A    between atoms: C_2  and  C_3
REMARK    2  A    between atoms: C_2  and  C_5
REMARK    3  A    between atoms: C_3  and  O_4
REMARK    4  A    between atoms: C_5  and  C_6
REMARK                            x       y       z     vdW  Elec       q    Type
REMARK                         _______ _______ _______ _____ _____    ______ ____
ROOT
ATOM      1  C   UNL     1       4.789   5.521  17.550  0.00  0.00    +0.000 A 
ATOM      2  C   UNL     1       4.583   6.788  17.038  0.00  0.00    +0.000 A 
ATOM      3  N   UNL     1       3.588   7.391  17.760  0.00  0.00    +0.000 N 
ATOM      4  C   UNL     1       3.117   6.533  18.725  0.00  0.00    +0.000 A 
ATOM      5  C   UNL     1       2.112   6.725  19.681  0.00  0.00    +0.000 A 
ATOM      6  C   UNL     1       1.826   5.663  20.541  0.00  0.00    +0.000 A 
ATOM      7  C   UNL     1       2.524   4.463  20.443  0.00  0.00    +0.000 A 
ATOM      8 BR   UNL     1       2.092   3.039  21.613  0.00  0.00    +0.000 Br
ATOM      9  C   UNL     1       3.537   4.287  19.494  0.00  0.00    +0.000 A 
ATOM     10  C   UNL     1       3.842   5.346  18.613  0.00  0.00    +0.000 A 
ATOM     11  H   UNL     1       3.246   8.331  17.613  0.00  0.00    +0.000 HD
ENDROOT
BRANCH   1  12
ATOM     12  C   UNL     1       5.825   4.542  17.094  0.00  0.00    +0.000 C 
BRANCH  12  14
ATOM     13  O   UNL     1       8.195   4.194  17.146  0.00  0.00    +0.000 OA
ATOM     14  C   UNL     1       7.230   4.847  17.570  0.00  0.00    +0.000 C 
BRANCH  14  15
ATOM     15  C   UNL     1       7.422   5.849  18.702  0.00  0.00    +0.000 C 
BRANCH  15  16
ATOM     16  O   UNL     1       7.259   5.258  19.986  0.00  0.00    +0.000 OA
ATOM     17  H   UNL     1       6.384   5.546  20.312  0.00  0.00    +0.000 HD
ENDBRANCH  15  16
ENDBRANCH  14  15
ENDBRANCH  12  14
ENDBRANCH   1  12
TORSDOF 4
ENDMDL
MODEL 6
REMARK VINA RESULT:      -6.2      1.435      1.760
REMARK  Name = 
REMARK  4 active torsions:
REMARK  status: ('A' for Active; 'I' for Inactive)
REMARK    1  A    between atoms: C_2  and  C_3
REMARK    2  A    between atoms: C_2  and  C_5
REMARK    3  A    between atoms: C_3  and  O_4
REMARK    4  A    between atoms: C_5  and  C_6
REMARK                            x       y       z     vdW  Elec       q    Type
REMARK                         _______ _______ _______ _____ _____    ______ ____
ROOT
ATOM      1  C   UNL     1       5.425   5.194  16.552  0.00  0.00    +0.000 A 
ATOM      2  C   UNL     1       5.550   6.571  16.551  0.00  0.00    +0.000 A 
ATOM      3  N   UNL     1       4.508   7.100  17.263  0.00  0.00    +0.000 N 
ATOM      4  C   UNL     1       3.682   6.098  17.712  0.00  0.00    +0.000 A 
ATOM      5  C   UNL     1       2.508   6.177  18.471  0.00  0.00    +0.000 A 
ATOM      6  C   UNL     1       1.855   4.981  18.779  0.00  0.00    +0.000 A 
ATOM      7  C   UNL     1       2.366   3.762  18.343  0.00  0.00    +0.000 A 
ATOM      8 BR   UNL     1       1.440   2.164  18.763  0.00  0.00    +0.000 Br
ATOM      9  C   UNL     1       3.549   3.693  17.598  0.00  0.00    +0.000 A 
ATOM     10  C   UNL     1       4.224   4.888  17.273  0.00  0.00    +0.000 A 
ATOM     11  H   UNL     1       4.360   8.085  17.438  0.00  0.00    +0.000 HD
ENDROOT
BRANCH   1  12
ATOM     12  C   UNL     1       6.382   4.220  15.940  0.00  0.00    +0.000 C 
BRANCH  12  14
ATOM     13  O   UNL     1       7.656   5.293  14.218  0.00  0.00    +0.000 OA
ATOM     14  C   UNL     1       6.737   4.510  14.496  0.00  0.00    +0.000 C 
BRANCH  14  15
ATOM     15  C   UNL     1       5.838   3.961  13.393  0.00  0.00    +0.000 C 
BRANCH  15  16
ATOM     16  O   UNL     1       6.439   2.881  12.690  0.00  0.00    +0.000 OA
ATOM     17  H   UNL     1       6.768   3.250  11.847  0.00  0.00    +0.000 HD
ENDBRANCH  15  16
ENDBRANCH  14  15
ENDBRANCH  12  14
ENDBRANCH   1  12
TORSDOF 4
ENDMDL
MODEL 7
REMARK VINA RESULT:      -6.2      1.998      2.767
REMARK  Name = 
REMARK  4 active torsions:
REMARK  status: ('A' for Active; 'I' for Inactive)
REMARK    1  A    between atoms: C_2  and  C_3
REMARK    2  A    between atoms: C_2  and  C_5
REMARK    3  A    between atoms: C_3  and  O_4
REMARK    4  A    between atoms: C_5  and  C_6
REMARK                            x       y       z     vdW  Elec       q    Type
REMARK                         _______ _______ _______ _____ _____    ______ ____
ROOT
ATOM      1  C   UNL     1       4.306   4.844  17.264  0.00  0.00    +0.000 A 
ATOM      2  C   UNL     1       4.311   3.466  17.144  0.00  0.00    +0.000 A 
ATOM      3  N   UNL     1       3.441   2.948  18.064  0.00  0.00    +0.000 N 
ATOM      4  C   UNL     1       2.879   3.958  18.808  0.00  0.00    +0.000 A 
ATOM      5  C   UNL     1       1.947   3.891  19.849  0.00  0.00    +0.000 A 
ATOM      6  C   UNL     1       1.555   5.092  20.445  0.00  0.00    +0.000 A 
ATOM      7  C   UNL     1       2.078   6.305  20.006  0.00  0.00    +0.000 A 
ATOM      8 BR   UNL     1       1.538   7.910  20.853  0.00  0.00    +0.000 Br
ATOM      9  C   UNL     1       2.998   6.361  18.953  0.00  0.00    +0.000 A 
ATOM     10  C   UNL     1       3.411   5.161  18.338  0.00  0.00    +0.000 A 
ATOM     11  H   UNL     1       3.233   1.965  18.184  0.00  0.00    +0.000 HD
ENDROOT
BRANCH   1  12
ATOM     12  C   UNL     1       5.070   5.808  16.412  0.00  0.00    +0.000 C 
BRANCH  12  14
ATOM     13  O   UNL     1       7.323   5.794  15.597  0.00  0.00    +0.000 OA
ATOM     14  C   UNL     1       6.573   5.743  16.583  0.00  0.00    +0.000 C 
BRANCH  14  15
ATOM     15  C   UNL     1       7.144   5.442  17.965  0.00  0.00    +0.000 C 
BRANCH  15  16
ATOM     16  O   UNL     1       7.881   4.226  17.996  0.00  0.00    +0.000 OA
ATOM     17  H   UNL     1       7.864   3.871  17.086  0.00  0.00    +0.000 HD
ENDBRANCH  15  16
ENDBRANCH  14  15
ENDBRANCH  12  14
ENDBRANCH   1  12
TORSDOF 4
ENDMDL
MODEL 8
REMARK VINA RESULT:      -6.2      2.343      2.989
REMARK  Name = 
REMARK  4 active torsions:
REMARK  status: ('A' for Active; 'I' for Inactive)
REMARK    1  A    between atoms: C_2  and  C_3
REMARK    2  A    between atoms: C_2  and  C_5
REMARK    3  A    between atoms: C_3  and  O_4
REMARK    4  A    between atoms: C_5  and  C_6
REMARK                            x       y       z     vdW  Elec       q    Type
REMARK                         _______ _______ _______ _____ _____    ______ ____
ROOT
ATOM      1  C   UNL     1       3.863   3.255  17.700  0.00  0.00    +0.000 A 
ATOM      2  C   UNL     1       3.567   1.906  17.766  0.00  0.00    +0.000 A 
ATOM      3  N   UNL     1       2.565   1.727  18.681  0.00  0.00    +0.000 N 
ATOM      4  C   UNL     1       2.212   2.932  19.241  0.00  0.00    +0.000 A 
ATOM      5  C   UNL     1       1.246   3.220  20.212  0.00  0.00    +0.000 A 
ATOM      6  C   UNL     1       1.107   4.551  20.610  0.00  0.00    +0.000 A 
ATOM      7  C   UNL     1       1.904   5.546  20.052  0.00  0.00    +0.000 A 
ATOM      8 BR   UNL     1       1.700   7.336  20.635  0.00  0.00    +0.000 Br
ATOM      9  C   UNL     1       2.857   5.249  19.071  0.00  0.00    +0.000 A 
ATOM     10  C   UNL     1       3.017   3.911  18.654  0.00  0.00    +0.000 A 
ATOM     11  H   UNL     1       2.140   0.841  18.917  0.00  0.00    +0.000 HD
ENDROOT
BRANCH   1  12
ATOM     12  C   UNL     1       4.857   3.897  16.784  0.00  0.00    +0.000 C 
BRANCH  12  14
ATOM     13  O   UNL     1       6.441   4.218  18.553  0.00  0.00    +0.000 OA
ATOM     14  C   UNL     1       5.970   4.645  17.489  0.00  0.00    +0.000 C 
BRANCH  14  15
ATOM     15  C   UNL     1       6.382   6.016  16.964  0.00  0.00    +0.000 C 
BRANCH  15  16
ATOM     16  O   UNL     1       7.440   5.940  16.017  0.00  0.00    +0.000 OA
ATOM     17  H   UNL     1       8.173   6.476  16.379  0.00  0.00    +0.000 HD
ENDBRANCH  15  16
ENDBRANCH  14  15
ENDBRANCH  12  14
ENDBRANCH   1  12
TORSDOF 4
ENDMDL
MODEL 9
REMARK VINA RESULT:      -6.1      2.347      3.034
REMARK  Name = 
REMARK  4 active torsions:
REMARK  status: ('A' for Active; 'I' for Inactive)
REMARK    1  A    between atoms: C_2  and  C_3
REMARK    2  A    between atoms: C_2  and  C_5
REMARK    3  A    between atoms: C_3  and  O_4
REMARK    4  A    between atoms: C_5  and  C_6
REMARK                            x       y       z     vdW  Elec       q    Type
REMARK                         _______ _______ _______ _____ _____    ______ ____
ROOT
ATOM      1  C   UNL     1       4.362   4.043  17.824  0.00  0.00    +0.000 A 
ATOM      2  C   UNL     1       4.335   3.070  18.805  0.00  0.00    +0.000 A 
ATOM      3  N   UNL     1       3.578   3.528  19.849  0.00  0.00    +0.000 N 
ATOM      4  C   UNL     1       3.125   4.798  19.585  0.00  0.00    +0.000 A 
ATOM      5  C   UNL     1       2.326   5.644  20.363  0.00  0.00    +0.000 A 
ATOM      6  C   UNL     1       2.025   6.906  19.846  0.00  0.00    +0.000 A 
ATOM      7  C   UNL     1       2.505   7.294  18.599  0.00  0.00    +0.000 A 
ATOM      8 BR   UNL     1       2.093   9.021  17.942  0.00  0.00    +0.000 Br
ATOM      9  C   UNL     1       3.290   6.435  17.822  0.00  0.00    +0.000 A 
ATOM     10  C   UNL     1       3.609   5.156  18.325  0.00  0.00    +0.000 A 
ATOM     11  H   UNL     1       3.375   3.012  20.695  0.00  0.00    +0.000 HD
ENDROOT
BRANCH   1  12
ATOM     12  C   UNL     1       5.027   3.933  16.488  0.00  0.00    +0.000 C 
BRANCH  12  14
ATOM     13  O   UNL     1       6.844   4.930  15.285  0.00  0.00    +0.000 OA
ATOM     14  C   UNL     1       6.362   4.643  16.390  0.00  0.00    +0.000 C 
BRANCH  14  15
ATOM     15  C   UNL     1       7.182   4.846  17.660  0.00  0.00    +0.000 C 
BRANCH  15  16
ATOM     16  O   UNL     1       8.328   4.006  17.707  0.00  0.00    +0.000 OA
ATOM     17  H   UNL     1       8.013   3.100  17.514  0.00  0.00    +0.000 HD
ENDBRANCH  15  16
ENDBRANCH  14  15
ENDBRANCH  12  14
ENDBRANCH   1  12
TORSDOF 4
ENDMDL
