MODEL 1
REMARK VINA RESULT:      -8.1      0.000      0.000
REMARK  Name = 
REMARK  9 active torsions:
REMARK  status: ('A' for Active; 'I' for Inactive)
REMARK    1  A    between atoms: C_1  and  O_2
REMARK    2  A    between atoms: O_2  and  C_3
REMARK    3  A    between atoms: C_3  and  C_5
REMARK    4  A    between atoms: C_7  and  C_8
REMARK    5  A    between atoms: C_8  and  N_9
REMARK    6  A    between atoms: C_11  and  C_12
REMARK    7  A    between atoms: C_14  and  C_15
REMARK    8  A    between atoms: C_18  and  C_19
REMARK    9  A    between atoms: C_22  and  C_23
REMARK                            x       y       z     vdW  Elec       q    Type
REMARK                         _______ _______ _______ _____ _____    ______ ____
ROOT
ATOM      1  N   UNL     1       6.593   5.557  16.689  0.00  0.00    +0.000 NA
ATOM      2  C   UNL     1       5.286   5.125  17.244  0.00  0.00    +0.000 C 
ATOM      3  C   UNL     1       5.269   4.658  18.728  0.00  0.00    +0.000 C 
ATOM      4  O   UNL     1       6.015   5.558  19.571  0.00  0.00    +0.000 OA
ATOM      5  C   UNL     1       7.350   5.722  19.109  0.00  0.00    +0.000 C 
ATOM      6  C   UNL     1       7.399   6.298  17.679  0.00  0.00    +0.000 C 
ATOM      7  C   UNL     1       6.926   7.756  17.662  0.00  0.00    +0.000 C 
ENDROOT
BRANCH   3   8
ATOM      8  C   UNL     1       3.849   4.596  19.293  0.00  0.00    +0.000 A 
ATOM      9  C   UNL     1       3.236   5.796  19.722  0.00  0.00    +0.000 A 
ATOM     10  C   UNL     1       1.969   5.814  20.315  0.00  0.00    +0.000 A 
ATOM     11  C   UNL     1       1.374   7.095  20.821  0.00  0.00    +0.000 C 
ATOM     12  C   UNL     1       1.277   4.614  20.455  0.00  0.00    +0.000 A 
ATOM     13  C   UNL     1       1.846   3.419  20.009  0.00  0.00    +0.000 A 
ATOM     14  C   UNL     1       3.127   3.391  19.426  0.00  0.00    +0.000 A 
ATOM     15  C   UNL     1       3.685   2.067  18.984  0.00  0.00    +0.000 C 
ENDBRANCH   3   8
BRANCH   1  16
ATOM     16  C   UNL     1       7.346   4.499  16.021  0.00  0.00    +0.000 C 
BRANCH  16  19
ATOM     17  C   UNL     1       5.899   3.538  12.717  0.00  0.00    +0.000 A 
ATOM     18  C   UNL     1       5.843   3.563  14.100  0.00  0.00    +0.000 A 
ATOM     19  C   UNL     1       6.917   4.365  14.583  0.00  0.00    +0.000 A 
ATOM     20  C   UNL     1       7.526   4.900  13.460  0.00  0.00    +0.000 A 
ATOM     21  N   UNL     1       6.885   4.419  12.342  0.00  0.00    +0.000 N 
ATOM     22  H   UNL     1       7.139   4.614  11.385  0.00  0.00    +0.000 HD
BRANCH  17  23
ATOM     23  C   UNL     1       5.152   2.758  11.757  0.00  0.00    +0.000 C 
ATOM     24  O   UNL     1       5.571   1.755  11.201  0.00  0.00    +0.000 OA
BRANCH  23  26
ATOM     25  C   UNL     1       3.557   3.679  10.301  0.00  0.00    +0.000 C 
ATOM     26  O   UNL     1       3.894   3.264  11.623  0.00  0.00    +0.000 OA
ENDBRANCH  23  26
ENDBRANCH  17  23
ENDBRANCH  16  19
ENDBRANCH   1  16
TORSDOF 5
ENDMDL
MODEL 2
REMARK VINA RESULT:      -8.0      0.503      1.033
REMARK  Name = 
REMARK  9 active torsions:
REMARK  status: ('A' for Active; 'I' for Inactive)
REMARK    1  A    between atoms: C_1  and  O_2
REMARK    2  A    between atoms: O_2  and  C_3
REMARK    3  A    between atoms: C_3  and  C_5
REMARK    4  A    between atoms: C_7  and  C_8
REMARK    5  A    between atoms: C_8  and  N_9
REMARK    6  A    between atoms: C_11  and  C_12
REMARK    7  A    between atoms: C_14  and  C_15
REMARK    8  A    between atoms: C_18  and  C_19
REMARK    9  A    between atoms: C_22  and  C_23
REMARK                            x       y       z     vdW  Elec       q    Type
REMARK                         _______ _______ _______ _____ _____    ______ ____
ROOT
ATOM      1  N   UNL     1       6.583   5.508  16.682  0.00  0.00    +0.000 NA
ATOM      2  C   UNL     1       5.281   5.130  17.284  0.00  0.00    +0.000 C 
ATOM      3  C   UNL     1       5.296   4.680  18.774  0.00  0.00    +0.000 C 
ATOM      4  O   UNL     1       6.101   5.561  19.581  0.00  0.00    +0.000 OA
ATOM      5  C   UNL     1       7.425   5.672  19.073  0.00  0.00    +0.000 C 
ATOM      6  C   UNL     1       7.447   6.230  17.636  0.00  0.00    +0.000 C 
ATOM      7  C   UNL     1       7.026   7.704  17.617  0.00  0.00    +0.000 C 
ENDROOT
BRANCH   3   8
ATOM      8  C   UNL     1       3.895   4.675  19.386  0.00  0.00    +0.000 A 
ATOM      9  C   UNL     1       3.291   5.912  19.709  0.00  0.00    +0.000 A 
ATOM     10  C   UNL     1       2.042   5.990  20.336  0.00  0.00    +0.000 A 
ATOM     11  C   UNL     1       1.459   7.316  20.727  0.00  0.00    +0.000 C 
ATOM     12  C   UNL     1       1.359   4.810  20.618  0.00  0.00    +0.000 A 
ATOM     13  C   UNL     1       1.918   3.576  20.278  0.00  0.00    +0.000 A 
ATOM     14  C   UNL     1       3.181   3.490  19.662  0.00  0.00    +0.000 A 
ATOM     15  C   UNL     1       3.730   2.127  19.340  0.00  0.00    +0.000 C 
ENDBRANCH   3   8
BRANCH   1  16
ATOM     16  C   UNL     1       7.275   4.417  16.002  0.00  0.00    +0.000 C 
BRANCH  16  19
ATOM     17  C   UNL     1       5.846   3.625  12.646  0.00  0.00    +0.000 A 
ATOM     18  C   UNL     1       5.765   3.612  14.028  0.00  0.00    +0.000 A 
ATOM     19  C   UNL     1       6.868   4.346  14.553  0.00  0.00    +0.000 A 
ATOM     20  C   UNL     1       7.522   4.883  13.458  0.00  0.00    +0.000 A 
ATOM     21  N   UNL     1       6.880   4.467  12.315  0.00  0.00    +0.000 N 
ATOM     22  H   UNL     1       7.161   4.677  11.369  0.00  0.00    +0.000 HD
BRANCH  17  23
ATOM     23  C   UNL     1       5.080   2.911  11.650  0.00  0.00    +0.000 C 
ATOM     24  O   UNL     1       4.192   3.404  10.972  0.00  0.00    +0.000 OA
BRANCH  23  26
ATOM     25  C   UNL     1       6.858   1.530  10.981  0.00  0.00    +0.000 C 
ATOM     26  O   UNL     1       5.545   1.635  11.530  0.00  0.00    +0.000 OA
ENDBRANCH  23  26
ENDBRANCH  17  23
ENDBRANCH  16  19
ENDBRANCH   1  16
TORSDOF 5
ENDMDL
MODEL 3
REMARK VINA RESULT:      -7.6      0.636      1.671
REMARK  Name = 
REMARK  9 active torsions:
REMARK  status: ('A' for Active; 'I' for Inactive)
REMARK    1  A    between atoms: C_1  and  O_2
REMARK    2  A    between atoms: O_2  and  C_3
REMARK    3  A    between atoms: C_3  and  C_5
REMARK    4  A    between atoms: C_7  and  C_8
REMARK    5  A    between atoms: C_8  and  N_9
REMARK    6  A    between atoms: C_11  and  C_12
REMARK    7  A    between atoms: C_14  and  C_15
REMARK    8  A    between atoms: C_18  and  C_19
REMARK    9  A    between atoms: C_22  and  C_23
REMARK                            x       y       z     vdW  Elec       q    Type
REMARK                         _______ _______ _______ _____ _____    ______ ____
ROOT
ATOM      1  N   UNL     1       6.574   5.523  16.730  0.00  0.00    +0.000 NA
ATOM      2  C   UNL     1       5.265   5.198  17.348  0.00  0.00    +0.000 C 
ATOM      3  C   UNL     1       5.275   4.791  18.850  0.00  0.00    +0.000 C 
ATOM      4  O   UNL     1       6.106   5.675  19.628  0.00  0.00    +0.000 OA
ATOM      5  C   UNL     1       7.430   5.735  19.113  0.00  0.00    +0.000 C 
ATOM      6  C   UNL     1       7.461   6.250  17.660  0.00  0.00    +0.000 C 
ATOM      7  C   UNL     1       7.079   7.733  17.598  0.00  0.00    +0.000 C 
ENDROOT
BRANCH   3   8
ATOM      8  C   UNL     1       3.876   4.842  19.467  0.00  0.00    +0.000 A 
ATOM      9  C   UNL     1       3.449   3.760  20.271  0.00  0.00    +0.000 A 
ATOM     10  C   UNL     1       2.160   3.698  20.812  0.00  0.00    +0.000 A 
ATOM     11  C   UNL     1       1.715   2.504  21.605  0.00  0.00    +0.000 C 
ATOM     12  C   UNL     1       1.283   4.754  20.578  0.00  0.00    +0.000 A 
ATOM     13  C   UNL     1       1.692   5.850  19.817  0.00  0.00    +0.000 A 
ATOM     14  C   UNL     1       2.982   5.912  19.255  0.00  0.00    +0.000 A 
ATOM     15  C   UNL     1       3.348   7.115  18.431  0.00  0.00    +0.000 C 
ENDBRANCH   3   8
BRANCH   1  16
ATOM     16  C   UNL     1       7.234   4.394  16.081  0.00  0.00    +0.000 C 
BRANCH  16  19
ATOM     17  C   UNL     1       5.828   3.579  12.720  0.00  0.00    +0.000 A 
ATOM     18  C   UNL     1       5.732   3.589  14.102  0.00  0.00    +0.000 A 
ATOM     19  C   UNL     1       6.842   4.309  14.629  0.00  0.00    +0.000 A 
ATOM     20  C   UNL     1       7.520   4.817  13.533  0.00  0.00    +0.000 A 
ATOM     21  N   UNL     1       6.883   4.396  12.389  0.00  0.00    +0.000 N 
ATOM     22  H   UNL     1       7.179   4.586  11.443  0.00  0.00    +0.000 HD
BRANCH  17  23
ATOM     23  C   UNL     1       5.060   2.865  11.726  0.00  0.00    +0.000 C 
ATOM     24  O   UNL     1       5.414   1.827  11.190  0.00  0.00    +0.000 OA
BRANCH  23  26
ATOM     25  C   UNL     1       3.423   3.526  10.178  0.00  0.00    +0.000 C 
ATOM     26  O   UNL     1       3.859   3.480  11.536  0.00  0.00    +0.000 OA
ENDBRANCH  23  26
ENDBRANCH  17  23
ENDBRANCH  16  19
ENDBRANCH   1  16
TORSDOF 5
ENDMDL
MODEL 4
REMARK VINA RESULT:      -7.5      0.800      1.952
REMARK  Name = 
REMARK  9 active torsions:
REMARK  status: ('A' for Active; 'I' for Inactive)
REMARK    1  A    between atoms: C_1  and  O_2
REMARK    2  A    between atoms: O_2  and  C_3
REMARK    3  A    between atoms: C_3  and  C_5
REMARK    4  A    between atoms: C_7  and  C_8
REMARK    5  A    between atoms: C_8  and  N_9
REMARK    6  A    between atoms: C_11  and  C_12
REMARK    7  A    between atoms: C_14  and  C_15
REMARK    8  A    between atoms: C_18  and  C_19
REMARK    9  A    between atoms: C_22  and  C_23
REMARK                            x       y       z     vdW  Elec       q    Type
REMARK                         _______ _______ _______ _____ _____    ______ ____
ROOT
ATOM      1  N   UNL     1       6.635   5.590  16.749  0.00  0.00    +0.000 NA
ATOM      2  C   UNL     1       5.315   5.275  17.348  0.00  0.00    +0.000 C 
ATOM      3  C   UNL     1       5.304   4.844  18.844  0.00  0.00    +0.000 C 
ATOM      4  O   UNL     1       6.141   5.701  19.644  0.00  0.00    +0.000 OA
ATOM      5  C   UNL     1       7.471   5.750  19.143  0.00  0.00    +0.000 C 
ATOM      6  C   UNL     1       7.524   6.288  17.699  0.00  0.00    +0.000 C 
ATOM      7  C   UNL     1       7.165   7.778  17.658  0.00  0.00    +0.000 C 
ENDROOT
BRANCH   3   8
ATOM      8  C   UNL     1       3.901   4.905  19.448  0.00  0.00    +0.000 A 
ATOM      9  C   UNL     1       3.452   3.819  20.235  0.00  0.00    +0.000 A 
ATOM     10  C   UNL     1       2.157   3.768  20.764  0.00  0.00    +0.000 A 
ATOM     11  C   UNL     1       1.689   2.571  21.538  0.00  0.00    +0.000 C 
ATOM     12  C   UNL     1       1.296   4.839  20.534  0.00  0.00    +0.000 A 
ATOM     13  C   UNL     1       1.726   5.938  19.789  0.00  0.00    +0.000 A 
ATOM     14  C   UNL     1       3.022   5.989  19.241  0.00  0.00    +0.000 A 
ATOM     15  C   UNL     1       3.412   7.197  18.434  0.00  0.00    +0.000 C 
ENDBRANCH   3   8
BRANCH   1  16
ATOM     16  C   UNL     1       7.285   4.463  16.087  0.00  0.00    +0.000 C 
BRANCH  16  19
ATOM     17  C   UNL     1       5.882   3.655  12.723  0.00  0.00    +0.000 A 
ATOM     18  C   UNL     1       5.799   3.632  14.105  0.00  0.00    +0.000 A 
ATOM     19  C   UNL     1       6.882   4.390  14.637  0.00  0.00    +0.000 A 
ATOM     20  C   UNL     1       7.526   4.949  13.546  0.00  0.00    +0.000 A 
ATOM     21  N   UNL     1       6.896   4.524  12.399  0.00  0.00    +0.000 N 
ATOM     22  H   UNL     1       7.175   4.746  11.455  0.00  0.00    +0.000 HD
BRANCH  17  23
ATOM     23  C   UNL     1       5.136   2.928  11.721  0.00  0.00    +0.000 C 
ATOM     24  O   UNL     1       4.292   3.422  10.991  0.00  0.00    +0.000 OA
BRANCH  23  26
ATOM     25  C   UNL     1       6.704   1.425  10.828  0.00  0.00    +0.000 C 
ATOM     26  O   UNL     1       5.568   1.636  11.665  0.00  0.00    +0.000 OA
ENDBRANCH  23  26
ENDBRANCH  17  23
ENDBRANCH  16  19
ENDBRANCH   1  16
TORSDOF 5
ENDMDL
MODEL 5
REMARK VINA RESULT:      -7.4      3.541      8.528
REMARK  Name = 
REMARK  9 active torsions:
REMARK  status: ('A' for Active; 'I' for Inactive)
REMARK    1  A    between atoms: C_1  and  O_2
REMARK    2  A    between atoms: O_2  and  C_3
REMARK    3  A    between atoms: C_3  and  C_5
REMARK    4  A    between atoms: C_7  and  C_8
REMARK    5  A    between atoms: C_8  and  N_9
REMARK    6  A    between atoms: C_11  and  C_12
REMARK    7  A    between atoms: C_14  and  C_15
REMARK    8  A    between atoms: C_18  and  C_19
REMARK    9  A    between atoms: C_22  and  C_23
REMARK                            x       y       z     vdW  Elec       q    Type
REMARK                         _______ _______ _______ _____ _____    ______ ____
ROOT
ATOM      1  N   UNL     1       2.373   5.700  18.753  0.00  0.00    +0.000 NA
ATOM      2  C   UNL     1       3.498   5.853  17.797  0.00  0.00    +0.000 C 
ATOM      3  C   UNL     1       4.632   4.789  17.866  0.00  0.00    +0.000 C 
ATOM      4  O   UNL     1       4.096   3.455  17.958  0.00  0.00    +0.000 OA
ATOM      5  C   UNL     1       3.211   3.322  19.063  0.00  0.00    +0.000 C 
ATOM      6  C   UNL     1       2.011   4.284  18.962  0.00  0.00    +0.000 C 
ATOM      7  C   UNL     1       1.077   3.872  17.819  0.00  0.00    +0.000 C 
ENDROOT
BRANCH   3   8
ATOM      8  C   UNL     1       5.525   4.823  16.625  0.00  0.00    +0.000 A 
ATOM      9  C   UNL     1       5.014   4.317  15.407  0.00  0.00    +0.000 A 
ATOM     10  C   UNL     1       5.792   4.247  14.245  0.00  0.00    +0.000 A 
ATOM     11  C   UNL     1       5.243   3.643  12.987  0.00  0.00    +0.000 C 
ATOM     12  C   UNL     1       7.100   4.724  14.284  0.00  0.00    +0.000 A 
ATOM     13  C   UNL     1       7.617   5.260  15.466  0.00  0.00    +0.000 A 
ATOM     14  C   UNL     1       6.846   5.318  16.642  0.00  0.00    +0.000 A 
ATOM     15  C   UNL     1       7.473   5.892  17.882  0.00  0.00    +0.000 C 
ENDBRANCH   3   8
BRANCH   1  16
ATOM     16  C   UNL     1       2.538   6.434  20.004  0.00  0.00    +0.000 C 
BRANCH  16  19
ATOM     17  C   UNL     1       0.751   9.690  20.383  0.00  0.00    +0.000 A 
ATOM     18  C   UNL     1       1.325   8.555  20.930  0.00  0.00    +0.000 A 
ATOM     19  C   UNL     1       1.963   7.822  19.888  0.00  0.00    +0.000 A 
ATOM     20  C   UNL     1       1.852   8.605  18.751  0.00  0.00    +0.000 A 
ATOM     21  N   UNL     1       1.147   9.743  19.068  0.00  0.00    +0.000 N 
ATOM     22  H   UNL     1       0.885  10.474  18.424  0.00  0.00    +0.000 HD
BRANCH  17  23
ATOM     23  C   UNL     1      -0.133  10.674  20.965  0.00  0.00    +0.000 C 
ATOM     24  O   UNL     1      -1.020  11.255  20.359  0.00  0.00    +0.000 OA
BRANCH  23  26
ATOM     25  C   UNL     1      -0.974  10.458  23.147  0.00  0.00    +0.000 C 
ATOM     26  O   UNL     1       0.121  10.798  22.298  0.00  0.00    +0.000 OA
ENDBRANCH  23  26
ENDBRANCH  17  23
ENDBRANCH  16  19
ENDBRANCH   1  16
TORSDOF 5
ENDMDL
MODEL 6
REMARK VINA RESULT:      -7.3      3.510      8.027
REMARK  Name = 
REMARK  9 active torsions:
REMARK  status: ('A' for Active; 'I' for Inactive)
REMARK    1  A    between atoms: C_1  and  O_2
REMARK    2  A    between atoms: O_2  and  C_3
REMARK    3  A    between atoms: C_3  and  C_5
REMARK    4  A    between atoms: C_7  and  C_8
REMARK    5  A    between atoms: C_8  and  N_9
REMARK    6  A    between atoms: C_11  and  C_12
REMARK    7  A    between atoms: C_14  and  C_15
REMARK    8  A    between atoms: C_18  and  C_19
REMARK    9  A    between atoms: C_22  and  C_23
REMARK                            x       y       z     vdW  Elec       q    Type
REMARK                         _______ _______ _______ _____ _____    ______ ____
ROOT
ATOM      1  N   UNL     1       2.587   5.622  18.616  0.00  0.00    +0.000 NA
ATOM      2  C   UNL     1       3.675   5.808  17.625  0.00  0.00    +0.000 C 
ATOM      3  C   UNL     1       4.806   4.739  17.609  0.00  0.00    +0.000 C 
ATOM      4  O   UNL     1       4.267   3.404  17.669  0.00  0.00    +0.000 OA
ATOM      5  C   UNL     1       3.425   3.230  18.801  0.00  0.00    +0.000 C 
ATOM      6  C   UNL     1       2.226   4.199  18.783  0.00  0.00    +0.000 C 
ATOM      7  C   UNL     1       1.248   3.836  17.660  0.00  0.00    +0.000 C 
ENDROOT
BRANCH   3   8
ATOM      8  C   UNL     1       5.652   4.818  16.337  0.00  0.00    +0.000 A 
ATOM      9  C   UNL     1       5.191   4.161  15.173  0.00  0.00    +0.000 A 
ATOM     10  C   UNL     1       5.940   4.126  13.991  0.00  0.00    +0.000 A 
ATOM     11  C   UNL     1       5.454   3.364  12.794  0.00  0.00    +0.000 C 
ATOM     12  C   UNL     1       7.163   4.792  13.953  0.00  0.00    +0.000 A 
ATOM     13  C   UNL     1       7.625   5.477  15.079  0.00  0.00    +0.000 A 
ATOM     14  C   UNL     1       6.884   5.502  16.276  0.00  0.00    +0.000 A 
ATOM     15  C   UNL     1       7.451   6.245  17.454  0.00  0.00    +0.000 C 
ENDBRANCH   3   8
BRANCH   1  16
ATOM     16  C   UNL     1       2.801   6.306  19.887  0.00  0.00    +0.000 C 
BRANCH  16  19
ATOM     17  C   UNL     1       1.093   9.603  19.500  0.00  0.00    +0.000 A 
ATOM     18  C   UNL     1       1.782   8.528  18.965  0.00  0.00    +0.000 A 
ATOM     19  C   UNL     1       1.944   7.541  19.980  0.00  0.00    +0.000 A 
ATOM     20  C   UNL     1       1.237   8.007  21.077  0.00  0.00    +0.000 A 
ATOM     21  N   UNL     1       0.703   9.235  20.766  0.00  0.00    +0.000 N 
ATOM     22  H   UNL     1       0.170   9.823  21.389  0.00  0.00    +0.000 HD
BRANCH  17  23
ATOM     23  C   UNL     1       0.810  10.909  18.952  0.00  0.00    +0.000 C 
ATOM     24  O   UNL     1       1.652  11.670  18.503  0.00  0.00    +0.000 OA
BRANCH  23  26
ATOM     25  C   UNL     1      -1.251  10.399  17.949  0.00  0.00    +0.000 C 
ATOM     26  O   UNL     1      -0.535  11.129  18.943  0.00  0.00    +0.000 OA
ENDBRANCH  23  26
ENDBRANCH  17  23
ENDBRANCH  16  19
ENDBRANCH   1  16
TORSDOF 5
ENDMDL
MODEL 7
REMARK VINA RESULT:      -7.2      3.834      7.990
REMARK  Name = 
REMARK  9 active torsions:
REMARK  status: ('A' for Active; 'I' for Inactive)
REMARK    1  A    between atoms: C_1  and  O_2
REMARK    2  A    between atoms: O_2  and  C_3
REMARK    3  A    between atoms: C_3  and  C_5
REMARK    4  A    between atoms: C_7  and  C_8
REMARK    5  A    between atoms: C_8  and  N_9
REMARK    6  A    between atoms: C_11  and  C_12
REMARK    7  A    between atoms: C_14  and  C_15
REMARK    8  A    between atoms: C_18  and  C_19
REMARK    9  A    between atoms: C_22  and  C_23
REMARK                            x       y       z     vdW  Elec       q    Type
REMARK                         _______ _______ _______ _____ _____    ______ ____
ROOT
ATOM      1  N   UNL     1       2.264   5.919  18.718  0.00  0.00    +0.000 NA
ATOM      2  C   UNL     1       3.364   5.990  17.725  0.00  0.00    +0.000 C 
ATOM      3  C   UNL     1       4.649   5.169  18.035  0.00  0.00    +0.000 C 
ATOM      4  O   UNL     1       4.326   3.838  18.483  0.00  0.00    +0.000 OA
ATOM      5  C   UNL     1       3.458   3.861  19.609  0.00  0.00    +0.000 C 
ATOM      6  C   UNL     1       2.124   4.567  19.295  0.00  0.00    +0.000 C 
ATOM      7  C   UNL     1       1.282   3.735  18.323  0.00  0.00    +0.000 C 
ENDROOT
BRANCH   3   8
ATOM      8  C   UNL     1       5.543   5.017  16.803  0.00  0.00    +0.000 A 
ATOM      9  C   UNL     1       4.974   4.516  15.609  0.00  0.00    +0.000 A 
ATOM     10  C   UNL     1       5.739   4.282  14.461  0.00  0.00    +0.000 A 
ATOM     11  C   UNL     1       5.119   3.687  13.231  0.00  0.00    +0.000 C 
ATOM     12  C   UNL     1       7.099   4.584  14.488  0.00  0.00    +0.000 A 
ATOM     13  C   UNL     1       7.678   5.111  15.644  0.00  0.00    +0.000 A 
ATOM     14  C   UNL     1       6.917   5.334  16.807  0.00  0.00    +0.000 A 
ATOM     15  C   UNL     1       7.611   5.887  18.022  0.00  0.00    +0.000 C 
ENDBRANCH   3   8
BRANCH   1  16
ATOM     16  C   UNL     1       2.294   6.969  19.732  0.00  0.00    +0.000 C 
BRANCH  16  19
ATOM     17  C   UNL     1       0.680  10.218  18.850  0.00  0.00    +0.000 A 
ATOM     18  C   UNL     1       1.016   9.247  19.778  0.00  0.00    +0.000 A 
ATOM     19  C   UNL     1       1.860   8.288  19.147  0.00  0.00    +0.000 A 
ATOM     20  C   UNL     1       2.105   8.778  17.875  0.00  0.00    +0.000 A 
ATOM     21  N   UNL     1       1.413   9.956  17.717  0.00  0.00    +0.000 N 
ATOM     22  H   UNL     1       1.379  10.513  16.877  0.00  0.00    +0.000 HD
BRANCH  17  23
ATOM     23  C   UNL     1      -0.263  11.310  18.926  0.00  0.00    +0.000 C 
ATOM     24  O   UNL     1       0.036  12.491  18.850  0.00  0.00    +0.000 OA
BRANCH  23  26
ATOM     25  C   UNL     1      -2.451  11.371  18.075  0.00  0.00    +0.000 C 
ATOM     26  O   UNL     1      -1.533  10.823  19.020  0.00  0.00    +0.000 OA
ENDBRANCH  23  26
ENDBRANCH  17  23
ENDBRANCH  16  19
ENDBRANCH   1  16
TORSDOF 5
ENDMDL
MODEL 8
REMARK VINA RESULT:      -7.2      3.639      8.099
REMARK  Name = 
REMARK  9 active torsions:
REMARK  status: ('A' for Active; 'I' for Inactive)
REMARK    1  A    between atoms: C_1  and  O_2
REMARK    2  A    between atoms: O_2  and  C_3
REMARK    3  A    between atoms: C_3  and  C_5
REMARK    4  A    between atoms: C_7  and  C_8
REMARK    5  A    between atoms: C_8  and  N_9
REMARK    6  A    between atoms: C_11  and  C_12
REMARK    7  A    between atoms: C_14  and  C_15
REMARK    8  A    between atoms: C_18  and  C_19
REMARK    9  A    between atoms: C_22  and  C_23
REMARK                            x       y       z     vdW  Elec       q    Type
REMARK                         _______ _______ _______ _____ _____    ______ ____
ROOT
ATOM      1  N   UNL     1       2.453   5.708  18.821  0.00  0.00    +0.000 NA
ATOM      2  C   UNL     1       3.561   5.850  17.844  0.00  0.00    +0.000 C 
ATOM      3  C   UNL     1       4.690   4.781  17.898  0.00  0.00    +0.000 C 
ATOM      4  O   UNL     1       4.149   3.450  18.007  0.00  0.00    +0.000 OA
ATOM      5  C   UNL     1       3.285   3.328  19.129  0.00  0.00    +0.000 C 
ATOM      6  C   UNL     1       2.088   4.295  19.044  0.00  0.00    +0.000 C 
ATOM      7  C   UNL     1       1.131   3.883  17.921  0.00  0.00    +0.000 C 
ENDROOT
BRANCH   3   8
ATOM      8  C   UNL     1       5.561   4.803  16.640  0.00  0.00    +0.000 A 
ATOM      9  C   UNL     1       5.020   4.307  15.431  0.00  0.00    +0.000 A 
ATOM     10  C   UNL     1       5.775   4.228  14.255  0.00  0.00    +0.000 A 
ATOM     11  C   UNL     1       5.193   3.634  13.007  0.00  0.00    +0.000 C 
ATOM     12  C   UNL     1       7.090   4.685  14.271  0.00  0.00    +0.000 A 
ATOM     13  C   UNL     1       7.637   5.211  15.443  0.00  0.00    +0.000 A 
ATOM     14  C   UNL     1       6.889   5.279  16.634  0.00  0.00    +0.000 A 
ATOM     15  C   UNL     1       7.548   5.841  17.863  0.00  0.00    +0.000 C 
ENDBRANCH   3   8
BRANCH   1  16
ATOM     16  C   UNL     1       2.644   6.449  20.065  0.00  0.00    +0.000 C 
BRANCH  16  19
ATOM     17  C   UNL     1       0.965   9.727  19.459  0.00  0.00    +0.000 A 
ATOM     18  C   UNL     1       1.636   8.608  18.995  0.00  0.00    +0.000 A 
ATOM     19  C   UNL     1       1.800   7.697  20.078  0.00  0.00    +0.000 A 
ATOM     20  C   UNL     1       1.114   8.250  21.146  0.00  0.00    +0.000 A 
ATOM     21  N   UNL     1       0.588   9.458  20.753  0.00  0.00    +0.000 N 
ATOM     22  H   UNL     1       0.070  10.096  21.338  0.00  0.00    +0.000 HD
BRANCH  17  23
ATOM     23  C   UNL     1       0.688  10.993  18.819  0.00  0.00    +0.000 C 
ATOM     24  O   UNL     1      -0.416  11.353  18.442  0.00  0.00    +0.000 OA
BRANCH  23  26
ATOM     25  C   UNL     1       1.606  13.126  18.468  0.00  0.00    +0.000 C 
ATOM     26  O   UNL     1       1.822  11.748  18.770  0.00  0.00    +0.000 OA
ENDBRANCH  23  26
ENDBRANCH  17  23
ENDBRANCH  16  19
ENDBRANCH   1  16
TORSDOF 5
ENDMDL
MODEL 9
REMARK VINA RESULT:      -7.1      3.415      8.270
REMARK  Name = 
REMARK  9 active torsions:
REMARK  status: ('A' for Active; 'I' for Inactive)
REMARK    1  A    between atoms: C_1  and  O_2
REMARK    2  A    between atoms: O_2  and  C_3
REMARK    3  A    between atoms: C_3  and  C_5
REMARK    4  A    between atoms: C_7  and  C_8
REMARK    5  A    between atoms: C_8  and  N_9
REMARK    6  A    between atoms: C_11  and  C_12
REMARK    7  A    between atoms: C_14  and  C_15
REMARK    8  A    between atoms: C_18  and  C_19
REMARK    9  A    between atoms: C_22  and  C_23
REMARK                            x       y       z     vdW  Elec       q    Type
REMARK                         _______ _______ _______ _____ _____    ______ ____
ROOT
ATOM      1  N   UNL     1       1.953   4.978  19.475  0.00  0.00    +0.000 NA
ATOM      2  C   UNL     1       3.115   5.316  18.616  0.00  0.00    +0.000 C 
ATOM      3  C   UNL     1       4.406   4.469  18.808  0.00  0.00    +0.000 C 
ATOM      4  O   UNL     1       4.104   3.062  18.888  0.00  0.00    +0.000 OA
ATOM      5  C   UNL     1       3.162   2.787  19.916  0.00  0.00    +0.000 C 
ATOM      6  C   UNL     1       1.826   3.522  19.688  0.00  0.00    +0.000 C 
ATOM      7  C   UNL     1       1.083   2.942  18.480  0.00  0.00    +0.000 C 
ENDROOT
BRANCH   3   8
ATOM      8  C   UNL     1       5.386   4.646  17.648  0.00  0.00    +0.000 A 
ATOM      9  C   UNL     1       4.977   4.265  16.349  0.00  0.00    +0.000 A 
ATOM     10  C   UNL     1       5.838   4.330  15.248  0.00  0.00    +0.000 A 
ATOM     11  C   UNL     1       5.395   3.856  13.895  0.00  0.00    +0.000 C 
ATOM     12  C   UNL     1       7.129   4.819  15.434  0.00  0.00    +0.000 A 
ATOM     13  C   UNL     1       7.547   5.233  16.701  0.00  0.00    +0.000 A 
ATOM     14  C   UNL     1       6.691   5.156  17.815  0.00  0.00    +0.000 A 
ATOM     15  C   UNL     1       7.214   5.603  19.153  0.00  0.00    +0.000 C 
ENDBRANCH   3   8
BRANCH   1  16
ATOM     16  C   UNL     1       1.875   5.742  20.716  0.00  0.00    +0.000 C 
BRANCH  16  19
ATOM     17  C   UNL     1       1.000   9.370  20.638  0.00  0.00    +0.000 A 
ATOM     18  C   UNL     1       1.199   8.189  21.333  0.00  0.00    +0.000 A 
ATOM     19  C   UNL     1       1.706   7.211  20.429  0.00  0.00    +0.000 A 
ATOM     20  C   UNL     1       1.910   7.873  19.230  0.00  0.00    +0.000 A 
ATOM     21  N   UNL     1       1.510   9.181  19.376  0.00  0.00    +0.000 N 
ATOM     22  H   UNL     1       1.512   9.884  18.653  0.00  0.00    +0.000 HD
BRANCH  17  23
ATOM     23  C   UNL     1       0.364  10.604  21.039  0.00  0.00    +0.000 C 
ATOM     24  O   UNL     1       0.243  10.979  22.195  0.00  0.00    +0.000 OA
BRANCH  23  26
ATOM     25  C   UNL     1      -1.407  11.581  19.847  0.00  0.00    +0.000 C 
ATOM     26  O   UNL     1      -0.009  11.316  19.938  0.00  0.00    +0.000 OA
ENDBRANCH  23  26
ENDBRANCH  17  23
ENDBRANCH  16  19
ENDBRANCH   1  16
TORSDOF 5
ENDMDL
