MODEL 1
REMARK VINA RESULT:      -8.5      0.000      0.000
REMARK  Name = 
REMARK  2 active torsions:
REMARK  status: ('A' for Active; 'I' for Inactive)
REMARK    1  A    between atoms: C_4  and  C_5
REMARK    2  A    between atoms: C_6  and  C_7
REMARK                            x       y       z     vdW  Elec       q    Type
REMARK                         _______ _______ _______ _____ _____    ______ ____
ROOT
ATOM      1  O   UNL     1       6.850   5.176  14.799  0.00  0.00    +0.000 OA
ATOM      2  C   UNL     1       6.787   5.569  15.958  0.00  0.00    +0.000 A 
ATOM      3  N   UNL     1       7.574   6.575  16.439  0.00  0.00    +0.000 NA
ATOM      4  C   UNL     1       7.488   6.913  17.678  0.00  0.00    +0.000 A 
ATOM      5  O   UNL     1       6.664   6.358  18.637  0.00  0.00    +0.000 OA
ATOM      6  C   UNL     1       5.800   5.364  18.183  0.00  0.00    +0.000 A 
ATOM      7  C   UNL     1       4.904   4.811  19.097  0.00  0.00    +0.000 A 
ATOM      8  C   UNL     1       4.009   3.827  18.668  0.00  0.00    +0.000 A 
ATOM      9  C   UNL     1       4.020   3.399  17.337  0.00  0.00    +0.000 A 
ATOM     10  C   UNL     1       4.928   3.952  16.433  0.00  0.00    +0.000 A 
ATOM     11  C   UNL     1       5.817   4.940  16.865  0.00  0.00    +0.000 A 
ENDROOT
BRANCH   4  12
ATOM     12  C   UNL     1       8.267   7.992  18.321  0.00  0.00    +0.000 C 
ATOM     13  C   UNL     1       8.143   9.256  17.887  0.00  0.00    +0.000 C 
BRANCH  13  14
ATOM     14  C   UNL     1       8.835  10.406  18.485  0.00  0.00    +0.000 A 
ATOM     15  C   UNL     1       9.514  10.322  19.708  0.00  0.00    +0.000 A 
ATOM     16  C   UNL     1      10.145  11.444  20.251  0.00  0.00    +0.000 A 
ATOM     17  C   UNL     1      10.115  12.654  19.564  0.00  0.00    +0.000 A 
ATOM     18 BR   UNL     1      10.944  14.179  20.314  0.00  0.00    +0.000 Br
ATOM     19  C   UNL     1       9.477  12.748  18.330  0.00  0.00    +0.000 A 
ATOM     20  C   UNL     1       8.844  11.624  17.791  0.00  0.00    +0.000 A 
ENDBRANCH  13  14
ENDBRANCH   4  12
TORSDOF 2
ENDMDL
MODEL 2
REMARK VINA RESULT:      -8.3      1.046      1.505
REMARK  Name = 
REMARK  2 active torsions:
REMARK  status: ('A' for Active; 'I' for Inactive)
REMARK    1  A    between atoms: C_4  and  C_5
REMARK    2  A    between atoms: C_6  and  C_7
REMARK                            x       y       z     vdW  Elec       q    Type
REMARK                         _______ _______ _______ _____ _____    ______ ____
ROOT
ATOM      1  O   UNL     1       7.707   4.250  16.216  0.00  0.00    +0.000 OA
ATOM      2  C   UNL     1       7.140   5.248  16.644  0.00  0.00    +0.000 A 
ATOM      3  N   UNL     1       7.778   6.443  16.812  0.00  0.00    +0.000 NA
ATOM      4  C   UNL     1       7.135   7.443  17.306  0.00  0.00    +0.000 A 
ATOM      5  O   UNL     1       5.816   7.465  17.715  0.00  0.00    +0.000 OA
ATOM      6  C   UNL     1       5.105   6.284  17.513  0.00  0.00    +0.000 A 
ATOM      7  C   UNL     1       3.754   6.269  17.853  0.00  0.00    +0.000 A 
ATOM      8  C   UNL     1       3.008   5.107  17.641  0.00  0.00    +0.000 A 
ATOM      9  C   UNL     1       3.616   3.970  17.101  0.00  0.00    +0.000 A 
ATOM     10  C   UNL     1       4.972   3.992  16.773  0.00  0.00    +0.000 A 
ATOM     11  C   UNL     1       5.713   5.159  16.981  0.00  0.00    +0.000 A 
ENDROOT
BRANCH   4  12
ATOM     12  C   UNL     1       7.698   8.792  17.525  0.00  0.00    +0.000 C 
ATOM     13  C   UNL     1       8.502   9.018  18.576  0.00  0.00    +0.000 C 
BRANCH  13  14
ATOM     14  C   UNL     1       9.150  10.306  18.857  0.00  0.00    +0.000 A 
ATOM     15  C   UNL     1       9.263  11.318  17.894  0.00  0.00    +0.000 A 
ATOM     16  C   UNL     1       9.901  12.523  18.197  0.00  0.00    +0.000 A 
ATOM     17  C   UNL     1      10.416  12.730  19.475  0.00  0.00    +0.000 A 
ATOM     18 BR   UNL     1      11.305  14.349  19.875  0.00  0.00    +0.000 Br
ATOM     19  C   UNL     1      10.281  11.752  20.455  0.00  0.00    +0.000 A 
ATOM     20  C   UNL     1       9.645  10.546  20.148  0.00  0.00    +0.000 A 
ENDBRANCH  13  14
ENDBRANCH   4  12
TORSDOF 2
ENDMDL
MODEL 3
REMARK VINA RESULT:      -8.3      1.590      2.518
REMARK  Name = 
REMARK  2 active torsions:
REMARK  status: ('A' for Active; 'I' for Inactive)
REMARK    1  A    between atoms: C_4  and  C_5
REMARK    2  A    between atoms: C_6  and  C_7
REMARK                            x       y       z     vdW  Elec       q    Type
REMARK                         _______ _______ _______ _____ _____    ______ ____
ROOT
ATOM      1  O   UNL     1       8.001   5.117  19.756  0.00  0.00    +0.000 OA
ATOM      2  C   UNL     1       7.708   5.949  18.906  0.00  0.00    +0.000 A 
ATOM      3  N   UNL     1       8.281   7.188  18.861  0.00  0.00    +0.000 NA
ATOM      4  C   UNL     1       7.899   8.032  17.968  0.00  0.00    +0.000 A 
ATOM      5  O   UNL     1       6.931   7.842  17.001  0.00  0.00    +0.000 OA
ATOM      6  C   UNL     1       6.356   6.573  16.970  0.00  0.00    +0.000 A 
ATOM      7  C   UNL     1       5.416   6.307  15.976  0.00  0.00    +0.000 A 
ATOM      8  C   UNL     1       4.837   5.038  15.904  0.00  0.00    +0.000 A 
ATOM      9  C   UNL     1       5.194   4.049  16.826  0.00  0.00    +0.000 A 
ATOM     10  C   UNL     1       6.129   4.328  17.824  0.00  0.00    +0.000 A 
ATOM     11  C   UNL     1       6.710   5.598  17.888  0.00  0.00    +0.000 A 
ENDROOT
BRANCH   4  12
ATOM     12  C   UNL     1       8.445   9.396  17.798  0.00  0.00    +0.000 C 
ATOM     13  C   UNL     1       9.078   9.994  18.819  0.00  0.00    +0.000 C 
BRANCH  13  14
ATOM     14  C   UNL     1       9.697  11.325  18.741  0.00  0.00    +0.000 A 
ATOM     15  C   UNL     1       9.229  12.322  17.875  0.00  0.00    +0.000 A 
ATOM     16  C   UNL     1       9.855  13.569  17.819  0.00  0.00    +0.000 A 
ATOM     17  C   UNL     1      10.945  13.832  18.644  0.00  0.00    +0.000 A 
ATOM     18 BR   UNL     1      11.811  15.510  18.546  0.00  0.00    +0.000 Br
ATOM     19  C   UNL     1      11.402  12.867  19.537  0.00  0.00    +0.000 A 
ATOM     20  C   UNL     1      10.774  11.619  19.588  0.00  0.00    +0.000 A 
ENDBRANCH  13  14
ENDBRANCH   4  12
TORSDOF 2
ENDMDL
MODEL 4
REMARK VINA RESULT:      -8.1      1.698      2.442
REMARK  Name = 
REMARK  2 active torsions:
REMARK  status: ('A' for Active; 'I' for Inactive)
REMARK    1  A    between atoms: C_4  and  C_5
REMARK    2  A    between atoms: C_6  and  C_7
REMARK                            x       y       z     vdW  Elec       q    Type
REMARK                         _______ _______ _______ _____ _____    ______ ____
ROOT
ATOM      1  O   UNL     1       7.797   5.240  20.169  0.00  0.00    +0.000 OA
ATOM      2  C   UNL     1       7.535   5.950  19.206  0.00  0.00    +0.000 A 
ATOM      3  N   UNL     1       8.217   7.101  18.931  0.00  0.00    +0.000 NA
ATOM      4  C   UNL     1       7.865   7.824  17.927  0.00  0.00    +0.000 A 
ATOM      5  O   UNL     1       6.829   7.579  17.046  0.00  0.00    +0.000 OA
ATOM      6  C   UNL     1       6.137   6.388  17.250  0.00  0.00    +0.000 A 
ATOM      7  C   UNL     1       5.121   6.062  16.355  0.00  0.00    +0.000 A 
ATOM      8  C   UNL     1       4.422   4.863  16.519  0.00  0.00    +0.000 A 
ATOM      9  C   UNL     1       4.737   4.005  17.576  0.00  0.00    +0.000 A 
ATOM     10  C   UNL     1       5.750   4.345  18.474  0.00  0.00    +0.000 A 
ATOM     11  C   UNL     1       6.450   5.543  18.302  0.00  0.00    +0.000 A 
ENDROOT
BRANCH   4  12
ATOM     12  C   UNL     1       8.525   9.079  17.510  0.00  0.00    +0.000 C 
ATOM     13  C   UNL     1       8.770  10.038  18.417  0.00  0.00    +0.000 C 
BRANCH  13  14
ATOM     14  C   UNL     1       9.461  11.300  18.118  0.00  0.00    +0.000 A 
ATOM     15  C   UNL     1      10.813  11.349  17.753  0.00  0.00    +0.000 A 
ATOM     16  C   UNL     1      11.438  12.571  17.492  0.00  0.00    +0.000 A 
ATOM     17  C   UNL     1      10.706  13.753  17.577  0.00  0.00    +0.000 A 
ATOM     18 BR   UNL     1      11.559  15.408  17.254  0.00  0.00    +0.000 Br
ATOM     19  C   UNL     1       9.353  13.721  17.902  0.00  0.00    +0.000 A 
ATOM     20  C   UNL     1       8.732  12.497  18.165  0.00  0.00    +0.000 A 
ENDBRANCH  13  14
ENDBRANCH   4  12
TORSDOF 2
ENDMDL
MODEL 5
REMARK VINA RESULT:      -7.9      1.248      1.285
REMARK  Name = 
REMARK  2 active torsions:
REMARK  status: ('A' for Active; 'I' for Inactive)
REMARK    1  A    between atoms: C_4  and  C_5
REMARK    2  A    between atoms: C_6  and  C_7
REMARK                            x       y       z     vdW  Elec       q    Type
REMARK                         _______ _______ _______ _____ _____    ______ ____
ROOT
ATOM      1  O   UNL     1       7.955   4.177  17.042  0.00  0.00    +0.000 OA
ATOM      2  C   UNL     1       7.359   5.233  17.216  0.00  0.00    +0.000 A 
ATOM      3  N   UNL     1       7.998   6.439  17.267  0.00  0.00    +0.000 NA
ATOM      4  C   UNL     1       7.320   7.508  17.495  0.00  0.00    +0.000 A 
ATOM      5  O   UNL     1       5.958   7.602  17.711  0.00  0.00    +0.000 OA
ATOM      6  C   UNL     1       5.252   6.404  17.613  0.00  0.00    +0.000 A 
ATOM      7  C   UNL     1       3.868   6.449  17.763  0.00  0.00    +0.000 A 
ATOM      8  C   UNL     1       3.129   5.269  17.649  0.00  0.00    +0.000 A 
ATOM      9  C   UNL     1       3.775   4.056  17.394  0.00  0.00    +0.000 A 
ATOM     10  C   UNL     1       5.163   4.020  17.255  0.00  0.00    +0.000 A 
ATOM     11  C   UNL     1       5.898   5.205  17.364  0.00  0.00    +0.000 A 
ENDROOT
BRANCH   4  12
ATOM     12  C   UNL     1       7.881   8.874  17.560  0.00  0.00    +0.000 C 
ATOM     13  C   UNL     1       8.597   9.252  18.631  0.00  0.00    +0.000 C 
BRANCH  13  14
ATOM     14  C   UNL     1       9.237  10.567  18.774  0.00  0.00    +0.000 A 
ATOM     15  C   UNL     1      10.224  10.822  19.735  0.00  0.00    +0.000 A 
ATOM     16  C   UNL     1      10.797  12.092  19.850  0.00  0.00    +0.000 A 
ATOM     17  C   UNL     1      10.397  13.110  18.989  0.00  0.00    +0.000 A 
ATOM     18 BR   UNL     1      11.150  14.835  19.164  0.00  0.00    +0.000 Br
ATOM     19  C   UNL     1       9.444  12.865  18.003  0.00  0.00    +0.000 A 
ATOM     20  C   UNL     1       8.871  11.595  17.894  0.00  0.00    +0.000 A 
ENDBRANCH  13  14
ENDBRANCH   4  12
TORSDOF 2
ENDMDL
MODEL 6
REMARK VINA RESULT:      -7.8      1.284      2.489
REMARK  Name = 
REMARK  2 active torsions:
REMARK  status: ('A' for Active; 'I' for Inactive)
REMARK    1  A    between atoms: C_4  and  C_5
REMARK    2  A    between atoms: C_6  and  C_7
REMARK                            x       y       z     vdW  Elec       q    Type
REMARK                         _______ _______ _______ _____ _____    ______ ____
ROOT
ATOM      1  O   UNL     1       5.501   4.205  19.249  0.00  0.00    +0.000 OA
ATOM      2  C   UNL     1       6.174   4.912  18.509  0.00  0.00    +0.000 A 
ATOM      3  N   UNL     1       6.969   5.920  18.975  0.00  0.00    +0.000 NA
ATOM      4  C   UNL     1       7.619   6.653  18.141  0.00  0.00    +0.000 A 
ATOM      5  O   UNL     1       7.616   6.553  16.763  0.00  0.00    +0.000 OA
ATOM      6  C   UNL     1       6.863   5.504  16.241  0.00  0.00    +0.000 A 
ATOM      7  C   UNL     1       6.871   5.319  14.859  0.00  0.00    +0.000 A 
ATOM      8  C   UNL     1       6.145   4.262  14.306  0.00  0.00    +0.000 A 
ATOM      9  C   UNL     1       5.412   3.405  15.131  0.00  0.00    +0.000 A 
ATOM     10  C   UNL     1       5.402   3.604  16.512  0.00  0.00    +0.000 A 
ATOM     11  C   UNL     1       6.135   4.659  17.062  0.00  0.00    +0.000 A 
ENDROOT
BRANCH   4  12
ATOM     12  C   UNL     1       8.524   7.763  18.510  0.00  0.00    +0.000 C 
ATOM     13  C   UNL     1       8.176   9.029  18.234  0.00  0.00    +0.000 C 
BRANCH  13  14
ATOM     14  C   UNL     1       8.978  10.204  18.600  0.00  0.00    +0.000 A 
ATOM     15  C   UNL     1       9.440  11.125  17.649  0.00  0.00    +0.000 A 
ATOM     16  C   UNL     1      10.215  12.221  18.036  0.00  0.00    +0.000 A 
ATOM     17  C   UNL     1      10.517  12.413  19.382  0.00  0.00    +0.000 A 
ATOM     18 BR   UNL     1      11.590  13.880  19.901  0.00  0.00    +0.000 Br
ATOM     19  C   UNL     1      10.036  11.530  20.344  0.00  0.00    +0.000 A 
ATOM     20  C   UNL     1       9.264  10.432  19.953  0.00  0.00    +0.000 A 
ENDBRANCH  13  14
ENDBRANCH   4  12
TORSDOF 2
ENDMDL
MODEL 7
REMARK VINA RESULT:      -7.6      6.974      9.075
REMARK  Name = 
REMARK  2 active torsions:
REMARK  status: ('A' for Active; 'I' for Inactive)
REMARK    1  A    between atoms: C_4  and  C_5
REMARK    2  A    between atoms: C_6  and  C_7
REMARK                            x       y       z     vdW  Elec       q    Type
REMARK                         _______ _______ _______ _____ _____    ______ ____
ROOT
ATOM      1  O   UNL     1       0.374   9.735  23.735  0.00  0.00    +0.000 OA
ATOM      2  C   UNL     1       0.466   9.553  22.527  0.00  0.00    +0.000 A 
ATOM      3  N   UNL     1       1.229   8.558  21.988  0.00  0.00    +0.000 NA
ATOM      4  C   UNL     1       1.316   8.445  20.709  0.00  0.00    +0.000 A 
ATOM      5  O   UNL     1       0.710   9.245  19.759  0.00  0.00    +0.000 OA
ATOM      6  C   UNL     1      -0.125  10.242  20.258  0.00  0.00    +0.000 A 
ATOM      7  C   UNL     1      -0.808  11.040  19.343  0.00  0.00    +0.000 A 
ATOM      8  C   UNL     1      -1.671  12.034  19.812  0.00  0.00    +0.000 A 
ATOM      9  C   UNL     1      -1.838  12.228  21.186  0.00  0.00    +0.000 A 
ATOM     10  C   UNL     1      -1.142  11.430  22.095  0.00  0.00    +0.000 A 
ATOM     11  C   UNL     1      -0.285  10.433  21.621  0.00  0.00    +0.000 A 
ENDROOT
BRANCH   4  12
ATOM     12  C   UNL     1       2.091   7.407  19.997  0.00  0.00    +0.000 C 
ATOM     13  C   UNL     1       2.417   7.584  18.707  0.00  0.00    +0.000 C 
BRANCH  13  14
ATOM     14  C   UNL     1       3.223   6.639  17.922  0.00  0.00    +0.000 A 
ATOM     15  C   UNL     1       2.980   5.259  17.926  0.00  0.00    +0.000 A 
ATOM     16  C   UNL     1       3.780   4.391  17.179  0.00  0.00    +0.000 A 
ATOM     17  C   UNL     1       4.819   4.903  16.406  0.00  0.00    +0.000 A 
ATOM     18 BR   UNL     1       5.920   3.726  15.418  0.00  0.00    +0.000 Br
ATOM     19  C   UNL     1       5.053   6.274  16.360  0.00  0.00    +0.000 A 
ATOM     20  C   UNL     1       4.253   7.139  17.112  0.00  0.00    +0.000 A 
ENDBRANCH  13  14
ENDBRANCH   4  12
TORSDOF 2
ENDMDL
MODEL 8
REMARK VINA RESULT:      -7.6      1.490      2.531
REMARK  Name = 
REMARK  2 active torsions:
REMARK  status: ('A' for Active; 'I' for Inactive)
REMARK    1  A    between atoms: C_4  and  C_5
REMARK    2  A    between atoms: C_6  and  C_7
REMARK                            x       y       z     vdW  Elec       q    Type
REMARK                         _______ _______ _______ _____ _____    ______ ____
ROOT
ATOM      1  O   UNL     1       4.698   4.185  17.842  0.00  0.00    +0.000 OA
ATOM      2  C   UNL     1       5.597   4.870  17.370  0.00  0.00    +0.000 A 
ATOM      3  N   UNL     1       6.264   5.814  18.097  0.00  0.00    +0.000 NA
ATOM      4  C   UNL     1       7.171   6.529  17.530  0.00  0.00    +0.000 A 
ATOM      5  O   UNL     1       7.577   6.469  16.211  0.00  0.00    +0.000 OA
ATOM      6  C   UNL     1       6.965   5.483  15.440  0.00  0.00    +0.000 A 
ATOM      7  C   UNL     1       7.379   5.338  14.118  0.00  0.00    +0.000 A 
ATOM      8  C   UNL     1       6.801   4.343  13.325  0.00  0.00    +0.000 A 
ATOM      9  C   UNL     1       5.812   3.509  13.854  0.00  0.00    +0.000 A 
ATOM     10  C   UNL     1       5.397   3.669  15.176  0.00  0.00    +0.000 A 
ATOM     11  C   UNL     1       5.983   4.661  15.968  0.00  0.00    +0.000 A 
ENDROOT
BRANCH   4  12
ATOM     12  C   UNL     1       7.977   7.570  18.203  0.00  0.00    +0.000 C 
ATOM     13  C   UNL     1       7.957   8.831  17.744  0.00  0.00    +0.000 C 
BRANCH  13  14
ATOM     14  C   UNL     1       8.682   9.948  18.366  0.00  0.00    +0.000 A 
ATOM     15  C   UNL     1       9.345   9.823  19.594  0.00  0.00    +0.000 A 
ATOM     16  C   UNL     1      10.010  10.914  20.160  0.00  0.00    +0.000 A 
ATOM     17  C   UNL     1      10.031  12.134  19.489  0.00  0.00    +0.000 A 
ATOM     18 BR   UNL     1      10.905  13.617  20.268  0.00  0.00    +0.000 Br
ATOM     19  C   UNL     1       9.410  12.267  18.250  0.00  0.00    +0.000 A 
ATOM     20  C   UNL     1       8.743  11.174  17.688  0.00  0.00    +0.000 A 
ENDBRANCH  13  14
ENDBRANCH   4  12
TORSDOF 2
ENDMDL
MODEL 9
REMARK VINA RESULT:      -7.6      4.047      8.700
REMARK  Name = 
REMARK  2 active torsions:
REMARK  status: ('A' for Active; 'I' for Inactive)
REMARK    1  A    between atoms: C_4  and  C_5
REMARK    2  A    between atoms: C_6  and  C_7
REMARK                            x       y       z     vdW  Elec       q    Type
REMARK                         _______ _______ _______ _____ _____    ______ ____
ROOT
ATOM      1  O   UNL     1      10.295  12.240  21.516  0.00  0.00    +0.000 OA
ATOM      2  C   UNL     1      10.170  11.967  20.328  0.00  0.00    +0.000 A 
ATOM      3  N   UNL     1       9.374  10.949  19.886  0.00  0.00    +0.000 NA
ATOM      4  C   UNL     1       9.318  10.687  18.628  0.00  0.00    +0.000 A 
ATOM      5  O   UNL     1       9.997  11.331  17.611  0.00  0.00    +0.000 OA
ATOM      6  C   UNL     1      10.781  12.414  18.006  0.00  0.00    +0.000 A 
ATOM      7  C   UNL     1      11.441  13.136  17.014  0.00  0.00    +0.000 A 
ATOM      8  C   UNL     1      12.216  14.241  17.374  0.00  0.00    +0.000 A 
ATOM      9  C   UNL     1      12.333  14.611  18.717  0.00  0.00    +0.000 A 
ATOM     10  C   UNL     1      11.675  13.875  19.704  0.00  0.00    +0.000 A 
ATOM     11  C   UNL     1      10.895  12.774  19.338  0.00  0.00    +0.000 A 
ENDROOT
BRANCH   4  12
ATOM     12  C   UNL     1       8.488   9.628  18.016  0.00  0.00    +0.000 C 
ATOM     13  C   UNL     1       8.436   8.411  18.579  0.00  0.00    +0.000 C 
BRANCH  13  14
ATOM     14  C   UNL     1       7.608   7.305  18.079  0.00  0.00    +0.000 A 
ATOM     15  C   UNL     1       6.580   7.497  17.147  0.00  0.00    +0.000 A 
ATOM     16  C   UNL     1       5.804   6.420  16.709  0.00  0.00    +0.000 A 
ATOM     17  C   UNL     1       6.066   5.140  17.189  0.00  0.00    +0.000 A 
ATOM     18 BR   UNL     1       4.996   3.689  16.619  0.00  0.00    +0.000 Br
ATOM     19  C   UNL     1       7.107   4.924  18.088  0.00  0.00    +0.000 A 
ATOM     20  C   UNL     1       7.879   6.003  18.526  0.00  0.00    +0.000 A 
ENDBRANCH  13  14
ENDBRANCH   4  12
TORSDOF 2
ENDMDL
