MODEL 1
REMARK VINA RESULT:      -7.9      0.000      0.000
REMARK  Name = 
REMARK  7 active torsions:
REMARK  status: ('A' for Active; 'I' for Inactive)
REMARK    1  A    between atoms: C_2  and  O_3
REMARK    2  A    between atoms: C_2  and  C_4
REMARK    3  A    between atoms: C_4  and  O_5
REMARK    4  A    between atoms: O_5  and  C_6
REMARK    5  A    between atoms: C_11  and  C_12
REMARK    6  A    between atoms: N_13  and  N_14
REMARK    7  A    between atoms: C_15  and  C_17
REMARK                            x       y       z     vdW  Elec       q    Type
REMARK                         _______ _______ _______ _____ _____    ______ ____
ROOT
ATOM      1  C   UNL     1       5.478   3.429  15.543  0.00  0.00    +0.000 C 
ATOM      2  N   UNL     1       4.395   4.033  15.913  0.00  0.00    +0.000 NA
ENDROOT
BRANCH   1   8
ATOM      3  C   UNL     1       7.272   4.977  14.556  0.00  0.00    +0.000 A 
ATOM      4  C   UNL     1       7.879   5.474  13.386  0.00  0.00    +0.000 A 
ATOM      5  C   UNL     1       7.552   4.981  12.120  0.00  0.00    +0.000 A 
ATOM      6  C   UNL     1       6.604   3.977  11.999  0.00  0.00    +0.000 A 
ATOM      7  C   UNL     1       5.985   3.479  13.144  0.00  0.00    +0.000 A 
ATOM      8  C   UNL     1       6.296   3.974  14.430  0.00  0.00    +0.000 A 
BRANCH   3   9
ATOM      9  O   UNL     1       7.716   5.630  15.677  0.00  0.00    +0.000 OA
BRANCH   9  10
ATOM     10  C   UNL     1       6.819   5.780  16.774  0.00  0.00    +0.000 C 
BRANCH  10  12
ATOM     11  O   UNL     1       6.839   5.085  19.091  0.00  0.00    +0.000 OA
ATOM     12  C   UNL     1       7.286   4.953  17.961  0.00  0.00    +0.000 C 
BRANCH  12  13
ATOM     13  O   UNL     1       8.272   4.077  17.659  0.00  0.00    +0.000 OA
ATOM     14  H   UNL     1       8.954   4.080  18.366  0.00  0.00    +0.000 HD
ENDBRANCH  12  13
ENDBRANCH  10  12
ENDBRANCH   9  10
ENDBRANCH   3   9
ENDBRANCH   1   8
BRANCH   2  15
ATOM     15  N   UNL     1       3.717   3.539  16.981  0.00  0.00    +0.000 N 
ATOM     16  C   UNL     1       3.375   4.452  17.972  0.00  0.00    +0.000 C 
ATOM     17  O   UNL     1       3.577   5.666  17.904  0.00  0.00    +0.000 OA
ATOM     18  H   UNL     1       3.640   2.544  17.123  0.00  0.00    +0.000 HD
BRANCH  16  19
ATOM     19  C   UNL     1       2.765   3.919  19.222  0.00  0.00    +0.000 A 
ATOM     20  C   UNL     1       1.381   4.102  19.381  0.00  0.00    +0.000 A 
ATOM     21  C   UNL     1       0.721   3.575  20.489  0.00  0.00    +0.000 A 
ATOM     22  C   UNL     1       1.446   2.862  21.433  0.00  0.00    +0.000 A 
ATOM     23  F   UNL     1       0.812   2.334  22.487  0.00  0.00    +0.000 F 
ATOM     24  C   UNL     1       2.819   2.675  21.295  0.00  0.00    +0.000 A 
ATOM     25  C   UNL     1       3.490   3.205  20.184  0.00  0.00    +0.000 A 
ENDBRANCH  16  19
ENDBRANCH   2  15
TORSDOF 7
ENDMDL
MODEL 2
REMARK VINA RESULT:      -7.8      5.347      6.863
REMARK  Name = 
REMARK  7 active torsions:
REMARK  status: ('A' for Active; 'I' for Inactive)
REMARK    1  A    between atoms: C_2  and  O_3
REMARK    2  A    between atoms: C_2  and  C_4
REMARK    3  A    between atoms: C_4  and  O_5
REMARK    4  A    between atoms: O_5  and  C_6
REMARK    5  A    between atoms: C_11  and  C_12
REMARK    6  A    between atoms: N_13  and  N_14
REMARK    7  A    between atoms: C_15  and  C_17
REMARK                            x       y       z     vdW  Elec       q    Type
REMARK                         _______ _______ _______ _____ _____    ______ ____
ROOT
ATOM      1  C   UNL     1       2.344   6.443  19.301  0.00  0.00    +0.000 C 
ATOM      2  N   UNL     1       2.212   7.730  19.270  0.00  0.00    +0.000 NA
ENDROOT
BRANCH   1   8
ATOM      3  C   UNL     1       3.211   4.364  18.070  0.00  0.00    +0.000 A 
ATOM      4  C   UNL     1       4.152   3.848  17.159  0.00  0.00    +0.000 A 
ATOM      5  C   UNL     1       5.034   4.678  16.461  0.00  0.00    +0.000 A 
ATOM      6  C   UNL     1       4.993   6.049  16.665  0.00  0.00    +0.000 A 
ATOM      7  C   UNL     1       4.076   6.578  17.570  0.00  0.00    +0.000 A 
ATOM      8  C   UNL     1       3.184   5.751  18.291  0.00  0.00    +0.000 A 
BRANCH   3   9
ATOM      9  O   UNL     1       2.478   3.370  18.665  0.00  0.00    +0.000 OA
BRANCH   9  10
ATOM     10  C   UNL     1       2.899   2.886  19.937  0.00  0.00    +0.000 C 
BRANCH  10  12
ATOM     11  O   UNL     1       1.955   2.908  22.165  0.00  0.00    +0.000 OA
ATOM     12  C   UNL     1       1.788   3.048  20.962  0.00  0.00    +0.000 C 
BRANCH  12  13
ATOM     13  O   UNL     1       0.581   3.326  20.416  0.00  0.00    +0.000 OA
ATOM     14  H   UNL     1       0.251   4.190  20.749  0.00  0.00    +0.000 HD
ENDBRANCH  12  13
ENDBRANCH  10  12
ENDBRANCH   9  10
ENDBRANCH   3   9
ENDBRANCH   1   8
BRANCH   2  15
ATOM     15  N   UNL     1       1.492   8.325  20.256  0.00  0.00    +0.000 N 
ATOM     16  C   UNL     1       0.693   9.398  19.876  0.00  0.00    +0.000 C 
ATOM     17  O   UNL     1       0.544   9.781  18.714  0.00  0.00    +0.000 OA
ATOM     18  H   UNL     1       1.678   8.116  21.225  0.00  0.00    +0.000 HD
BRANCH  16  19
ATOM     19  C   UNL     1       0.007  10.165  20.953  0.00  0.00    +0.000 A 
ATOM     20  C   UNL     1      -0.535  11.410  20.599  0.00  0.00    +0.000 A 
ATOM     21  C   UNL     1      -1.251  12.161  21.530  0.00  0.00    +0.000 A 
ATOM     22  C   UNL     1      -1.425  11.660  22.813  0.00  0.00    +0.000 A 
ATOM     23  F   UNL     1      -2.131  12.366  23.704  0.00  0.00    +0.000 F 
ATOM     24  C   UNL     1      -0.889  10.429  23.184  0.00  0.00    +0.000 A 
ATOM     25  C   UNL     1      -0.166   9.671  22.252  0.00  0.00    +0.000 A 
ENDBRANCH  16  19
ENDBRANCH   2  15
TORSDOF 7
ENDMDL
MODEL 3
REMARK VINA RESULT:      -7.8      0.838      1.431
REMARK  Name = 
REMARK  7 active torsions:
REMARK  status: ('A' for Active; 'I' for Inactive)
REMARK    1  A    between atoms: C_2  and  O_3
REMARK    2  A    between atoms: C_2  and  C_4
REMARK    3  A    between atoms: C_4  and  O_5
REMARK    4  A    between atoms: O_5  and  C_6
REMARK    5  A    between atoms: C_11  and  C_12
REMARK    6  A    between atoms: N_13  and  N_14
REMARK    7  A    between atoms: C_15  and  C_17
REMARK                            x       y       z     vdW  Elec       q    Type
REMARK                         _______ _______ _______ _____ _____    ______ ____
ROOT
ATOM      1  C   UNL     1       5.214   3.576  15.399  0.00  0.00    +0.000 C 
ATOM      2  N   UNL     1       5.532   3.717  16.644  0.00  0.00    +0.000 NA
ENDROOT
BRANCH   1   8
ATOM      3  C   UNL     1       7.203   4.931  14.508  0.00  0.00    +0.000 A 
ATOM      4  C   UNL     1       7.921   5.353  13.372  0.00  0.00    +0.000 A 
ATOM      5  C   UNL     1       7.620   4.879  12.092  0.00  0.00    +0.000 A 
ATOM      6  C   UNL     1       6.587   3.970  11.922  0.00  0.00    +0.000 A 
ATOM      7  C   UNL     1       5.858   3.549  13.033  0.00  0.00    +0.000 A 
ATOM      8  C   UNL     1       6.143   4.026  14.332  0.00  0.00    +0.000 A 
BRANCH   3   9
ATOM      9  O   UNL     1       7.644   5.551  15.648  0.00  0.00    +0.000 OA
BRANCH   9  10
ATOM     10  C   UNL     1       6.817   6.547  16.242  0.00  0.00    +0.000 C 
BRANCH  10  12
ATOM     11  O   UNL     1       7.998   7.469  18.142  0.00  0.00    +0.000 OA
ATOM     12  C   UNL     1       7.145   6.702  17.718  0.00  0.00    +0.000 C 
BRANCH  12  13
ATOM     13  O   UNL     1       6.429   5.884  18.523  0.00  0.00    +0.000 OA
ATOM     14  H   UNL     1       5.692   5.474  18.019  0.00  0.00    +0.000 HD
ENDBRANCH  12  13
ENDBRANCH  10  12
ENDBRANCH   9  10
ENDBRANCH   3   9
ENDBRANCH   1   8
BRANCH   2  15
ATOM     15  N   UNL     1       4.683   3.226  17.584  0.00  0.00    +0.000 N 
ATOM     16  C   UNL     1       3.714   4.102  18.060  0.00  0.00    +0.000 C 
ATOM     17  O   UNL     1       3.536   5.245  17.634  0.00  0.00    +0.000 OA
ATOM     18  H   UNL     1       4.872   2.344  18.035  0.00  0.00    +0.000 HD
BRANCH  16  19
ATOM     19  C   UNL     1       2.864   3.643  19.194  0.00  0.00    +0.000 A 
ATOM     20  C   UNL     1       3.492   2.871  20.185  0.00  0.00    +0.000 A 
ATOM     21  C   UNL     1       2.785   2.458  21.312  0.00  0.00    +0.000 A 
ATOM     22  C   UNL     1       1.453   2.822  21.447  0.00  0.00    +0.000 A 
ATOM     23  F   UNL     1       0.776   2.448  22.540  0.00  0.00    +0.000 F 
ATOM     24  C   UNL     1       0.812   3.583  20.471  0.00  0.00    +0.000 A 
ATOM     25  C   UNL     1       1.517   3.998  19.334  0.00  0.00    +0.000 A 
ENDBRANCH  16  19
ENDBRANCH   2  15
TORSDOF 7
ENDMDL
MODEL 4
REMARK VINA RESULT:      -7.7      4.896      6.220
REMARK  Name = 
REMARK  7 active torsions:
REMARK  status: ('A' for Active; 'I' for Inactive)
REMARK    1  A    between atoms: C_2  and  O_3
REMARK    2  A    between atoms: C_2  and  C_4
REMARK    3  A    between atoms: C_4  and  O_5
REMARK    4  A    between atoms: O_5  and  C_6
REMARK    5  A    between atoms: C_11  and  C_12
REMARK    6  A    between atoms: N_13  and  N_14
REMARK    7  A    between atoms: C_15  and  C_17
REMARK                            x       y       z     vdW  Elec       q    Type
REMARK                         _______ _______ _______ _____ _____    ______ ____
ROOT
ATOM      1  C   UNL     1       3.046   6.273  18.936  0.00  0.00    +0.000 C 
ATOM      2  N   UNL     1       2.574   7.474  18.846  0.00  0.00    +0.000 NA
ENDROOT
BRANCH   1   8
ATOM      3  C   UNL     1       4.287   4.382  17.722  0.00  0.00    +0.000 A 
ATOM      4  C   UNL     1       5.227   4.043  16.729  0.00  0.00    +0.000 A 
ATOM      5  C   UNL     1       5.782   5.007  15.882  0.00  0.00    +0.000 A 
ATOM      6  C   UNL     1       5.409   6.335  16.014  0.00  0.00    +0.000 A 
ATOM      7  C   UNL     1       4.488   6.691  16.997  0.00  0.00    +0.000 A 
ATOM      8  C   UNL     1       3.925   5.732  17.868  0.00  0.00    +0.000 A 
BRANCH   3   9
ATOM      9  O   UNL     1       3.906   3.290  18.457  0.00  0.00    +0.000 OA
BRANCH   9  10
ATOM     10  C   UNL     1       2.936   2.405  17.903  0.00  0.00    +0.000 C 
BRANCH  10  12
ATOM     11  O   UNL     1       0.896   2.399  19.204  0.00  0.00    +0.000 OA
ATOM     12  C   UNL     1       1.532   2.860  18.268  0.00  0.00    +0.000 C 
BRANCH  12  13
ATOM     13  O   UNL     1       1.032   3.802  17.434  0.00  0.00    +0.000 OA
ATOM     14  H   UNL     1       1.051   4.682  17.870  0.00  0.00    +0.000 HD
ENDBRANCH  12  13
ENDBRANCH  10  12
ENDBRANCH   9  10
ENDBRANCH   3   9
ENDBRANCH   1   8
BRANCH   2  15
ATOM     15  N   UNL     1       1.834   7.951  19.881  0.00  0.00    +0.000 N 
ATOM     16  C   UNL     1       1.093   9.101  19.631  0.00  0.00    +0.000 C 
ATOM     17  O   UNL     1       1.010   9.654  18.533  0.00  0.00    +0.000 OA
ATOM     18  H   UNL     1       1.969   7.596  20.815  0.00  0.00    +0.000 HD
BRANCH  16  19
ATOM     19  C   UNL     1       0.390   9.733  20.782  0.00  0.00    +0.000 A 
ATOM     20  C   UNL     1      -0.301  10.929  20.526  0.00  0.00    +0.000 A 
ATOM     21  C   UNL     1      -1.040  11.549  21.531  0.00  0.00    +0.000 A 
ATOM     22  C   UNL     1      -1.089  10.968  22.791  0.00  0.00    +0.000 A 
ATOM     23  F   UNL     1      -1.817  11.547  23.753  0.00  0.00    +0.000 F 
ATOM     24  C   UNL     1      -0.406   9.785  23.065  0.00  0.00    +0.000 A 
ATOM     25  C   UNL     1       0.342   9.159  22.059  0.00  0.00    +0.000 A 
ENDBRANCH  16  19
ENDBRANCH   2  15
TORSDOF 7
ENDMDL
MODEL 5
REMARK VINA RESULT:      -7.7      5.213      6.716
REMARK  Name = 
REMARK  7 active torsions:
REMARK  status: ('A' for Active; 'I' for Inactive)
REMARK    1  A    between atoms: C_2  and  O_3
REMARK    2  A    between atoms: C_2  and  C_4
REMARK    3  A    between atoms: C_4  and  O_5
REMARK    4  A    between atoms: O_5  and  C_6
REMARK    5  A    between atoms: C_11  and  C_12
REMARK    6  A    between atoms: N_13  and  N_14
REMARK    7  A    between atoms: C_15  and  C_17
REMARK                            x       y       z     vdW  Elec       q    Type
REMARK                         _______ _______ _______ _____ _____    ______ ____
ROOT
ATOM      1  C   UNL     1       2.743   7.419  18.144  0.00  0.00    +0.000 C 
ATOM      2  N   UNL     1       2.304   7.456  19.361  0.00  0.00    +0.000 NA
ENDROOT
BRANCH   1   8
ATOM      3  C   UNL     1       3.059   4.878  17.976  0.00  0.00    +0.000 A 
ATOM      4  C   UNL     1       3.855   3.824  17.487  0.00  0.00    +0.000 A 
ATOM      5  C   UNL     1       4.949   4.055  16.648  0.00  0.00    +0.000 A 
ATOM      6  C   UNL     1       5.271   5.353  16.283  0.00  0.00    +0.000 A 
ATOM      7  C   UNL     1       4.501   6.410  16.765  0.00  0.00    +0.000 A 
ATOM      8  C   UNL     1       3.399   6.194  17.622  0.00  0.00    +0.000 A 
BRANCH   3   9
ATOM      9  O   UNL     1       2.068   4.424  18.808  0.00  0.00    +0.000 OA
BRANCH   9  10
ATOM     10  C   UNL     1       2.370   3.359  19.705  0.00  0.00    +0.000 C 
BRANCH  10  12
ATOM     11  O   UNL     1       2.065   3.086  22.090  0.00  0.00    +0.000 OA
ATOM     12  C   UNL     1       2.274   3.834  21.146  0.00  0.00    +0.000 C 
BRANCH  12  13
ATOM     13  O   UNL     1       2.407   5.174  21.287  0.00  0.00    +0.000 OA
ATOM     14  H   UNL     1       1.569   5.624  21.040  0.00  0.00    +0.000 HD
ENDBRANCH  12  13
ENDBRANCH  10  12
ENDBRANCH   9  10
ENDBRANCH   3   9
ENDBRANCH   1   8
BRANCH   2  15
ATOM     15  N   UNL     1       1.647   8.572  19.772  0.00  0.00    +0.000 N 
ATOM     16  C   UNL     1       0.885   8.449  20.929  0.00  0.00    +0.000 C 
ATOM     17  O   UNL     1       0.833   7.435  21.627  0.00  0.00    +0.000 OA
ATOM     18  H   UNL     1       1.574   9.376  19.168  0.00  0.00    +0.000 HD
BRANCH  16  19
ATOM     19  C   UNL     1       0.037   9.608  21.324  0.00  0.00    +0.000 A 
ATOM     20  C   UNL     1      -0.359   9.676  22.669  0.00  0.00    +0.000 A 
ATOM     21  C   UNL     1      -1.097  10.762  23.136  0.00  0.00    +0.000 A 
ATOM     22  C   UNL     1      -1.433  11.780  22.255  0.00  0.00    +0.000 A 
ATOM     23  F   UNL     1      -2.122  12.836  22.704  0.00  0.00    +0.000 F 
ATOM     24  C   UNL     1      -1.055  11.727  20.915  0.00  0.00    +0.000 A 
ATOM     25  C   UNL     1      -0.315  10.635  20.440  0.00  0.00    +0.000 A 
ENDBRANCH  16  19
ENDBRANCH   2  15
TORSDOF 7
ENDMDL
MODEL 6
REMARK VINA RESULT:      -7.7      4.532      5.836
REMARK  Name = 
REMARK  7 active torsions:
REMARK  status: ('A' for Active; 'I' for Inactive)
REMARK    1  A    between atoms: C_2  and  O_3
REMARK    2  A    between atoms: C_2  and  C_4
REMARK    3  A    between atoms: C_4  and  O_5
REMARK    4  A    between atoms: O_5  and  C_6
REMARK    5  A    between atoms: C_11  and  C_12
REMARK    6  A    between atoms: N_13  and  N_14
REMARK    7  A    between atoms: C_15  and  C_17
REMARK                            x       y       z     vdW  Elec       q    Type
REMARK                         _______ _______ _______ _____ _____    ______ ____
ROOT
ATOM      1  C   UNL     1       3.821   7.080  17.962  0.00  0.00    +0.000 C 
ATOM      2  N   UNL     1       2.537   7.228  18.004  0.00  0.00    +0.000 NA
ENDROOT
BRANCH   1   8
ATOM      3  C   UNL     1       4.519   4.651  17.512  0.00  0.00    +0.000 A 
ATOM      4  C   UNL     1       5.229   3.770  16.674  0.00  0.00    +0.000 A 
ATOM      5  C   UNL     1       5.815   4.201  15.481  0.00  0.00    +0.000 A 
ATOM      6  C   UNL     1       5.705   5.530  15.102  0.00  0.00    +0.000 A 
ATOM      7  C   UNL     1       5.015   6.419  15.924  0.00  0.00    +0.000 A 
ATOM      8  C   UNL     1       4.425   6.002  17.138  0.00  0.00    +0.000 A 
BRANCH   3   9
ATOM      9  O   UNL     1       4.063   4.023  18.643  0.00  0.00    +0.000 OA
BRANCH   9  10
ATOM     10  C   UNL     1       2.976   3.111  18.519  0.00  0.00    +0.000 C 
BRANCH  10  12
ATOM     11  O   UNL     1       1.143   4.149  17.329  0.00  0.00    +0.000 OA
ATOM     12  C   UNL     1       1.661   3.862  18.399  0.00  0.00    +0.000 C 
BRANCH  12  13
ATOM     13  O   UNL     1       1.127   4.220  19.590  0.00  0.00    +0.000 OA
ATOM     14  H   UNL     1       0.285   3.738  19.742  0.00  0.00    +0.000 HD
ENDBRANCH  12  13
ENDBRANCH  10  12
ENDBRANCH   9  10
ENDBRANCH   3   9
ENDBRANCH   1   8
BRANCH   2  15
ATOM     15  N   UNL     1       2.034   8.272  18.712  0.00  0.00    +0.000 N 
ATOM     16  C   UNL     1       1.613   7.993  20.008  0.00  0.00    +0.000 C 
ATOM     17  O   UNL     1       1.739   6.901  20.564  0.00  0.00    +0.000 OA
ATOM     18  H   UNL     1       1.810   9.142  18.255  0.00  0.00    +0.000 HD
BRANCH  16  19
ATOM     19  C   UNL     1       0.922   9.079  20.759  0.00  0.00    +0.000 A 
ATOM     20  C   UNL     1       0.333   8.728  21.984  0.00  0.00    +0.000 A 
ATOM     21  C   UNL     1      -0.274   9.697  22.780  0.00  0.00    +0.000 A 
ATOM     22  C   UNL     1      -0.288  11.016  22.349  0.00  0.00    +0.000 A 
ATOM     23  F   UNL     1      -0.850  11.954  23.121  0.00  0.00    +0.000 F 
ATOM     24  C   UNL     1       0.286  11.382  21.133  0.00  0.00    +0.000 A 
ATOM     25  C   UNL     1       0.896  10.411  20.327  0.00  0.00    +0.000 A 
ENDBRANCH  16  19
ENDBRANCH   2  15
TORSDOF 7
ENDMDL
MODEL 7
REMARK VINA RESULT:      -7.6      4.345      5.639
REMARK  Name = 
REMARK  7 active torsions:
REMARK  status: ('A' for Active; 'I' for Inactive)
REMARK    1  A    between atoms: C_2  and  O_3
REMARK    2  A    between atoms: C_2  and  C_4
REMARK    3  A    between atoms: C_4  and  O_5
REMARK    4  A    between atoms: O_5  and  C_6
REMARK    5  A    between atoms: C_11  and  C_12
REMARK    6  A    between atoms: N_13  and  N_14
REMARK    7  A    between atoms: C_15  and  C_17
REMARK                            x       y       z     vdW  Elec       q    Type
REMARK                         _______ _______ _______ _____ _____    ______ ____
ROOT
ATOM      1  C   UNL     1       4.012   6.042  18.704  0.00  0.00    +0.000 C 
ATOM      2  N   UNL     1       2.920   6.652  18.373  0.00  0.00    +0.000 NA
ENDROOT
BRANCH   1   8
ATOM      3  C   UNL     1       4.666   4.452  16.798  0.00  0.00    +0.000 A 
ATOM      4  C   UNL     1       5.689   4.011  15.936  0.00  0.00    +0.000 A 
ATOM      5  C   UNL     1       6.941   4.632  15.901  0.00  0.00    +0.000 A 
ATOM      6  C   UNL     1       7.195   5.711  16.733  0.00  0.00    +0.000 A 
ATOM      7  C   UNL     1       6.199   6.156  17.600  0.00  0.00    +0.000 A 
ATOM      8  C   UNL     1       4.932   5.533  17.655  0.00  0.00    +0.000 A 
BRANCH   3   9
ATOM      9  O   UNL     1       3.541   3.676  16.691  0.00  0.00    +0.000 OA
BRANCH   9  10
ATOM     10  C   UNL     1       3.219   2.798  17.766  0.00  0.00    +0.000 C 
BRANCH  10  12
ATOM     11  O   UNL     1       1.184   2.218  18.939  0.00  0.00    +0.000 OA
ATOM     12  C   UNL     1       1.772   2.986  18.192  0.00  0.00    +0.000 C 
BRANCH  12  13
ATOM     13  O   UNL     1       1.179   4.070  17.639  0.00  0.00    +0.000 OA
ATOM     14  H   UNL     1       0.395   3.794  17.115  0.00  0.00    +0.000 HD
ENDBRANCH  12  13
ENDBRANCH  10  12
ENDBRANCH   9  10
ENDBRANCH   3   9
ENDBRANCH   1   8
BRANCH   2  15
ATOM     15  N   UNL     1       2.146   7.164  19.365  0.00  0.00    +0.000 N 
ATOM     16  C   UNL     1       1.745   8.488  19.215  0.00  0.00    +0.000 C 
ATOM     17  O   UNL     1       1.980   9.181  18.224  0.00  0.00    +0.000 OA
ATOM     18  H   UNL     1       2.034   6.669  20.236  0.00  0.00    +0.000 HD
BRANCH  16  19
ATOM     19  C   UNL     1       1.022   9.123  20.352  0.00  0.00    +0.000 A 
ATOM     20  C   UNL     1       0.751  10.497  20.243  0.00  0.00    +0.000 A 
ATOM     21  C   UNL     1       0.020  11.154  21.231  0.00  0.00    +0.000 A 
ATOM     22  C   UNL     1      -0.441  10.433  22.324  0.00  0.00    +0.000 A 
ATOM     23  F   UNL     1      -1.164  11.055  23.264  0.00  0.00    +0.000 F 
ATOM     24  C   UNL     1      -0.178   9.071  22.451  0.00  0.00    +0.000 A 
ATOM     25  C   UNL     1       0.559   8.406  21.462  0.00  0.00    +0.000 A 
ENDBRANCH  16  19
ENDBRANCH   2  15
TORSDOF 7
ENDMDL
MODEL 8
REMARK VINA RESULT:      -7.6      4.633      5.887
REMARK  Name = 
REMARK  7 active torsions:
REMARK  status: ('A' for Active; 'I' for Inactive)
REMARK    1  A    between atoms: C_2  and  O_3
REMARK    2  A    between atoms: C_2  and  C_4
REMARK    3  A    between atoms: C_4  and  O_5
REMARK    4  A    between atoms: O_5  and  C_6
REMARK    5  A    between atoms: C_11  and  C_12
REMARK    6  A    between atoms: N_13  and  N_14
REMARK    7  A    between atoms: C_15  and  C_17
REMARK                            x       y       z     vdW  Elec       q    Type
REMARK                         _______ _______ _______ _____ _____    ______ ____
ROOT
ATOM      1  C   UNL     1       3.208   6.028  18.457  0.00  0.00    +0.000 C 
ATOM      2  N   UNL     1       2.848   7.269  18.404  0.00  0.00    +0.000 NA
ENDROOT
BRANCH   1   8
ATOM      3  C   UNL     1       4.527   4.125  17.347  0.00  0.00    +0.000 A 
ATOM      4  C   UNL     1       5.481   3.771  16.374  0.00  0.00    +0.000 A 
ATOM      5  C   UNL     1       5.999   4.707  15.475  0.00  0.00    +0.000 A 
ATOM      6  C   UNL     1       5.572   6.025  15.534  0.00  0.00    +0.000 A 
ATOM      7  C   UNL     1       4.635   6.397  16.497  0.00  0.00    +0.000 A 
ATOM      8  C   UNL     1       4.110   5.465  17.419  0.00  0.00    +0.000 A 
BRANCH   3   9
ATOM      9  O   UNL     1       4.189   3.060  18.141  0.00  0.00    +0.000 OA
BRANCH   9  10
ATOM     10  C   UNL     1       3.094   2.240  17.745  0.00  0.00    +0.000 C 
BRANCH  10  12
ATOM     11  O   UNL     1       0.924   3.286  17.968  0.00  0.00    +0.000 OA
ATOM     12  C   UNL     1       1.829   2.646  18.483  0.00  0.00    +0.000 C 
BRANCH  12  13
ATOM     13  O   UNL     1       1.811   2.264  19.782  0.00  0.00    +0.000 OA
ATOM     14  H   UNL     1       1.543   1.321  19.852  0.00  0.00    +0.000 HD
ENDBRANCH  12  13
ENDBRANCH  10  12
ENDBRANCH   9  10
ENDBRANCH   3   9
ENDBRANCH   1   8
BRANCH   2  15
ATOM     15  N   UNL     1       2.082   7.758  19.413  0.00  0.00    +0.000 N 
ATOM     16  C   UNL     1       1.384   8.932  19.146  0.00  0.00    +0.000 C 
ATOM     17  O   UNL     1       1.361   9.497  18.052  0.00  0.00    +0.000 OA
ATOM     18  H   UNL     1       2.169   7.391  20.348  0.00  0.00    +0.000 HD
BRANCH  16  19
ATOM     19  C   UNL     1       0.654   9.573  20.275  0.00  0.00    +0.000 A 
ATOM     20  C   UNL     1       0.261   8.737  21.333  0.00  0.00    +0.000 A 
ATOM     21  C   UNL     1      -0.367   9.268  22.458  0.00  0.00    +0.000 A 
ATOM     22  C   UNL     1      -0.597  10.635  22.523  0.00  0.00    +0.000 A 
ATOM     23  F   UNL     1      -1.178  11.153  23.612  0.00  0.00    +0.000 F 
ATOM     24  C   UNL     1      -0.219  11.479  21.481  0.00  0.00    +0.000 A 
ATOM     25  C   UNL     1       0.410  10.950  20.345  0.00  0.00    +0.000 A 
ENDBRANCH  16  19
ENDBRANCH   2  15
TORSDOF 7
ENDMDL
MODEL 9
REMARK VINA RESULT:      -7.6      4.542      5.640
REMARK  Name = 
REMARK  7 active torsions:
REMARK  status: ('A' for Active; 'I' for Inactive)
REMARK    1  A    between atoms: C_2  and  O_3
REMARK    2  A    between atoms: C_2  and  C_4
REMARK    3  A    between atoms: C_4  and  O_5
REMARK    4  A    between atoms: O_5  and  C_6
REMARK    5  A    between atoms: C_11  and  C_12
REMARK    6  A    between atoms: N_13  and  N_14
REMARK    7  A    between atoms: C_15  and  C_17
REMARK                            x       y       z     vdW  Elec       q    Type
REMARK                         _______ _______ _______ _____ _____    ______ ____
ROOT
ATOM      1  C   UNL     1       3.642   6.144  18.619  0.00  0.00    +0.000 C 
ATOM      2  N   UNL     1       2.777   7.045  18.282  0.00  0.00    +0.000 NA
ENDROOT
BRANCH   1   8
ATOM      3  C   UNL     1       4.386   4.326  16.966  0.00  0.00    +0.000 A 
ATOM      4  C   UNL     1       5.405   3.862  16.113  0.00  0.00    +0.000 A 
ATOM      5  C   UNL     1       6.561   4.610  15.872  0.00  0.00    +0.000 A 
ATOM      6  C   UNL     1       6.721   5.844  16.484  0.00  0.00    +0.000 A 
ATOM      7  C   UNL     1       5.727   6.315  17.340  0.00  0.00    +0.000 A 
ATOM      8  C   UNL     1       4.558   5.567  17.603  0.00  0.00    +0.000 A 
BRANCH   3   9
ATOM      9  O   UNL     1       3.367   3.416  17.085  0.00  0.00    +0.000 OA
BRANCH   9  10
ATOM     10  C   UNL     1       3.623   2.199  17.779  0.00  0.00    +0.000 C 
BRANCH  10  12
ATOM     11  O   UNL     1       2.922   2.940  19.972  0.00  0.00    +0.000 OA
ATOM     12  C   UNL     1       3.796   2.459  19.266  0.00  0.00    +0.000 C 
BRANCH  12  13
ATOM     13  O   UNL     1       5.026   2.141  19.734  0.00  0.00    +0.000 OA
ATOM     14  H   UNL     1       5.008   2.080  20.715  0.00  0.00    +0.000 HD
ENDBRANCH  12  13
ENDBRANCH  10  12
ENDBRANCH   9  10
ENDBRANCH   3   9
ENDBRANCH   1   8
BRANCH   2  15
ATOM     15  N   UNL     1       2.010   7.596  19.259  0.00  0.00    +0.000 N 
ATOM     16  C   UNL     1       1.528   8.878  19.017  0.00  0.00    +0.000 C 
ATOM     17  O   UNL     1       1.688   9.497  17.964  0.00  0.00    +0.000 OA
ATOM     18  H   UNL     1       1.958   7.170  20.171  0.00  0.00    +0.000 HD
BRANCH  16  19
ATOM     19  C   UNL     1       0.810   9.566  20.126  0.00  0.00    +0.000 A 
ATOM     20  C   UNL     1       0.525   8.801  21.268  0.00  0.00    +0.000 A 
ATOM     21  C   UNL     1      -0.084   9.386  22.377  0.00  0.00    +0.000 A 
ATOM     22  C   UNL     1      -0.402  10.737  22.341  0.00  0.00    +0.000 A 
ATOM     23  F   UNL     1      -0.966  11.308  23.412  0.00  0.00    +0.000 F 
ATOM     24  C   UNL     1      -0.131  11.510  21.214  0.00  0.00    +0.000 A 
ATOM     25  C   UNL     1       0.478  10.926  20.095  0.00  0.00    +0.000 A 
ENDBRANCH  16  19
ENDBRANCH   2  15
TORSDOF 7
ENDMDL
