MODEL 1
REMARK VINA RESULT:      -8.0      0.000      0.000
REMARK  Name = 
REMARK  6 active torsions:
REMARK  status: ('A' for Active; 'I' for Inactive)
REMARK    1  A    between atoms: N_1  and  N_2
REMARK    2  A    between atoms: C_3  and  S_4
REMARK    3  A    between atoms: S_4  and  C_5
REMARK    4  A    between atoms: C_5  and  C_6
REMARK    5  A    between atoms: N_8  and  C_9
REMARK    6  A    between atoms: C_17  and  C_18
REMARK                            x       y       z     vdW  Elec       q    Type
REMARK                         _______ _______ _______ _____ _____    ______ ____
ROOT
ATOM      1  N   UNL     1       5.029   5.030  18.205  0.00  0.00    +0.000 N 
ATOM      2  C   UNL     1       5.533   6.094  17.490  0.00  0.00    +0.000 A 
ATOM      3  N   UNL     1       4.572   6.945  17.219  0.00  0.00    +0.000 NA
ATOM      4  N   UNL     1       3.410   6.446  17.775  0.00  0.00    +0.000 NA
ATOM      5  C   UNL     1       3.687   5.313  18.407  0.00  0.00    +0.000 A 
ENDROOT
BRANCH   5   6
ATOM      6  C   UNL     1       2.723   4.480  19.141  0.00  0.00    +0.000 A 
ATOM      7  C   UNL     1       2.677   4.543  20.541  0.00  0.00    +0.000 A 
ATOM      8  C   UNL     1       1.759   3.771  21.264  0.00  0.00    +0.000 A 
ATOM      9  C   UNL     1       0.876   2.926  20.595  0.00  0.00    +0.000 A 
ATOM     10  C   UNL     1       0.918   2.840  19.208  0.00  0.00    +0.000 A 
ATOM     11  C   UNL     1       1.845   3.599  18.488  0.00  0.00    +0.000 A 
ENDBRANCH   5   6
BRANCH   1  12
ATOM     12  N   UNL     1       5.734   3.831  18.615  0.00  0.00    +0.000 N 
ATOM     13  H   UNL     1       6.351   3.507  17.870  0.00  0.00    +0.000 HD
ATOM     14  H   UNL     1       5.084   3.063  18.772  0.00  0.00    +0.000 HD
ENDBRANCH   1  12
BRANCH   2  15
ATOM     15  S   UNL     1       7.180   6.190  16.964  0.00  0.00    +0.000 S 
BRANCH  15  16
ATOM     16  C   UNL     1       8.003   6.921  18.412  0.00  0.00    +0.000 C 
BRANCH  16  17
ATOM     17  C   UNL     1       8.111   8.423  18.196  0.00  0.00    +0.000 C 
ATOM     18  O   UNL     1       7.476   9.004  17.331  0.00  0.00    +0.000 OA
ATOM     19  N   UNL     1       8.974   9.075  19.058  0.00  0.00    +0.000 N 
ATOM     20  H   UNL     1       9.383   8.546  19.823  0.00  0.00    +0.000 HD
BRANCH  19  21
ATOM     21  C   UNL     1       9.211  10.506  19.040  0.00  0.00    +0.000 C 
ATOM     22  C   UNL     1      10.239  10.959  17.999  0.00  0.00    +0.000 C 
ATOM     23  C   UNL     1      10.154  12.479  17.851  0.00  0.00    +0.000 C 
ATOM     24  C   UNL     1      10.320  13.208  19.189  0.00  0.00    +0.000 C 
ATOM     25  C   UNL     1       9.490  12.612  20.332  0.00  0.00    +0.000 C 
ATOM     26  C   UNL     1       9.600  11.091  20.401  0.00  0.00    +0.000 C 
ENDBRANCH  19  21
ENDBRANCH  16  17
ENDBRANCH  15  16
ENDBRANCH   2  15
TORSDOF 6
ENDMDL
MODEL 2
REMARK VINA RESULT:      -8.0      0.299      1.028
REMARK  Name = 
REMARK  6 active torsions:
REMARK  status: ('A' for Active; 'I' for Inactive)
REMARK    1  A    between atoms: N_1  and  N_2
REMARK    2  A    between atoms: C_3  and  S_4
REMARK    3  A    between atoms: S_4  and  C_5
REMARK    4  A    between atoms: C_5  and  C_6
REMARK    5  A    between atoms: N_8  and  C_9
REMARK    6  A    between atoms: C_17  and  C_18
REMARK                            x       y       z     vdW  Elec       q    Type
REMARK                         _______ _______ _______ _____ _____    ______ ____
ROOT
ATOM      1  N   UNL     1       5.016   5.008  18.066  0.00  0.00    +0.000 N 
ATOM      2  C   UNL     1       5.614   6.093  17.462  0.00  0.00    +0.000 A 
ATOM      3  N   UNL     1       4.720   7.023  17.230  0.00  0.00    +0.000 NA
ATOM      4  N   UNL     1       3.507   6.558  17.700  0.00  0.00    +0.000 NA
ATOM      5  C   UNL     1       3.687   5.361  18.244  0.00  0.00    +0.000 A 
ENDROOT
BRANCH   5   6
ATOM      6  C   UNL     1       2.644   4.536  18.869  0.00  0.00    +0.000 A 
ATOM      7  C   UNL     1       2.023   3.522  18.125  0.00  0.00    +0.000 A 
ATOM      8  C   UNL     1       1.037   2.712  18.700  0.00  0.00    +0.000 A 
ATOM      9  C   UNL     1       0.658   2.905  20.026  0.00  0.00    +0.000 A 
ATOM     10  C   UNL     1       1.253   3.915  20.775  0.00  0.00    +0.000 A 
ATOM     11  C   UNL     1       2.225   4.734  20.195  0.00  0.00    +0.000 A 
ENDBRANCH   5   6
BRANCH   1  12
ATOM     12  N   UNL     1       5.628   3.737  18.398  0.00  0.00    +0.000 N 
ATOM     13  H   UNL     1       6.565   3.676  18.000  0.00  0.00    +0.000 HD
ATOM     14  H   UNL     1       5.113   2.965  17.979  0.00  0.00    +0.000 HD
ENDBRANCH   1  12
BRANCH   2  15
ATOM     15  S   UNL     1       7.284   6.123  17.005  0.00  0.00    +0.000 S 
BRANCH  15  16
ATOM     16  C   UNL     1       8.064   6.893  18.456  0.00  0.00    +0.000 C 
BRANCH  16  17
ATOM     17  C   UNL     1       8.165   8.391  18.211  0.00  0.00    +0.000 C 
ATOM     18  O   UNL     1       7.590   8.939  17.284  0.00  0.00    +0.000 OA
ATOM     19  N   UNL     1       8.948   9.080  19.118  0.00  0.00    +0.000 N 
ATOM     20  H   UNL     1       9.305   8.578  19.926  0.00  0.00    +0.000 HD
BRANCH  19  21
ATOM     21  C   UNL     1       9.163  10.514  19.081  0.00  0.00    +0.000 C 
ATOM     22  C   UNL     1      10.148  10.973  18.001  0.00  0.00    +0.000 C 
ATOM     23  C   UNL     1      10.035  12.490  17.845  0.00  0.00    +0.000 C 
ATOM     24  C   UNL     1      10.236  13.233  19.170  0.00  0.00    +0.000 C 
ATOM     25  C   UNL     1       9.456  12.635  20.346  0.00  0.00    +0.000 C 
ATOM     26  C   UNL     1       9.591  11.116  20.423  0.00  0.00    +0.000 C 
ENDBRANCH  19  21
ENDBRANCH  16  17
ENDBRANCH  15  16
ENDBRANCH   2  15
TORSDOF 6
ENDMDL
MODEL 3
REMARK VINA RESULT:      -7.8      4.086      8.053
REMARK  Name = 
REMARK  6 active torsions:
REMARK  status: ('A' for Active; 'I' for Inactive)
REMARK    1  A    between atoms: N_1  and  N_2
REMARK    2  A    between atoms: C_3  and  S_4
REMARK    3  A    between atoms: S_4  and  C_5
REMARK    4  A    between atoms: C_5  and  C_6
REMARK    5  A    between atoms: N_8  and  C_9
REMARK    6  A    between atoms: C_17  and  C_18
REMARK                            x       y       z     vdW  Elec       q    Type
REMARK                         _______ _______ _______ _____ _____    ______ ____
ROOT
ATOM      1  N   UNL     1       6.381   3.897  15.280  0.00  0.00    +0.000 N 
ATOM      2  C   UNL     1       7.122   4.847  15.949  0.00  0.00    +0.000 A 
ATOM      3  N   UNL     1       7.690   5.657  15.088  0.00  0.00    +0.000 NA
ATOM      4  N   UNL     1       7.311   5.249  13.824  0.00  0.00    +0.000 NA
ATOM      5  C   UNL     1       6.488   4.215  13.934  0.00  0.00    +0.000 A 
ENDROOT
BRANCH   5   6
ATOM      6  C   UNL     1       5.852   3.499  12.819  0.00  0.00    +0.000 A 
ATOM      7  C   UNL     1       4.593   3.913  12.357  0.00  0.00    +0.000 A 
ATOM      8  C   UNL     1       3.971   3.259  11.288  0.00  0.00    +0.000 A 
ATOM      9  C   UNL     1       4.599   2.182  10.666  0.00  0.00    +0.000 A 
ATOM     10  C   UNL     1       5.840   1.748  11.120  0.00  0.00    +0.000 A 
ATOM     11  C   UNL     1       6.453   2.392  12.199  0.00  0.00    +0.000 A 
ENDBRANCH   5   6
BRANCH   1  12
ATOM     12  N   UNL     1       5.680   2.764  15.852  0.00  0.00    +0.000 N 
ATOM     13  H   UNL     1       4.789   3.059  16.250  0.00  0.00    +0.000 HD
ATOM     14  H   UNL     1       6.202   2.371  16.633  0.00  0.00    +0.000 HD
ENDBRANCH   1  12
BRANCH   2  15
ATOM     15  S   UNL     1       7.321   4.857  17.669  0.00  0.00    +0.000 S 
BRANCH  15  16
ATOM     16  C   UNL     1       6.353   6.317  18.158  0.00  0.00    +0.000 C 
BRANCH  16  17
ATOM     17  C   UNL     1       4.878   5.946  18.135  0.00  0.00    +0.000 C 
ATOM     18  O   UNL     1       4.067   6.545  17.447  0.00  0.00    +0.000 OA
ATOM     19  N   UNL     1       4.531   4.880  18.944  0.00  0.00    +0.000 N 
ATOM     20  H   UNL     1       5.275   4.360  19.402  0.00  0.00    +0.000 HD
BRANCH  19  21
ATOM     21  C   UNL     1       3.185   4.350  19.056  0.00  0.00    +0.000 C 
ATOM     22  C   UNL     1       2.576   4.475  20.455  0.00  0.00    +0.000 C 
ATOM     23  C   UNL     1       1.075   4.197  20.365  0.00  0.00    +0.000 C 
ATOM     24  C   UNL     1       0.767   2.844  19.715  0.00  0.00    +0.000 C 
ATOM     25  C   UNL     1       1.562   2.572  18.433  0.00  0.00    +0.000 C 
ATOM     26  C   UNL     1       3.046   2.897  18.588  0.00  0.00    +0.000 C 
ENDBRANCH  19  21
ENDBRANCH  16  17
ENDBRANCH  15  16
ENDBRANCH   2  15
TORSDOF 6
ENDMDL
MODEL 4
REMARK VINA RESULT:      -7.8      4.040      8.046
REMARK  Name = 
REMARK  6 active torsions:
REMARK  status: ('A' for Active; 'I' for Inactive)
REMARK    1  A    between atoms: N_1  and  N_2
REMARK    2  A    between atoms: C_3  and  S_4
REMARK    3  A    between atoms: S_4  and  C_5
REMARK    4  A    between atoms: C_5  and  C_6
REMARK    5  A    between atoms: N_8  and  C_9
REMARK    6  A    between atoms: C_17  and  C_18
REMARK                            x       y       z     vdW  Elec       q    Type
REMARK                         _______ _______ _______ _____ _____    ______ ____
ROOT
ATOM      1  N   UNL     1       6.471   3.990  15.353  0.00  0.00    +0.000 N 
ATOM      2  C   UNL     1       7.240   4.919  16.021  0.00  0.00    +0.000 A 
ATOM      3  N   UNL     1       7.845   5.700  15.159  0.00  0.00    +0.000 NA
ATOM      4  N   UNL     1       7.462   5.296  13.895  0.00  0.00    +0.000 NA
ATOM      5  C   UNL     1       6.601   4.293  14.006  0.00  0.00    +0.000 A 
ENDROOT
BRANCH   5   6
ATOM      6  C   UNL     1       5.948   3.591  12.891  0.00  0.00    +0.000 A 
ATOM      7  C   UNL     1       6.625   2.554  12.233  0.00  0.00    +0.000 A 
ATOM      8  C   UNL     1       6.023   1.860  11.178  0.00  0.00    +0.000 A 
ATOM      9  C   UNL     1       4.735   2.195  10.765  0.00  0.00    +0.000 A 
ATOM     10  C   UNL     1       4.054   3.231  11.396  0.00  0.00    +0.000 A 
ATOM     11  C   UNL     1       4.664   3.934  12.439  0.00  0.00    +0.000 A 
ENDBRANCH   5   6
BRANCH   1  12
ATOM     12  N   UNL     1       5.725   2.888  15.928  0.00  0.00    +0.000 N 
ATOM     13  H   UNL     1       6.070   1.998  15.570  0.00  0.00    +0.000 HD
ATOM     14  H   UNL     1       4.747   2.925  15.645  0.00  0.00    +0.000 HD
ENDBRANCH   1  12
BRANCH   2  15
ATOM     15  S   UNL     1       7.425   4.936  17.742  0.00  0.00    +0.000 S 
BRANCH  15  16
ATOM     16  C   UNL     1       6.334   6.307  18.231  0.00  0.00    +0.000 C 
BRANCH  16  17
ATOM     17  C   UNL     1       4.891   5.846  18.095  0.00  0.00    +0.000 C 
ATOM     18  O   UNL     1       4.211   6.114  17.118  0.00  0.00    +0.000 OA
ATOM     19  N   UNL     1       4.415   5.098  19.156  0.00  0.00    +0.000 N 
ATOM     20  H   UNL     1       5.069   4.820  19.883  0.00  0.00    +0.000 HD
BRANCH  19  21
ATOM     21  C   UNL     1       3.076   4.543  19.222  0.00  0.00    +0.000 C 
ATOM     22  C   UNL     1       2.554   4.329  20.646  0.00  0.00    +0.000 C 
ATOM     23  C   UNL     1       1.049   4.065  20.585  0.00  0.00    +0.000 C 
ATOM     24  C   UNL     1       0.696   2.900  19.654  0.00  0.00    +0.000 C 
ATOM     25  C   UNL     1       1.409   2.945  18.298  0.00  0.00    +0.000 C 
ATOM     26  C   UNL     1       2.901   3.240  18.434  0.00  0.00    +0.000 C 
ENDBRANCH  19  21
ENDBRANCH  16  17
ENDBRANCH  15  16
ENDBRANCH   2  15
TORSDOF 6
ENDMDL
MODEL 5
REMARK VINA RESULT:      -7.7      0.831      1.782
REMARK  Name = 
REMARK  6 active torsions:
REMARK  status: ('A' for Active; 'I' for Inactive)
REMARK    1  A    between atoms: N_1  and  N_2
REMARK    2  A    between atoms: C_3  and  S_4
REMARK    3  A    between atoms: S_4  and  C_5
REMARK    4  A    between atoms: C_5  and  C_6
REMARK    5  A    between atoms: N_8  and  C_9
REMARK    6  A    between atoms: C_17  and  C_18
REMARK                            x       y       z     vdW  Elec       q    Type
REMARK                         _______ _______ _______ _____ _____    ______ ____
ROOT
ATOM      1  N   UNL     1       4.903   5.709  18.156  0.00  0.00    +0.000 N 
ATOM      2  C   UNL     1       6.278   5.747  18.077  0.00  0.00    +0.000 A 
ATOM      3  N   UNL     1       6.792   4.749  18.755  0.00  0.00    +0.000 NA
ATOM      4  N   UNL     1       5.741   4.024  19.283  0.00  0.00    +0.000 NA
ATOM      5  C   UNL     1       4.599   4.573  18.891  0.00  0.00    +0.000 A 
ENDROOT
BRANCH   5   6
ATOM      6  C   UNL     1       3.252   4.091  19.229  0.00  0.00    +0.000 A 
ATOM      7  C   UNL     1       2.553   3.288  18.315  0.00  0.00    +0.000 A 
ATOM      8  C   UNL     1       1.275   2.803  18.617  0.00  0.00    +0.000 A 
ATOM      9  C   UNL     1       0.679   3.116  19.837  0.00  0.00    +0.000 A 
ATOM     10  C   UNL     1       1.351   3.923  20.749  0.00  0.00    +0.000 A 
ATOM     11  C   UNL     1       2.620   4.420  20.439  0.00  0.00    +0.000 A 
ENDBRANCH   5   6
BRANCH   1  12
ATOM     12  N   UNL     1       3.964   6.682  17.632  0.00  0.00    +0.000 N 
ATOM     13  H   UNL     1       3.017   6.470  17.948  0.00  0.00    +0.000 HD
ATOM     14  H   UNL     1       3.921   6.633  16.616  0.00  0.00    +0.000 HD
ENDBRANCH   1  12
BRANCH   2  15
ATOM     15  S   UNL     1       7.148   7.011  17.275  0.00  0.00    +0.000 S 
BRANCH  15  16
ATOM     16  C   UNL     1       8.277   7.587  18.579  0.00  0.00    +0.000 C 
BRANCH  16  17
ATOM     17  C   UNL     1       8.451   9.091  18.434  0.00  0.00    +0.000 C 
ATOM     18  O   UNL     1       7.843   9.740  17.598  0.00  0.00    +0.000 OA
ATOM     19  N   UNL     1       9.343   9.663  19.323  0.00  0.00    +0.000 N 
ATOM     20  H   UNL     1       9.728   9.081  20.062  0.00  0.00    +0.000 HD
BRANCH  19  21
ATOM     21  C   UNL     1       9.643  11.082  19.372  0.00  0.00    +0.000 C 
ATOM     22  C   UNL     1      10.653  11.546  18.318  0.00  0.00    +0.000 C 
ATOM     23  C   UNL     1      10.631  13.074  18.255  0.00  0.00    +0.000 C 
ATOM     24  C   UNL     1      10.876  13.721  19.622  0.00  0.00    +0.000 C 
ATOM     25  C   UNL     1      10.061  13.101  20.762  0.00  0.00    +0.000 C 
ATOM     26  C   UNL     1      10.106  11.575  20.747  0.00  0.00    +0.000 C 
ENDBRANCH  19  21
ENDBRANCH  16  17
ENDBRANCH  15  16
ENDBRANCH   2  15
TORSDOF 6
ENDMDL
MODEL 6
REMARK VINA RESULT:      -7.7      4.100      8.058
REMARK  Name = 
REMARK  6 active torsions:
REMARK  status: ('A' for Active; 'I' for Inactive)
REMARK    1  A    between atoms: N_1  and  N_2
REMARK    2  A    between atoms: C_3  and  S_4
REMARK    3  A    between atoms: S_4  and  C_5
REMARK    4  A    between atoms: C_5  and  C_6
REMARK    5  A    between atoms: N_8  and  C_9
REMARK    6  A    between atoms: C_17  and  C_18
REMARK                            x       y       z     vdW  Elec       q    Type
REMARK                         _______ _______ _______ _____ _____    ______ ____
ROOT
ATOM      1  N   UNL     1       6.381   3.913  15.297  0.00  0.00    +0.000 N 
ATOM      2  C   UNL     1       7.130   4.854  15.970  0.00  0.00    +0.000 A 
ATOM      3  N   UNL     1       7.698   5.668  15.114  0.00  0.00    +0.000 NA
ATOM      4  N   UNL     1       7.310   5.273  13.849  0.00  0.00    +0.000 NA
ATOM      5  C   UNL     1       6.483   4.242  13.954  0.00  0.00    +0.000 A 
ENDROOT
BRANCH   5   6
ATOM      6  C   UNL     1       5.837   3.539  12.836  0.00  0.00    +0.000 A 
ATOM      7  C   UNL     1       6.492   2.459  12.226  0.00  0.00    +0.000 A 
ATOM      8  C   UNL     1       5.894   1.763  11.168  0.00  0.00    +0.000 A 
ATOM      9  C   UNL     1       4.635   2.139  10.706  0.00  0.00    +0.000 A 
ATOM     10  C   UNL     1       3.978   3.217  11.289  0.00  0.00    +0.000 A 
ATOM     11  C   UNL     1       4.583   3.922  12.334  0.00  0.00    +0.000 A 
ENDBRANCH   5   6
BRANCH   1  12
ATOM     12  N   UNL     1       5.678   2.778  15.863  0.00  0.00    +0.000 N 
ATOM     13  H   UNL     1       5.200   2.253  15.131  0.00  0.00    +0.000 HD
ATOM     14  H   UNL     1       4.939   3.087  16.492  0.00  0.00    +0.000 HD
ENDBRANCH   1  12
BRANCH   2  15
ATOM     15  S   UNL     1       7.338   4.848  17.689  0.00  0.00    +0.000 S 
BRANCH  15  16
ATOM     16  C   UNL     1       6.205   6.169  18.217  0.00  0.00    +0.000 C 
BRANCH  16  17
ATOM     17  C   UNL     1       4.799   5.594  18.298  0.00  0.00    +0.000 C 
ATOM     18  O   UNL     1       3.883   6.016  17.611  0.00  0.00    +0.000 OA
ATOM     19  N   UNL     1       4.644   4.559  19.201  0.00  0.00    +0.000 N 
ATOM     20  H   UNL     1       5.473   4.187  19.657  0.00  0.00    +0.000 HD
BRANCH  19  21
ATOM     21  C   UNL     1       3.394   3.855  19.422  0.00  0.00    +0.000 C 
ATOM     22  C   UNL     1       2.836   3.161  18.176  0.00  0.00    +0.000 C 
ATOM     23  C   UNL     1       1.725   2.200  18.604  0.00  0.00    +0.000 C 
ATOM     24  C   UNL     1       0.632   2.896  19.422  0.00  0.00    +0.000 C 
ATOM     25  C   UNL     1       1.167   3.813  20.528  0.00  0.00    +0.000 C 
ATOM     26  C   UNL     1       2.290   4.723  20.036  0.00  0.00    +0.000 C 
ENDBRANCH  19  21
ENDBRANCH  16  17
ENDBRANCH  15  16
ENDBRANCH   2  15
TORSDOF 6
ENDMDL
MODEL 7
REMARK VINA RESULT:      -7.7      0.964      1.751
REMARK  Name = 
REMARK  6 active torsions:
REMARK  status: ('A' for Active; 'I' for Inactive)
REMARK    1  A    between atoms: N_1  and  N_2
REMARK    2  A    between atoms: C_3  and  S_4
REMARK    3  A    between atoms: S_4  and  C_5
REMARK    4  A    between atoms: C_5  and  C_6
REMARK    5  A    between atoms: N_8  and  C_9
REMARK    6  A    between atoms: C_17  and  C_18
REMARK                            x       y       z     vdW  Elec       q    Type
REMARK                         _______ _______ _______ _____ _____    ______ ____
ROOT
ATOM      1  N   UNL     1       4.934   5.082  18.424  0.00  0.00    +0.000 N 
ATOM      2  C   UNL     1       5.438   6.187  17.773  0.00  0.00    +0.000 A 
ATOM      3  N   UNL     1       4.455   6.960  17.378  0.00  0.00    +0.000 NA
ATOM      4  N   UNL     1       3.275   6.368  17.786  0.00  0.00    +0.000 NA
ATOM      5  C   UNL     1       3.559   5.257  18.453  0.00  0.00    +0.000 A 
ENDROOT
BRANCH   5   6
ATOM      6  C   UNL     1       2.579   4.347  19.063  0.00  0.00    +0.000 A 
ATOM      7  C   UNL     1       1.859   3.458  18.251  0.00  0.00    +0.000 A 
ATOM      8  C   UNL     1       0.931   2.570  18.807  0.00  0.00    +0.000 A 
ATOM      9  C   UNL     1       0.709   2.560  20.183  0.00  0.00    +0.000 A 
ATOM     10  C   UNL     1       1.403   3.445  21.001  0.00  0.00    +0.000 A 
ATOM     11  C   UNL     1       2.318   4.342  20.443  0.00  0.00    +0.000 A 
ENDBRANCH   5   6
BRANCH   1  12
ATOM     12  N   UNL     1       5.675   3.942  18.926  0.00  0.00    +0.000 N 
ATOM     13  H   UNL     1       6.532   4.247  19.387  0.00  0.00    +0.000 HD
ATOM     14  H   UNL     1       5.985   3.346  18.160  0.00  0.00    +0.000 HD
ENDBRANCH   1  12
BRANCH   2  15
ATOM     15  S   UNL     1       7.125   6.416  17.459  0.00  0.00    +0.000 S 
BRANCH  15  16
ATOM     16  C   UNL     1       7.241   8.222  17.277  0.00  0.00    +0.000 C 
BRANCH  16  17
ATOM     17  C   UNL     1       8.338   8.729  18.200  0.00  0.00    +0.000 C 
ATOM     18  O   UNL     1       8.816   8.038  19.085  0.00  0.00    +0.000 OA
ATOM     19  N   UNL     1       8.754  10.025  17.954  0.00  0.00    +0.000 N 
ATOM     20  H   UNL     1       8.391  10.501  17.133  0.00  0.00    +0.000 HD
BRANCH  19  21
ATOM     21  C   UNL     1       9.801  10.697  18.702  0.00  0.00    +0.000 C 
ATOM     22  C   UNL     1       9.298  11.483  19.916  0.00  0.00    +0.000 C 
ATOM     23  C   UNL     1      10.496  11.856  20.790  0.00  0.00    +0.000 C 
ATOM     24  C   UNL     1      11.576  12.615  20.012  0.00  0.00    +0.000 C 
ATOM     25  C   UNL     1      11.924  11.990  18.657  0.00  0.00    +0.000 C 
ATOM     26  C   UNL     1      10.682  11.617  17.851  0.00  0.00    +0.000 C 
ENDBRANCH  19  21
ENDBRANCH  16  17
ENDBRANCH  15  16
ENDBRANCH   2  15
TORSDOF 6
ENDMDL
MODEL 8
REMARK VINA RESULT:      -7.6      1.009      1.477
REMARK  Name = 
REMARK  6 active torsions:
REMARK  status: ('A' for Active; 'I' for Inactive)
REMARK    1  A    between atoms: N_1  and  N_2
REMARK    2  A    between atoms: C_3  and  S_4
REMARK    3  A    between atoms: S_4  and  C_5
REMARK    4  A    between atoms: C_5  and  C_6
REMARK    5  A    between atoms: N_8  and  C_9
REMARK    6  A    between atoms: C_17  and  C_18
REMARK                            x       y       z     vdW  Elec       q    Type
REMARK                         _______ _______ _______ _____ _____    ______ ____
ROOT
ATOM      1  N   UNL     1       4.900   5.110  18.263  0.00  0.00    +0.000 N 
ATOM      2  C   UNL     1       5.411   6.258  17.697  0.00  0.00    +0.000 A 
ATOM      3  N   UNL     1       4.432   7.062  17.358  0.00  0.00    +0.000 NA
ATOM      4  N   UNL     1       3.249   6.447  17.718  0.00  0.00    +0.000 NA
ATOM      5  C   UNL     1       3.526   5.289  18.302  0.00  0.00    +0.000 A 
ENDROOT
BRANCH   5   6
ATOM      6  C   UNL     1       2.540   4.340  18.841  0.00  0.00    +0.000 A 
ATOM      7  C   UNL     1       2.064   4.504  20.150  0.00  0.00    +0.000 A 
ATOM      8  C   UNL     1       1.116   3.624  20.683  0.00  0.00    +0.000 A 
ATOM      9  C   UNL     1       0.631   2.568  19.914  0.00  0.00    +0.000 A 
ATOM     10  C   UNL     1       1.102   2.382  18.619  0.00  0.00    +0.000 A 
ATOM     11  C   UNL     1       2.062   3.252  18.094  0.00  0.00    +0.000 A 
ENDBRANCH   5   6
BRANCH   1  12
ATOM     12  N   UNL     1       5.635   3.932  18.681  0.00  0.00    +0.000 N 
ATOM     13  H   UNL     1       5.507   3.174  18.011  0.00  0.00    +0.000 HD
ATOM     14  H   UNL     1       5.271   3.571  19.561  0.00  0.00    +0.000 HD
ENDBRANCH   1  12
BRANCH   2  15
ATOM     15  S   UNL     1       7.100   6.501  17.405  0.00  0.00    +0.000 S 
BRANCH  15  16
ATOM     16  C   UNL     1       7.209   8.311  17.267  0.00  0.00    +0.000 C 
BRANCH  16  17
ATOM     17  C   UNL     1       8.326   8.797  18.178  0.00  0.00    +0.000 C 
ATOM     18  O   UNL     1       8.806   8.093  19.052  0.00  0.00    +0.000 OA
ATOM     19  N   UNL     1       8.756  10.088  17.936  0.00  0.00    +0.000 N 
ATOM     20  H   UNL     1       8.388  10.575  17.123  0.00  0.00    +0.000 HD
BRANCH  19  21
ATOM     21  C   UNL     1       9.822  10.741  18.674  0.00  0.00    +0.000 C 
ATOM     22  C   UNL     1       9.345  11.538  19.892  0.00  0.00    +0.000 C 
ATOM     23  C   UNL     1      10.557  11.888  20.756  0.00  0.00    +0.000 C 
ATOM     24  C   UNL     1      11.645  12.625  19.968  0.00  0.00    +0.000 C 
ATOM     25  C   UNL     1      11.969  11.993  18.610  0.00  0.00    +0.000 C 
ATOM     26  C   UNL     1      10.713  11.644  17.815  0.00  0.00    +0.000 C 
ENDBRANCH  19  21
ENDBRANCH  16  17
ENDBRANCH  15  16
ENDBRANCH   2  15
TORSDOF 6
ENDMDL
MODEL 9
REMARK VINA RESULT:      -7.6      5.268      6.849
REMARK  Name = 
REMARK  6 active torsions:
REMARK  status: ('A' for Active; 'I' for Inactive)
REMARK    1  A    between atoms: N_1  and  N_2
REMARK    2  A    between atoms: C_3  and  S_4
REMARK    3  A    between atoms: S_4  and  C_5
REMARK    4  A    between atoms: C_5  and  C_6
REMARK    5  A    between atoms: N_8  and  C_9
REMARK    6  A    between atoms: C_17  and  C_18
REMARK                            x       y       z     vdW  Elec       q    Type
REMARK                         _______ _______ _______ _____ _____    ______ ____
ROOT
ATOM      1  N   UNL     1       3.835   3.188  18.569  0.00  0.00    +0.000 N 
ATOM      2  C   UNL     1       2.618   2.684  18.975  0.00  0.00    +0.000 A 
ATOM      3  N   UNL     1       1.744   2.792  18.003  0.00  0.00    +0.000 NA
ATOM      4  N   UNL     1       2.392   3.363  16.926  0.00  0.00    +0.000 NA
ATOM      5  C   UNL     1       3.664   3.565  17.246  0.00  0.00    +0.000 A 
ENDROOT
BRANCH   5   6
ATOM      6  C   UNL     1       4.691   4.143  16.367  0.00  0.00    +0.000 A 
ATOM      7  C   UNL     1       4.886   5.532  16.348  0.00  0.00    +0.000 A 
ATOM      8  C   UNL     1       5.866   6.108  15.531  0.00  0.00    +0.000 A 
ATOM      9  C   UNL     1       6.663   5.302  14.722  0.00  0.00    +0.000 A 
ATOM     10  C   UNL     1       6.474   3.924  14.716  0.00  0.00    +0.000 A 
ATOM     11  C   UNL     1       5.483   3.352  15.520  0.00  0.00    +0.000 A 
ENDBRANCH   5   6
BRANCH   1  12
ATOM     12  N   UNL     1       5.033   3.346  19.369  0.00  0.00    +0.000 N 
ATOM     13  H   UNL     1       5.372   2.439  19.689  0.00  0.00    +0.000 HD
ATOM     14  H   UNL     1       4.835   3.869  20.220  0.00  0.00    +0.000 HD
ENDBRANCH   1  12
BRANCH   2  15
ATOM     15  S   UNL     1       2.318   2.105  20.579  0.00  0.00    +0.000 S 
BRANCH  15  16
ATOM     16  C   UNL     1       2.387   3.636  21.559  0.00  0.00    +0.000 C 
BRANCH  16  17
ATOM     17  C   UNL     1       1.651   4.728  20.798  0.00  0.00    +0.000 C 
ATOM     18  O   UNL     1       0.486   4.609  20.453  0.00  0.00    +0.000 OA
ATOM     19  N   UNL     1       2.397   5.862  20.537  0.00  0.00    +0.000 N 
ATOM     20  H   UNL     1       3.323   5.936  20.949  0.00  0.00    +0.000 HD
BRANCH  19  21
ATOM     21  C   UNL     1       1.885   7.029  19.843  0.00  0.00    +0.000 C 
ATOM     22  C   UNL     1       2.739   7.477  18.653  0.00  0.00    +0.000 C 
ATOM     23  C   UNL     1       1.939   8.481  17.823  0.00  0.00    +0.000 C 
ATOM     24  C   UNL     1       1.436   9.664  18.657  0.00  0.00    +0.000 C 
ATOM     25  C   UNL     1       0.798   9.261  19.991  0.00  0.00    +0.000 C 
ATOM     26  C   UNL     1       1.637   8.237  20.752  0.00  0.00    +0.000 C 
ENDBRANCH  19  21
ENDBRANCH  16  17
ENDBRANCH  15  16
ENDBRANCH   2  15
TORSDOF 6
ENDMDL
