MODEL 1
REMARK VINA RESULT:      -6.9      0.000      0.000
REMARK  Name = 
REMARK  7 active torsions:
REMARK  status: ('A' for Active; 'I' for Inactive)
REMARK    1  A    between atoms: C_1  and  O_2
REMARK    2  A    between atoms: O_2  and  C_3
REMARK    3  A    between atoms: C_6  and  C_7
REMARK    4  A    between atoms: C_22  and  C_23
REMARK    5  A    between atoms: C_23  and  O_25
REMARK    6  A    between atoms: C_26  and  C_27
REMARK    7  A    between atoms: C_27  and  O_29
REMARK                            x       y       z     vdW  Elec       q    Type
REMARK                         _______ _______ _______ _____ _____    ______ ____
ROOT
ATOM      1  C   UNL     1      -0.932  11.408  20.235  0.00  0.00    +0.000 A 
ATOM      2  C   UNL     1      -1.195  10.859  21.507  0.00  0.00    +0.000 A 
ATOM      3  C   UNL     1      -1.000  11.655  22.626  0.00  0.00    +0.000 A 
ATOM      4  C   UNL     1      -0.854  13.003  22.344  0.00  0.00    +0.000 A 
ATOM      5  C   UNL     1       0.150  13.184  21.415  0.00  0.00    +0.000 A 
ATOM      6  C   UNL     1      -0.056  12.510  20.214  0.00  0.00    +0.000 A 
ATOM      7  C   UNL     1       0.906  14.429  21.516  0.00  0.00    +0.000 C 
ATOM      8  O   UNL     1       1.967  14.421  22.128  0.00  0.00    +0.000 OA
ATOM      9  C   UNL     1       0.427  15.625  20.803  0.00  0.00    +0.000 A 
ATOM     10  C   UNL     1       1.425  16.292  20.064  0.00  0.00    +0.000 A 
ATOM     11  C   UNL     1       1.088  17.320  19.199  0.00  0.00    +0.000 A 
ATOM     12  C   UNL     1      -0.243  17.692  19.087  0.00  0.00    +0.000 A 
ATOM     13  C   UNL     1      -1.222  17.058  19.869  0.00  0.00    +0.000 A 
ATOM     14  C   UNL     1      -0.939  16.001  20.774  0.00  0.00    +0.000 A 
ATOM     15  C   UNL     1      -2.165  15.325  21.574  0.00  0.00    +0.000 C 
ATOM     16  C   UNL     1      -2.577  15.565  23.078  0.00  0.00    +0.000 C 
ATOM     17  C   UNL     1      -3.285  14.178  22.977  0.00  0.00    +0.000 C 
ATOM     18  C   UNL     1      -2.222  13.818  21.929  0.00  0.00    +0.000 C 
ENDROOT
BRANCH   1  22
ATOM     19  C   UNL     1      -3.227  10.692  16.657  0.00  0.00    +0.000 A 
ATOM     20  C   UNL     1      -2.012  10.042  16.857  0.00  0.00    +0.000 A 
ATOM     21  C   UNL     1      -1.308  10.216  18.054  0.00  0.00    +0.000 A 
ATOM     22  C   UNL     1      -1.794  11.049  19.084  0.00  0.00    +0.000 A 
ATOM     23  C   UNL     1      -3.013  11.702  18.848  0.00  0.00    +0.000 A 
ATOM     24  C   UNL     1      -3.714  11.537  17.649  0.00  0.00    +0.000 A 
BRANCH  19  26
ATOM     25  C   UNL     1      -2.952  10.043  14.412  0.00  0.00    +0.000 C 
ATOM     26  O   UNL     1      -3.830  10.474  15.449  0.00  0.00    +0.000 OA
ENDBRANCH  19  26
ENDBRANCH   1  22
BRANCH  16  27
ATOM     27  C   UNL     1      -1.475  15.874  24.110  0.00  0.00    +0.000 C 
ATOM     28  O   UNL     1      -0.981  15.016  24.839  0.00  0.00    +0.000 OA
BRANCH  27  29
ATOM     29  O   UNL     1      -1.004  17.146  24.150  0.00  0.00    +0.000 OA
ATOM     30  H   UNL     1      -0.854  17.614  23.296  0.00  0.00    +0.000 HD
ENDBRANCH  27  29
ENDBRANCH  16  27
BRANCH  17  31
ATOM     31  C   UNL     1      -3.503  13.217  24.133  0.00  0.00    +0.000 C 
ATOM     32  O   UNL     1      -3.625  12.002  24.021  0.00  0.00    +0.000 OA
BRANCH  31  33
ATOM     33  O   UNL     1      -3.518  13.814  25.355  0.00  0.00    +0.000 OA
ATOM     34  H   UNL     1      -4.401  14.122  25.643  0.00  0.00    +0.000 HD
ENDBRANCH  31  33
ENDBRANCH  17  31
TORSDOF 6
ENDMDL
MODEL 2
REMARK VINA RESULT:      -6.8      8.549     11.348
REMARK  Name = 
REMARK  7 active torsions:
REMARK  status: ('A' for Active; 'I' for Inactive)
REMARK    1  A    between atoms: C_1  and  O_2
REMARK    2  A    between atoms: O_2  and  C_3
REMARK    3  A    between atoms: C_6  and  C_7
REMARK    4  A    between atoms: C_22  and  C_23
REMARK    5  A    between atoms: C_23  and  O_25
REMARK    6  A    between atoms: C_26  and  C_27
REMARK    7  A    between atoms: C_27  and  O_29
REMARK                            x       y       z     vdW  Elec       q    Type
REMARK                         _______ _______ _______ _____ _____    ______ ____
ROOT
ATOM      1  C   UNL     1       8.724  14.375  23.386  0.00  0.00    +0.000 A 
ATOM      2  C   UNL     1       8.329  15.723  23.513  0.00  0.00    +0.000 A 
ATOM      3  C   UNL     1       8.567  16.586  22.453  0.00  0.00    +0.000 A 
ATOM      4  C   UNL     1       8.899  15.952  21.268  0.00  0.00    +0.000 A 
ATOM      5  C   UNL     1       9.963  15.098  21.473  0.00  0.00    +0.000 A 
ATOM      6  C   UNL     1       9.734  14.122  22.439  0.00  0.00    +0.000 A 
ATOM      7  C   UNL     1      10.867  14.910  20.341  0.00  0.00    +0.000 C 
ATOM      8  O   UNL     1      11.885  15.588  20.287  0.00  0.00    +0.000 OA
ATOM      9  C   UNL     1      10.582  13.853  19.357  0.00  0.00    +0.000 A 
ATOM     10  C   UNL     1      11.694  13.045  19.044  0.00  0.00    +0.000 A 
ATOM     11  C   UNL     1      11.535  11.900  18.279  0.00  0.00    +0.000 A 
ATOM     12  C   UNL     1      10.271  11.576  17.814  0.00  0.00    +0.000 A 
ATOM     13  C   UNL     1       9.180  12.417  18.085  0.00  0.00    +0.000 A 
ATOM     14  C   UNL     1       9.279  13.603  18.860  0.00  0.00    +0.000 A 
ATOM     15  C   UNL     1       7.937  14.453  19.140  0.00  0.00    +0.000 C 
ATOM     16  C   UNL     1       7.483  15.788  18.434  0.00  0.00    +0.000 C 
ATOM     17  C   UNL     1       6.609  16.020  19.705  0.00  0.00    +0.000 C 
ATOM     18  C   UNL     1       7.669  15.209  20.465  0.00  0.00    +0.000 C 
ENDROOT
BRANCH   1  22
ATOM     19  C   UNL     1       5.937  11.548  25.063  0.00  0.00    +0.000 A 
ATOM     20  C   UNL     1       6.083  11.659  23.683  0.00  0.00    +0.000 A 
ATOM     21  C   UNL     1       7.045  12.521  23.143  0.00  0.00    +0.000 A 
ATOM     22  C   UNL     1       7.884  13.302  23.966  0.00  0.00    +0.000 A 
ATOM     23  C   UNL     1       7.703  13.179  25.351  0.00  0.00    +0.000 A 
ATOM     24  C   UNL     1       6.737  12.325  25.894  0.00  0.00    +0.000 A 
BRANCH  19  26
ATOM     25  C   UNL     1       4.796  10.640  26.909  0.00  0.00    +0.000 C 
ATOM     26  O   UNL     1       4.959  10.695  25.494  0.00  0.00    +0.000 OA
ENDBRANCH  19  26
ENDBRANCH   1  22
BRANCH  16  27
ATOM     27  C   UNL     1       8.562  16.782  17.961  0.00  0.00    +0.000 C 
ATOM     28  O   UNL     1       9.638  16.426  17.486  0.00  0.00    +0.000 OA
BRANCH  27  29
ATOM     29  O   UNL     1       8.257  18.103  18.026  0.00  0.00    +0.000 OA
ATOM     30  H   UNL     1       7.319  18.357  18.191  0.00  0.00    +0.000 HD
ENDBRANCH  27  29
ENDBRANCH  16  27
BRANCH  17  31
ATOM     31  C   UNL     1       6.212  17.376  20.262  0.00  0.00    +0.000 C 
ATOM     32  O   UNL     1       6.784  18.432  20.011  0.00  0.00    +0.000 OA
BRANCH  31  33
ATOM     33  O   UNL     1       5.112  17.346  21.061  0.00  0.00    +0.000 OA
ATOM     34  H   UNL     1       5.268  16.965  21.949  0.00  0.00    +0.000 HD
ENDBRANCH  31  33
ENDBRANCH  17  31
TORSDOF 6
ENDMDL
MODEL 3
REMARK VINA RESULT:      -6.8      7.557     10.909
REMARK  Name = 
REMARK  7 active torsions:
REMARK  status: ('A' for Active; 'I' for Inactive)
REMARK    1  A    between atoms: C_1  and  O_2
REMARK    2  A    between atoms: O_2  and  C_3
REMARK    3  A    between atoms: C_6  and  C_7
REMARK    4  A    between atoms: C_22  and  C_23
REMARK    5  A    between atoms: C_23  and  O_25
REMARK    6  A    between atoms: C_26  and  C_27
REMARK    7  A    between atoms: C_27  and  O_29
REMARK                            x       y       z     vdW  Elec       q    Type
REMARK                         _______ _______ _______ _____ _____    ______ ____
ROOT
ATOM      1  C   UNL     1       1.934   7.823  18.351  0.00  0.00    +0.000 A 
ATOM      2  C   UNL     1       0.961   6.902  17.910  0.00  0.00    +0.000 A 
ATOM      3  C   UNL     1       1.385   5.687  17.392  0.00  0.00    +0.000 A 
ATOM      4  C   UNL     1       2.716   5.397  17.643  0.00  0.00    +0.000 A 
ATOM      5  C   UNL     1       3.515   6.435  17.213  0.00  0.00    +0.000 A 
ATOM      6  C   UNL     1       3.220   7.663  17.801  0.00  0.00    +0.000 A 
ATOM      7  C   UNL     1       4.848   6.072  16.741  0.00  0.00    +0.000 C 
ATOM      8  O   UNL     1       5.020   5.917  15.538  0.00  0.00    +0.000 OA
ATOM      9  C   UNL     1       5.959   5.998  17.703  0.00  0.00    +0.000 A 
ATOM     10  C   UNL     1       7.127   6.668  17.284  0.00  0.00    +0.000 A 
ATOM     11  C   UNL     1       8.188   6.841  18.159  0.00  0.00    +0.000 A 
ATOM     12  C   UNL     1       8.087   6.330  19.443  0.00  0.00    +0.000 A 
ATOM     13  C   UNL     1       6.942   5.617  19.832  0.00  0.00    +0.000 A 
ATOM     14  C   UNL     1       5.825   5.404  18.982  0.00  0.00    +0.000 A 
ATOM     15  C   UNL     1       4.550   4.610  19.571  0.00  0.00    +0.000 C 
ATOM     16  C   UNL     1       4.150   3.107  19.307  0.00  0.00    +0.000 C 
ATOM     17  C   UNL     1       2.709   3.547  19.710  0.00  0.00    +0.000 C 
ATOM     18  C   UNL     1       3.088   4.938  19.179  0.00  0.00    +0.000 C 
ENDROOT
BRANCH   1  22
ATOM     19  C   UNL     1       0.749  10.101  21.812  0.00  0.00    +0.000 A 
ATOM     20  C   UNL     1       1.171   8.782  21.948  0.00  0.00    +0.000 A 
ATOM     21  C   UNL     1       1.631   8.070  20.834  0.00  0.00    +0.000 A 
ATOM     22  C   UNL     1       1.675   8.654  19.550  0.00  0.00    +0.000 A 
ATOM     23  C   UNL     1       1.230   9.979  19.442  0.00  0.00    +0.000 A 
ATOM     24  C   UNL     1       0.762  10.690  20.552  0.00  0.00    +0.000 A 
BRANCH  19  26
ATOM     25  C   UNL     1      -1.116  10.821  23.053  0.00  0.00    +0.000 C 
ATOM     26  O   UNL     1       0.301  10.707  22.954  0.00  0.00    +0.000 OA
ENDBRANCH  19  26
ENDBRANCH   1  22
BRANCH  16  27
ATOM     27  C   UNL     1       4.487   2.478  17.941  0.00  0.00    +0.000 C 
ATOM     28  O   UNL     1       5.074   3.088  17.049  0.00  0.00    +0.000 OA
BRANCH  27  29
ATOM     29  O   UNL     1       4.165   1.171  17.765  0.00  0.00    +0.000 OA
ATOM     30  H   UNL     1       4.817   0.489  18.049  0.00  0.00    +0.000 HD
ENDBRANCH  27  29
ENDBRANCH  16  27
BRANCH  17  31
ATOM     31  C   UNL     1       1.424   2.915  19.204  0.00  0.00    +0.000 C 
ATOM     32  O   UNL     1       1.322   2.270  18.166  0.00  0.00    +0.000 OA
BRANCH  31  33
ATOM     33  O   UNL     1       0.358   3.088  20.031  0.00  0.00    +0.000 OA
ATOM     34  H   UNL     1       0.592   3.194  20.975  0.00  0.00    +0.000 HD
ENDBRANCH  31  33
ENDBRANCH  17  31
TORSDOF 6
ENDMDL
MODEL 4
REMARK VINA RESULT:      -6.7      8.917     11.711
REMARK  Name = 
REMARK  7 active torsions:
REMARK  status: ('A' for Active; 'I' for Inactive)
REMARK    1  A    between atoms: C_1  and  O_2
REMARK    2  A    between atoms: O_2  and  C_3
REMARK    3  A    between atoms: C_6  and  C_7
REMARK    4  A    between atoms: C_22  and  C_23
REMARK    5  A    between atoms: C_23  and  O_25
REMARK    6  A    between atoms: C_26  and  C_27
REMARK    7  A    between atoms: C_27  and  O_29
REMARK                            x       y       z     vdW  Elec       q    Type
REMARK                         _______ _______ _______ _____ _____    ______ ____
ROOT
ATOM      1  C   UNL     1       8.639  14.672  23.064  0.00  0.00    +0.000 A 
ATOM      2  C   UNL     1       8.412  16.063  23.082  0.00  0.00    +0.000 A 
ATOM      3  C   UNL     1       8.873  16.824  22.018  0.00  0.00    +0.000 A 
ATOM      4  C   UNL     1       9.244  16.082  20.909  0.00  0.00    +0.000 A 
ATOM      5  C   UNL     1      10.159  15.116  21.273  0.00  0.00    +0.000 A 
ATOM      6  C   UNL     1       9.702  14.237  22.251  0.00  0.00    +0.000 A 
ATOM      7  C   UNL     1      11.147  14.749  20.262  0.00  0.00    +0.000 C 
ATOM      8  O   UNL     1      12.245  15.289  20.293  0.00  0.00    +0.000 OA
ATOM      9  C   UNL     1      10.832  13.677  19.302  0.00  0.00    +0.000 A 
ATOM     10  C   UNL     1      11.856  12.719  19.156  0.00  0.00    +0.000 A 
ATOM     11  C   UNL     1      11.632  11.559  18.432  0.00  0.00    +0.000 A 
ATOM     12  C   UNL     1      10.394  11.367  17.841  0.00  0.00    +0.000 A 
ATOM     13  C   UNL     1       9.400  12.353  17.947  0.00  0.00    +0.000 A 
ATOM     14  C   UNL     1       9.569  13.562  18.672  0.00  0.00    +0.000 A 
ATOM     15  C   UNL     1       8.327  14.589  18.757  0.00  0.00    +0.000 C 
ATOM     16  C   UNL     1       8.131  15.924  17.942  0.00  0.00    +0.000 C 
ATOM     17  C   UNL     1       7.164  16.340  19.093  0.00  0.00    +0.000 C 
ATOM     18  C   UNL     1       8.021  15.451  20.006  0.00  0.00    +0.000 C 
ENDROOT
BRANCH   1  22
ATOM     19  C   UNL     1       5.974  11.782  24.831  0.00  0.00    +0.000 A 
ATOM     20  C   UNL     1       6.255  12.975  25.490  0.00  0.00    +0.000 A 
ATOM     21  C   UNL     1       7.058  13.946  24.878  0.00  0.00    +0.000 A 
ATOM     22  C   UNL     1       7.608  13.749  23.594  0.00  0.00    +0.000 A 
ATOM     23  C   UNL     1       7.318  12.531  22.962  0.00  0.00    +0.000 A 
ATOM     24  C   UNL     1       6.524  11.556  23.574  0.00  0.00    +0.000 A 
BRANCH  19  26
ATOM     25  C   UNL     1       5.406  10.875  26.927  0.00  0.00    +0.000 C 
ATOM     26  O   UNL     1       5.197  10.889  25.517  0.00  0.00    +0.000 OA
ENDBRANCH  19  26
ENDBRANCH   1  22
BRANCH  16  27
ATOM     27  C   UNL     1       9.375  16.746  17.550  0.00  0.00    +0.000 C 
ATOM     28  O   UNL     1      10.384  16.240  17.063  0.00  0.00    +0.000 OA
BRANCH  27  29
ATOM     29  O   UNL     1       9.300  18.092  17.702  0.00  0.00    +0.000 OA
ATOM     30  H   UNL     1       8.549  18.461  18.221  0.00  0.00    +0.000 HD
ENDBRANCH  27  29
ENDBRANCH  16  27
BRANCH  17  31
ATOM     31  C   UNL     1       6.889  17.767  19.537  0.00  0.00    +0.000 C 
ATOM     32  O   UNL     1       7.747  18.631  19.688  0.00  0.00    +0.000 OA
BRANCH  31  33
ATOM     33  O   UNL     1       5.573  18.044  19.731  0.00  0.00    +0.000 OA
ATOM     34  H   UNL     1       5.001  17.848  18.961  0.00  0.00    +0.000 HD
ENDBRANCH  31  33
ENDBRANCH  17  31
TORSDOF 6
ENDMDL
MODEL 5
REMARK VINA RESULT:      -6.7      0.821      1.206
REMARK  Name = 
REMARK  7 active torsions:
REMARK  status: ('A' for Active; 'I' for Inactive)
REMARK    1  A    between atoms: C_1  and  O_2
REMARK    2  A    between atoms: O_2  and  C_3
REMARK    3  A    between atoms: C_6  and  C_7
REMARK    4  A    between atoms: C_22  and  C_23
REMARK    5  A    between atoms: C_23  and  O_25
REMARK    6  A    between atoms: C_26  and  C_27
REMARK    7  A    between atoms: C_27  and  O_29
REMARK                            x       y       z     vdW  Elec       q    Type
REMARK                         _______ _______ _______ _____ _____    ______ ____
ROOT
ATOM      1  C   UNL     1      -0.753  11.446  20.151  0.00  0.00    +0.000 A 
ATOM      2  C   UNL     1      -1.091  11.130  21.483  0.00  0.00    +0.000 A 
ATOM      3  C   UNL     1      -0.763  12.035  22.482  0.00  0.00    +0.000 A 
ATOM      4  C   UNL     1      -0.404  13.289  22.016  0.00  0.00    +0.000 A 
ATOM      5  C   UNL     1       0.608  13.174  21.087  0.00  0.00    +0.000 A 
ATOM      6  C   UNL     1       0.288  12.379  19.989  0.00  0.00    +0.000 A 
ATOM      7  C   UNL     1       1.556  14.284  21.023  0.00  0.00    +0.000 C 
ATOM      8  O   UNL     1       2.606  14.193  21.646  0.00  0.00    +0.000 OA
ATOM      9  C   UNL     1       1.269  15.428  20.142  0.00  0.00    +0.000 A 
ATOM     10  C   UNL     1       2.356  15.815  19.333  0.00  0.00    +0.000 A 
ATOM     11  C   UNL     1       2.182  16.752  18.327  0.00  0.00    +0.000 A 
ATOM     12  C   UNL     1       0.928  17.312  18.143  0.00  0.00    +0.000 A 
ATOM     13  C   UNL     1      -0.135  16.960  18.991  0.00  0.00    +0.000 A 
ATOM     14  C   UNL     1      -0.018  16.010  20.039  0.00  0.00    +0.000 A 
ATOM     15  C   UNL     1      -1.332  15.658  20.908  0.00  0.00    +0.000 C 
ATOM     16  C   UNL     1      -1.688  16.170  22.356  0.00  0.00    +0.000 C 
ATOM     17  C   UNL     1      -2.611  14.915  22.440  0.00  0.00    +0.000 C 
ATOM     18  C   UNL     1      -1.627  14.245  21.469  0.00  0.00    +0.000 C 
ENDROOT
BRANCH   1  22
ATOM     19  C   UNL     1      -3.219  10.679  16.700  0.00  0.00    +0.000 A 
ATOM     20  C   UNL     1      -1.995  10.034  16.848  0.00  0.00    +0.000 A 
ATOM     21  C   UNL     1      -1.233  10.224  18.008  0.00  0.00    +0.000 A 
ATOM     22  C   UNL     1      -1.669  11.071  19.049  0.00  0.00    +0.000 A 
ATOM     23  C   UNL     1      -2.900  11.718  18.864  0.00  0.00    +0.000 A 
ATOM     24  C   UNL     1      -3.659  11.537  17.704  0.00  0.00    +0.000 A 
BRANCH  19  26
ATOM     25  C   UNL     1      -3.043  10.087  14.430  0.00  0.00    +0.000 C 
ATOM     26  O   UNL     1      -3.881  10.445  15.527  0.00  0.00    +0.000 OA
ENDBRANCH  19  26
ENDBRANCH   1  22
BRANCH  16  27
ATOM     27  C   UNL     1      -0.543  16.442  23.352  0.00  0.00    +0.000 C 
ATOM     28  O   UNL     1       0.026  17.528  23.437  0.00  0.00    +0.000 OA
BRANCH  27  29
ATOM     29  O   UNL     1      -0.212  15.437  24.202  0.00  0.00    +0.000 OA
ATOM     30  H   UNL     1      -0.621  14.553  24.060  0.00  0.00    +0.000 HD
ENDBRANCH  27  29
ENDBRANCH  16  27
BRANCH  17  31
ATOM     31  C   UNL     1      -2.971  14.174  23.717  0.00  0.00    +0.000 C 
ATOM     32  O   UNL     1      -2.685  14.549  24.849  0.00  0.00    +0.000 OA
BRANCH  31  33
ATOM     33  O   UNL     1      -3.693  13.040  23.514  0.00  0.00    +0.000 OA
ATOM     34  H   UNL     1      -4.068  12.954  22.614  0.00  0.00    +0.000 HD
ENDBRANCH  31  33
ENDBRANCH  17  31
TORSDOF 6
ENDMDL
MODEL 6
REMARK VINA RESULT:      -6.7      1.249      1.738
REMARK  Name = 
REMARK  7 active torsions:
REMARK  status: ('A' for Active; 'I' for Inactive)
REMARK    1  A    between atoms: C_1  and  O_2
REMARK    2  A    between atoms: O_2  and  C_3
REMARK    3  A    between atoms: C_6  and  C_7
REMARK    4  A    between atoms: C_22  and  C_23
REMARK    5  A    between atoms: C_23  and  O_25
REMARK    6  A    between atoms: C_26  and  C_27
REMARK    7  A    between atoms: C_27  and  O_29
REMARK                            x       y       z     vdW  Elec       q    Type
REMARK                         _______ _______ _______ _____ _____    ______ ____
ROOT
ATOM      1  C   UNL     1      -0.610  12.014  20.794  0.00  0.00    +0.000 A 
ATOM      2  C   UNL     1      -1.112  11.382  21.951  0.00  0.00    +0.000 A 
ATOM      3  C   UNL     1      -1.453  12.170  23.040  0.00  0.00    +0.000 A 
ATOM      4  C   UNL     1      -1.541  13.523  22.757  0.00  0.00    +0.000 A 
ATOM      5  C   UNL     1      -0.373  13.957  22.166  0.00  0.00    +0.000 A 
ATOM      6  C   UNL     1      -0.046  13.288  20.990  0.00  0.00    +0.000 A 
ATOM      7  C   UNL     1       0.011  15.340  22.436  0.00  0.00    +0.000 C 
ATOM      8  O   UNL     1       0.808  15.561  23.338  0.00  0.00    +0.000 OA
ATOM      9  C   UNL     1      -0.491  16.413  21.560  0.00  0.00    +0.000 A 
ATOM     10  C   UNL     1       0.504  17.313  21.128  0.00  0.00    +0.000 A 
ATOM     11  C   UNL     1       0.218  18.260  20.157  0.00  0.00    +0.000 A 
ATOM     12  C   UNL     1      -1.064  18.316  19.634  0.00  0.00    +0.000 A 
ATOM     13  C   UNL     1      -2.061  17.451  20.111  0.00  0.00    +0.000 A 
ATOM     14  C   UNL     1      -1.832  16.463  21.105  0.00  0.00    +0.000 A 
ATOM     15  C   UNL     1      -3.054  15.498  21.528  0.00  0.00    +0.000 C 
ATOM     16  C   UNL     1      -3.945  15.593  22.826  0.00  0.00    +0.000 C 
ATOM     17  C   UNL     1      -4.252  14.084  22.577  0.00  0.00    +0.000 C 
ATOM     18  C   UNL     1      -2.868  14.010  21.914  0.00  0.00    +0.000 C 
ENDROOT
BRANCH   1  22
ATOM     19  C   UNL     1      -1.964  10.238  17.108  0.00  0.00    +0.000 A 
ATOM     20  C   UNL     1      -2.622  11.343  17.640  0.00  0.00    +0.000 A 
ATOM     21  C   UNL     1      -2.133  11.966  18.795  0.00  0.00    +0.000 A 
ATOM     22  C   UNL     1      -0.976  11.498  19.454  0.00  0.00    +0.000 A 
ATOM     23  C   UNL     1      -0.343  10.375  18.901  0.00  0.00    +0.000 A 
ATOM     24  C   UNL     1      -0.834   9.746  17.753  0.00  0.00    +0.000 A 
BRANCH  19  26
ATOM     25  C   UNL     1      -3.229  10.610  15.159  0.00  0.00    +0.000 C 
ATOM     26  O   UNL     1      -2.528   9.688  15.989  0.00  0.00    +0.000 OA
ENDBRANCH  19  26
ENDBRANCH   1  22
BRANCH  16  27
ATOM     27  C   UNL     1      -3.308  16.120  24.127  0.00  0.00    +0.000 C 
ATOM     28  O   UNL     1      -2.412  16.961  24.141  0.00  0.00    +0.000 OA
BRANCH  27  29
ATOM     29  O   UNL     1      -3.824  15.662  25.297  0.00  0.00    +0.000 OA
ATOM     30  H   UNL     1      -3.248  15.678  26.097  0.00  0.00    +0.000 HD
ENDBRANCH  27  29
ENDBRANCH  16  27
BRANCH  17  31
ATOM     31  C   UNL     1      -4.583  13.066  23.655  0.00  0.00    +0.000 C 
ATOM     32  O   UNL     1      -4.053  13.019  24.760  0.00  0.00    +0.000 OA
BRANCH  31  33
ATOM     33  O   UNL     1      -5.572  12.198  23.313  0.00  0.00    +0.000 OA
ATOM     34  H   UNL     1      -6.257  12.577  22.725  0.00  0.00    +0.000 HD
ENDBRANCH  31  33
ENDBRANCH  17  31
TORSDOF 6
ENDMDL
MODEL 7
REMARK VINA RESULT:      -6.6      1.376      2.088
REMARK  Name = 
REMARK  7 active torsions:
REMARK  status: ('A' for Active; 'I' for Inactive)
REMARK    1  A    between atoms: C_1  and  O_2
REMARK    2  A    between atoms: O_2  and  C_3
REMARK    3  A    between atoms: C_6  and  C_7
REMARK    4  A    between atoms: C_22  and  C_23
REMARK    5  A    between atoms: C_23  and  O_25
REMARK    6  A    between atoms: C_26  and  C_27
REMARK    7  A    between atoms: C_27  and  O_29
REMARK                            x       y       z     vdW  Elec       q    Type
REMARK                         _______ _______ _______ _____ _____    ______ ____
ROOT
ATOM      1  C   UNL     1      -0.341  11.288  19.651  0.00  0.00    +0.000 A 
ATOM      2  C   UNL     1      -0.847  11.018  20.939  0.00  0.00    +0.000 A 
ATOM      3  C   UNL     1      -0.450  11.832  21.990  0.00  0.00    +0.000 A 
ATOM      4  C   UNL     1       0.170  13.006  21.596  0.00  0.00    +0.000 A 
ATOM      5  C   UNL     1       1.223  12.723  20.751  0.00  0.00    +0.000 A 
ATOM      6  C   UNL     1       0.861  12.017  19.606  0.00  0.00    +0.000 A 
ATOM      7  C   UNL     1       2.357  13.641  20.803  0.00  0.00    +0.000 C 
ATOM      8  O   UNL     1       3.314  13.349  21.508  0.00  0.00    +0.000 OA
ATOM      9  C   UNL     1       2.361  14.832  19.938  0.00  0.00    +0.000 A 
ATOM     10  C   UNL     1       3.568  15.027  19.235  0.00  0.00    +0.000 A 
ATOM     11  C   UNL     1       3.655  15.996  18.248  0.00  0.00    +0.000 A 
ATOM     12  C   UNL     1       2.544  16.779  17.979  0.00  0.00    +0.000 A 
ATOM     13  C   UNL     1       1.365  16.613  18.722  0.00  0.00    +0.000 A 
ATOM     14  C   UNL     1       1.215  15.642  19.746  0.00  0.00    +0.000 A 
ATOM     15  C   UNL     1      -0.212  15.522  20.491  0.00  0.00    +0.000 C 
ATOM     16  C   UNL     1      -0.596  16.068  21.919  0.00  0.00    +0.000 C 
ATOM     17  C   UNL     1      -1.734  15.001  21.886  0.00  0.00    +0.000 C 
ATOM     18  C   UNL     1      -0.806  14.179  20.980  0.00  0.00    +0.000 C 
ENDROOT
BRANCH   1  22
ATOM     19  C   UNL     1      -3.128  10.492  16.460  0.00  0.00    +0.000 A 
ATOM     20  C   UNL     1      -3.335  11.562  17.325  0.00  0.00    +0.000 A 
ATOM     21  C   UNL     1      -2.388  11.867  18.310  0.00  0.00    +0.000 A 
ATOM     22  C   UNL     1      -1.210  11.105  18.464  0.00  0.00    +0.000 A 
ATOM     23  C   UNL     1      -1.036  10.024  17.587  0.00  0.00    +0.000 A 
ATOM     24  C   UNL     1      -1.985   9.713  16.607  0.00  0.00    +0.000 A 
BRANCH  19  26
ATOM     25  C   UNL     1      -3.659  10.061  14.208  0.00  0.00    +0.000 C 
ATOM     26  O   UNL     1      -4.117  10.263  15.543  0.00  0.00    +0.000 OA
ENDBRANCH  19  26
ENDBRANCH   1  22
BRANCH  16  27
ATOM     27  C   UNL     1       0.487  16.109  23.015  0.00  0.00    +0.000 C 
ATOM     28  O   UNL     1       1.691  16.123  22.766  0.00  0.00    +0.000 OA
BRANCH  27  29
ATOM     29  O   UNL     1       0.063  16.195  24.302  0.00  0.00    +0.000 OA
ATOM     30  H   UNL     1      -0.157  17.086  24.661  0.00  0.00    +0.000 HD
ENDBRANCH  27  29
ENDBRANCH  16  27
BRANCH  17  31
ATOM     31  C   UNL     1      -2.334  14.319  23.103  0.00  0.00    +0.000 C 
ATOM     32  O   UNL     1      -1.778  14.211  24.191  0.00  0.00    +0.000 OA
BRANCH  31  33
ATOM     33  O   UNL     1      -3.594  13.846  22.910  0.00  0.00    +0.000 OA
ATOM     34  H   UNL     1      -3.989  13.413  23.693  0.00  0.00    +0.000 HD
ENDBRANCH  31  33
ENDBRANCH  17  31
TORSDOF 6
ENDMDL
MODEL 8
REMARK VINA RESULT:      -6.6      1.193      1.434
REMARK  Name = 
REMARK  7 active torsions:
REMARK  status: ('A' for Active; 'I' for Inactive)
REMARK    1  A    between atoms: C_1  and  O_2
REMARK    2  A    between atoms: O_2  and  C_3
REMARK    3  A    between atoms: C_6  and  C_7
REMARK    4  A    between atoms: C_22  and  C_23
REMARK    5  A    between atoms: C_23  and  O_25
REMARK    6  A    between atoms: C_26  and  C_27
REMARK    7  A    between atoms: C_27  and  O_29
REMARK                            x       y       z     vdW  Elec       q    Type
REMARK                         _______ _______ _______ _____ _____    ______ ____
ROOT
ATOM      1  C   UNL     1      -0.652  11.129  19.059  0.00  0.00    +0.000 A 
ATOM      2  C   UNL     1      -0.728  10.554  20.345  0.00  0.00    +0.000 A 
ATOM      3  C   UNL     1      -0.356  11.323  21.438  0.00  0.00    +0.000 A 
ATOM      4  C   UNL     1      -0.236  12.675  21.165  0.00  0.00    +0.000 A 
ATOM      5  C   UNL     1       0.619  12.867  20.099  0.00  0.00    +0.000 A 
ATOM      6  C   UNL     1       0.225  12.222  18.930  0.00  0.00    +0.000 A 
ATOM      7  C   UNL     1       1.398  14.102  20.111  0.00  0.00    +0.000 C 
ATOM      8  O   UNL     1       2.539  14.069  20.555  0.00  0.00    +0.000 OA
ATOM      9  C   UNL     1       0.833  15.318  19.503  0.00  0.00    +0.000 A 
ATOM     10  C   UNL     1       1.718  15.991  18.636  0.00  0.00    +0.000 A 
ATOM     11  C   UNL     1       1.268  17.042  17.853  0.00  0.00    +0.000 A 
ATOM     12  C   UNL     1      -0.059  17.429  17.951  0.00  0.00    +0.000 A 
ATOM     13  C   UNL     1      -0.918  16.788  18.858  0.00  0.00    +0.000 A 
ATOM     14  C   UNL     1      -0.516  15.709  19.688  0.00  0.00    +0.000 A 
ATOM     15  C   UNL     1      -1.617  15.027  20.650  0.00  0.00    +0.000 C 
ATOM     16  C   UNL     1      -1.794  15.237  22.203  0.00  0.00    +0.000 C 
ATOM     17  C   UNL     1      -2.528  13.860  22.182  0.00  0.00    +0.000 C 
ATOM     18  C   UNL     1      -1.640  13.513  20.978  0.00  0.00    +0.000 C 
ENDROOT
BRANCH   1  22
ATOM     19  C   UNL     1      -3.422  10.460  15.825  0.00  0.00    +0.000 A 
ATOM     20  C   UNL     1      -2.291   9.660  15.961  0.00  0.00    +0.000 A 
ATOM     21  C   UNL     1      -1.436   9.828  17.057  0.00  0.00    +0.000 A 
ATOM     22  C   UNL     1      -1.682  10.805  18.044  0.00  0.00    +0.000 A 
ATOM     23  C   UNL     1      -2.821  11.605  17.872  0.00  0.00    +0.000 A 
ATOM     24  C   UNL     1      -3.672  11.445  16.774  0.00  0.00    +0.000 A 
BRANCH  19  26
ATOM     25  C   UNL     1      -3.445   9.948  13.529  0.00  0.00    +0.000 C 
ATOM     26  O   UNL     1      -4.185  10.233  14.713  0.00  0.00    +0.000 OA
ENDBRANCH  19  26
ENDBRANCH   1  22
BRANCH  16  27
ATOM     27  C   UNL     1      -0.545  15.512  23.063  0.00  0.00    +0.000 C 
ATOM     28  O   UNL     1       0.470  16.044  22.619  0.00  0.00    +0.000 OA
BRANCH  27  29
ATOM     29  O   UNL     1      -0.621  15.197  24.382  0.00  0.00    +0.000 OA
ATOM     30  H   UNL     1      -0.445  14.266  24.649  0.00  0.00    +0.000 HD
ENDBRANCH  27  29
ENDBRANCH  16  27
BRANCH  17  31
ATOM     31  C   UNL     1      -2.582  12.876  23.337  0.00  0.00    +0.000 C 
ATOM     32  O   UNL     1      -1.694  12.724  24.170  0.00  0.00    +0.000 OA
BRANCH  31  33
ATOM     33  O   UNL     1      -3.742  12.171  23.412  0.00  0.00    +0.000 OA
ATOM     34  H   UNL     1      -3.636  11.249  23.720  0.00  0.00    +0.000 HD
ENDBRANCH  31  33
ENDBRANCH  17  31
TORSDOF 6
ENDMDL
MODEL 9
REMARK VINA RESULT:      -6.6      1.259      1.736
REMARK  Name = 
REMARK  7 active torsions:
REMARK  status: ('A' for Active; 'I' for Inactive)
REMARK    1  A    between atoms: C_1  and  O_2
REMARK    2  A    between atoms: O_2  and  C_3
REMARK    3  A    between atoms: C_6  and  C_7
REMARK    4  A    between atoms: C_22  and  C_23
REMARK    5  A    between atoms: C_23  and  O_25
REMARK    6  A    between atoms: C_26  and  C_27
REMARK    7  A    between atoms: C_27  and  O_29
REMARK                            x       y       z     vdW  Elec       q    Type
REMARK                         _______ _______ _______ _____ _____    ______ ____
ROOT
ATOM      1  C   UNL     1      -0.397  10.914  19.128  0.00  0.00    +0.000 A 
ATOM      2  C   UNL     1      -0.820  10.335  20.342  0.00  0.00    +0.000 A 
ATOM      3  C   UNL     1      -0.589  11.027  21.522  0.00  0.00    +0.000 A 
ATOM      4  C   UNL     1      -0.233  12.353  21.342  0.00  0.00    +0.000 A 
ATOM      5  C   UNL     1       0.846  12.440  20.487  0.00  0.00    +0.000 A 
ATOM      6  C   UNL     1       0.627  11.875  19.233  0.00  0.00    +0.000 A 
ATOM      7  C   UNL     1       1.764  13.552  20.716  0.00  0.00    +0.000 C 
ATOM      8  O   UNL     1       2.769  13.353  21.386  0.00  0.00    +0.000 OA
ATOM      9  C   UNL     1       1.509  14.845  20.059  0.00  0.00    +0.000 A 
ATOM     10  C   UNL     1       2.639  15.401  19.427  0.00  0.00    +0.000 A 
ATOM     11  C   UNL     1       2.511  16.517  18.616  0.00  0.00    +0.000 A 
ATOM     12  C   UNL     1       1.258  17.085  18.453  0.00  0.00    +0.000 A 
ATOM     13  C   UNL     1       0.148  16.557  19.131  0.00  0.00    +0.000 A 
ATOM     14  C   UNL     1       0.216  15.419  19.977  0.00  0.00    +0.000 A 
ATOM     15  C   UNL     1      -1.146  14.883  20.657  0.00  0.00    +0.000 C 
ATOM     16  C   UNL     1      -1.619  15.092  22.147  0.00  0.00    +0.000 C 
ATOM     17  C   UNL     1      -2.509  13.832  21.912  0.00  0.00    +0.000 C 
ATOM     18  C   UNL     1      -1.440  13.383  20.904  0.00  0.00    +0.000 C 
ENDROOT
BRANCH   1  22
ATOM     19  C   UNL     1      -3.127  10.304  15.849  0.00  0.00    +0.000 A 
ATOM     20  C   UNL     1      -3.098  11.521  16.524  0.00  0.00    +0.000 A 
ATOM     21  C   UNL     1      -2.156  11.744  17.536  0.00  0.00    +0.000 A 
ATOM     22  C   UNL     1      -1.221  10.754  17.907  0.00  0.00    +0.000 A 
ATOM     23  C   UNL     1      -1.284   9.534  17.219  0.00  0.00    +0.000 A 
ATOM     24  C   UNL     1      -2.229   9.305  16.213  0.00  0.00    +0.000 A 
BRANCH  19  26
ATOM     25  C   UNL     1      -3.599   9.994  13.565  0.00  0.00    +0.000 C 
ATOM     26  O   UNL     1      -4.093  10.175  14.890  0.00  0.00    +0.000 OA
ENDBRANCH  19  26
ENDBRANCH   1  22
BRANCH  16  27
ATOM     27  C   UNL     1      -0.556  15.174  23.260  0.00  0.00    +0.000 C 
ATOM     28  O   UNL     1       0.591  15.571  23.062  0.00  0.00    +0.000 OA
BRANCH  27  29
ATOM     29  O   UNL     1      -0.949  14.847  24.517  0.00  0.00    +0.000 OA
ATOM     30  H   UNL     1      -1.395  15.538  25.060  0.00  0.00    +0.000 HD
ENDBRANCH  27  29
ENDBRANCH  16  27
BRANCH  17  31
ATOM     31  C   UNL     1      -2.939  12.847  22.985  0.00  0.00    +0.000 C 
ATOM     32  O   UNL     1      -2.282  12.569  23.984  0.00  0.00    +0.000 OA
BRANCH  31  33
ATOM     33  O   UNL     1      -4.165  12.299  22.776  0.00  0.00    +0.000 OA
ATOM     34  H   UNL     1      -4.146  11.368  22.474  0.00  0.00    +0.000 HD
ENDBRANCH  31  33
ENDBRANCH  17  31
TORSDOF 6
ENDMDL
