MODEL 1
REMARK VINA RESULT:      -7.4      0.000      0.000
REMARK  Name = 
REMARK  8 active torsions:
REMARK  status: ('A' for Active; 'I' for Inactive)
REMARK    1  A    between atoms: C_1  and  O_2
REMARK    2  A    between atoms: O_2  and  C_3
REMARK    3  A    between atoms: C_8  and  C_9
REMARK    4  A    between atoms: C_9  and  N_10
REMARK    5  A    between atoms: N_10  and  C_25
REMARK    6  A    between atoms: C_13  and  N_14
REMARK    7  A    between atoms: C_18  and  C_19
REMARK    8  A    between atoms: C_19  and  O_20
REMARK                            x       y       z     vdW  Elec       q    Type
REMARK                         _______ _______ _______ _____ _____    ______ ____
ROOT
ATOM      1  N   UNL     1       2.598   4.938  19.497  0.00  0.00    +0.000 N 
ATOM      2  C   UNL     1       2.392   6.305  19.199  0.00  0.00    +0.000 A 
ATOM      3  C   UNL     1       2.082   7.207  20.217  0.00  0.00    +0.000 A 
ATOM      4  C   UNL     1       1.735   8.518  19.913  0.00  0.00    +0.000 A 
ATOM      5  N   UNL     1       1.692   8.917  18.637  0.00  0.00    +0.000 NA
ATOM      6  C   UNL     1       2.049   8.008  17.713  0.00  0.00    +0.000 A 
ATOM      7  N   UNL     1       2.418   6.733  17.926  0.00  0.00    +0.000 NA
ENDROOT
BRANCH   4   8
ATOM      8  N   UNL     1       1.414   9.411  20.920  0.00  0.00    +0.000 N 
ATOM      9  C   UNL     1       0.967   8.928  22.226  0.00  0.00    +0.000 C 
ATOM     10  C   UNL     1      -0.459   9.373  22.544  0.00  0.00    +0.000 C 
ATOM     11  C   UNL     1      -0.675  10.860  22.259  0.00  0.00    +0.000 C 
ATOM     12  C   UNL     1      -0.247  11.232  20.831  0.00  0.00    +0.000 C 
ATOM     13  C   UNL     1       1.215  10.822  20.602  0.00  0.00    +0.000 C 
BRANCH  12  14
ATOM     14  C   UNL     1      -1.214  10.640  19.796  0.00  0.00    +0.000 C 
BRANCH  14  15
ATOM     15  O   UNL     1      -0.670  10.727  18.485  0.00  0.00    +0.000 OA
ATOM     16  H   UNL     1      -1.414  10.960  17.899  0.00  0.00    +0.000 HD
ENDBRANCH  14  15
ENDBRANCH  12  14
ENDBRANCH   4   8
BRANCH   1  17
ATOM     17  C   UNL     1       2.045   4.358  20.731  0.00  0.00    +0.000 C 
ATOM     18  C   UNL     1       1.130   3.172  20.814  0.00  0.00    +0.000 C 
ATOM     19  C   UNL     1       2.560   3.040  21.249  0.00  0.00    +0.000 C 
ENDBRANCH   1  17
BRANCH   1  20
ATOM     20  C   UNL     1       3.497   4.143  18.634  0.00  0.00    +0.000 C 
BRANCH  20  26
ATOM     21  C   UNL     1       5.569   4.566  17.178  0.00  0.00    +0.000 A 
ATOM     22  C   UNL     1       6.957   4.767  17.108  0.00  0.00    +0.000 A 
ATOM     23  C   UNL     1       7.657   5.259  18.205  0.00  0.00    +0.000 A 
ATOM     24  C   UNL     1       6.978   5.540  19.384  0.00  0.00    +0.000 A 
ATOM     25  C   UNL     1       5.617   5.242  19.497  0.00  0.00    +0.000 A 
ATOM     26  C   UNL     1       4.893   4.714  18.414  0.00  0.00    +0.000 A 
BRANCH  21  28
ATOM     27  C   UNL     1       5.471   4.436  14.804  0.00  0.00    +0.000 C 
ATOM     28  O   UNL     1       4.838   4.207  16.071  0.00  0.00    +0.000 OA
ENDBRANCH  21  28
ENDBRANCH  20  26
ENDBRANCH   1  20
TORSDOF 7
ENDMDL
MODEL 2
REMARK VINA RESULT:      -7.1      2.190      7.691
REMARK  Name = 
REMARK  8 active torsions:
REMARK  status: ('A' for Active; 'I' for Inactive)
REMARK    1  A    between atoms: C_1  and  O_2
REMARK    2  A    between atoms: O_2  and  C_3
REMARK    3  A    between atoms: C_8  and  C_9
REMARK    4  A    between atoms: C_9  and  N_10
REMARK    5  A    between atoms: N_10  and  C_25
REMARK    6  A    between atoms: C_13  and  N_14
REMARK    7  A    between atoms: C_18  and  C_19
REMARK    8  A    between atoms: C_19  and  O_20
REMARK                            x       y       z     vdW  Elec       q    Type
REMARK                         _______ _______ _______ _____ _____    ______ ____
ROOT
ATOM      1  N   UNL     1       1.649   8.716  19.901  0.00  0.00    +0.000 N 
ATOM      2  C   UNL     1       2.182   7.763  19.003  0.00  0.00    +0.000 A 
ATOM      3  C   UNL     1       1.791   6.426  19.083  0.00  0.00    +0.000 A 
ATOM      4  C   UNL     1       2.418   5.462  18.303  0.00  0.00    +0.000 A 
ATOM      5  N   UNL     1       3.407   5.815  17.475  0.00  0.00    +0.000 NA
ATOM      6  C   UNL     1       3.699   7.126  17.415  0.00  0.00    +0.000 A 
ATOM      7  N   UNL     1       3.126   8.120  18.116  0.00  0.00    +0.000 NA
ENDROOT
BRANCH   4   8
ATOM      8  N   UNL     1       2.040   4.133  18.391  0.00  0.00    +0.000 N 
ATOM      9  C   UNL     1       1.021   3.713  19.351  0.00  0.00    +0.000 C 
ATOM     10  C   UNL     1       1.577   2.738  20.387  0.00  0.00    +0.000 C 
ATOM     11  C   UNL     1       2.405   1.625  19.743  0.00  0.00    +0.000 C 
ATOM     12  C   UNL     1       3.496   2.190  18.821  0.00  0.00    +0.000 C 
ATOM     13  C   UNL     1       2.862   3.104  17.762  0.00  0.00    +0.000 C 
BRANCH  12  14
ATOM     14  C   UNL     1       4.601   2.878  19.635  0.00  0.00    +0.000 C 
BRANCH  14  15
ATOM     15  O   UNL     1       5.476   3.609  18.786  0.00  0.00    +0.000 OA
ATOM     16  H   UNL     1       5.047   3.630  17.910  0.00  0.00    +0.000 HD
ENDBRANCH  14  15
ENDBRANCH  12  14
ENDBRANCH   4   8
BRANCH   1  17
ATOM     17  C   UNL     1       1.077   8.284  21.185  0.00  0.00    +0.000 C 
ATOM     18  C   UNL     1       0.651   9.185  22.307  0.00  0.00    +0.000 C 
ATOM     19  C   UNL     1      -0.388   8.491  21.474  0.00  0.00    +0.000 C 
ENDBRANCH   1  17
BRANCH   1  20
ATOM     20  C   UNL     1       1.539  10.126  19.468  0.00  0.00    +0.000 C 
BRANCH  20  26
ATOM     21  C   UNL     1      -0.592  11.558  19.500  0.00  0.00    +0.000 A 
ATOM     22  C   UNL     1      -1.955  11.676  19.184  0.00  0.00    +0.000 A 
ATOM     23  C   UNL     1      -2.513  10.912  18.165  0.00  0.00    +0.000 A 
ATOM     24  C   UNL     1      -1.719  10.013  17.465  0.00  0.00    +0.000 A 
ATOM     25  C   UNL     1      -0.389   9.811  17.845  0.00  0.00    +0.000 A 
ATOM     26  C   UNL     1       0.191  10.547  18.892  0.00  0.00    +0.000 A 
BRANCH  21  28
ATOM     27  C   UNL     1      -0.688  12.572  21.651  0.00  0.00    +0.000 C 
ATOM     28  O   UNL     1       0.010  12.394  20.410  0.00  0.00    +0.000 OA
ENDBRANCH  21  28
ENDBRANCH  20  26
ENDBRANCH   1  20
TORSDOF 7
ENDMDL
MODEL 3
REMARK VINA RESULT:      -7.1      1.673      2.547
REMARK  Name = 
REMARK  8 active torsions:
REMARK  status: ('A' for Active; 'I' for Inactive)
REMARK    1  A    between atoms: C_1  and  O_2
REMARK    2  A    between atoms: O_2  and  C_3
REMARK    3  A    between atoms: C_8  and  C_9
REMARK    4  A    between atoms: C_9  and  N_10
REMARK    5  A    between atoms: N_10  and  C_25
REMARK    6  A    between atoms: C_13  and  N_14
REMARK    7  A    between atoms: C_18  and  C_19
REMARK    8  A    between atoms: C_19  and  O_20
REMARK                            x       y       z     vdW  Elec       q    Type
REMARK                         _______ _______ _______ _____ _____    ______ ____
ROOT
ATOM      1  N   UNL     1       2.993   5.585  19.867  0.00  0.00    +0.000 N 
ATOM      2  C   UNL     1       2.851   6.827  19.205  0.00  0.00    +0.000 A 
ATOM      3  C   UNL     1       1.903   7.753  19.643  0.00  0.00    +0.000 A 
ATOM      4  C   UNL     1       1.659   8.908  18.911  0.00  0.00    +0.000 A 
ATOM      5  N   UNL     1       2.331   9.133  17.776  0.00  0.00    +0.000 NA
ATOM      6  C   UNL     1       3.261   8.222  17.441  0.00  0.00    +0.000 A 
ATOM      7  N   UNL     1       3.573   7.095  18.104  0.00  0.00    +0.000 NA
ENDROOT
BRANCH   4   8
ATOM      8  N   UNL     1       0.710   9.822  19.336  0.00  0.00    +0.000 N 
ATOM      9  C   UNL     1       0.973  11.257  19.253  0.00  0.00    +0.000 C 
ATOM     10  C   UNL     1       0.986  11.918  20.630  0.00  0.00    +0.000 C 
ATOM     11  C   UNL     1      -0.210  11.493  21.484  0.00  0.00    +0.000 C 
ATOM     12  C   UNL     1      -0.335   9.965  21.565  0.00  0.00    +0.000 C 
ATOM     13  C   UNL     1      -0.415   9.372  20.151  0.00  0.00    +0.000 C 
BRANCH  12  14
ATOM     14  C   UNL     1       0.796   9.365  22.413  0.00  0.00    +0.000 C 
BRANCH  14  15
ATOM     15  O   UNL     1       0.586   9.625  23.795  0.00  0.00    +0.000 OA
ATOM     16  H   UNL     1       0.800  10.568  23.928  0.00  0.00    +0.000 HD
ENDBRANCH  14  15
ENDBRANCH  12  14
ENDBRANCH   4   8
BRANCH   1  17
ATOM     17  C   UNL     1       1.888   5.049  20.678  0.00  0.00    +0.000 C 
ATOM     18  C   UNL     1       0.921   3.983  20.254  0.00  0.00    +0.000 C 
ATOM     19  C   UNL     1       1.980   3.665  21.269  0.00  0.00    +0.000 C 
ENDBRANCH   1  17
BRANCH   1  20
ATOM     20  C   UNL     1       4.308   4.912  19.856  0.00  0.00    +0.000 C 
BRANCH  20  26
ATOM     21  C   UNL     1       6.117   4.587  18.063  0.00  0.00    +0.000 A 
ATOM     22  C   UNL     1       6.437   4.437  16.704  0.00  0.00    +0.000 A 
ATOM     23  C   UNL     1       5.493   3.951  15.805  0.00  0.00    +0.000 A 
ATOM     24  C   UNL     1       4.219   3.626  16.254  0.00  0.00    +0.000 A 
ATOM     25  C   UNL     1       3.860   3.874  17.581  0.00  0.00    +0.000 A 
ATOM     26  C   UNL     1       4.785   4.395  18.503  0.00  0.00    +0.000 A 
BRANCH  21  28
ATOM     27  C   UNL     1       7.758   6.172  18.740  0.00  0.00    +0.000 C 
ATOM     28  O   UNL     1       7.068   4.939  18.990  0.00  0.00    +0.000 OA
ENDBRANCH  21  28
ENDBRANCH  20  26
ENDBRANCH   1  20
TORSDOF 7
ENDMDL
MODEL 4
REMARK VINA RESULT:      -7.0      2.124      7.623
REMARK  Name = 
REMARK  8 active torsions:
REMARK  status: ('A' for Active; 'I' for Inactive)
REMARK    1  A    between atoms: C_1  and  O_2
REMARK    2  A    between atoms: O_2  and  C_3
REMARK    3  A    between atoms: C_8  and  C_9
REMARK    4  A    between atoms: C_9  and  N_10
REMARK    5  A    between atoms: N_10  and  C_25
REMARK    6  A    between atoms: C_13  and  N_14
REMARK    7  A    between atoms: C_18  and  C_19
REMARK    8  A    between atoms: C_19  and  O_20
REMARK                            x       y       z     vdW  Elec       q    Type
REMARK                         _______ _______ _______ _____ _____    ______ ____
ROOT
ATOM      1  N   UNL     1       1.047   9.294  19.735  0.00  0.00    +0.000 N 
ATOM      2  C   UNL     1       1.863   8.328  19.100  0.00  0.00    +0.000 A 
ATOM      3  C   UNL     1       2.150   7.122  19.739  0.00  0.00    +0.000 A 
ATOM      4  C   UNL     1       3.065   6.234  19.187  0.00  0.00    +0.000 A 
ATOM      5  N   UNL     1       3.681   6.540  18.039  0.00  0.00    +0.000 NA
ATOM      6  C   UNL     1       3.320   7.697  17.456  0.00  0.00    +0.000 A 
ATOM      7  N   UNL     1       2.430   8.595  17.912  0.00  0.00    +0.000 NA
ENDROOT
BRANCH   4   8
ATOM      8  N   UNL     1       3.362   5.043  19.826  0.00  0.00    +0.000 N 
ATOM      9  C   UNL     1       4.497   4.231  19.391  0.00  0.00    +0.000 C 
ATOM     10  C   UNL     1       4.058   2.860  18.879  0.00  0.00    +0.000 C 
ATOM     11  C   UNL     1       3.060   2.186  19.823  0.00  0.00    +0.000 C 
ATOM     12  C   UNL     1       1.872   3.104  20.141  0.00  0.00    +0.000 C 
ATOM     13  C   UNL     1       2.379   4.434  20.717  0.00  0.00    +0.000 C 
BRANCH  12  14
ATOM     14  C   UNL     1       0.967   3.278  18.913  0.00  0.00    +0.000 C 
BRANCH  14  15
ATOM     15  O   UNL     1       0.455   2.026  18.478  0.00  0.00    +0.000 OA
ATOM     16  H   UNL     1       0.471   1.441  19.259  0.00  0.00    +0.000 HD
ENDBRANCH  14  15
ENDBRANCH  12  14
ENDBRANCH   4   8
BRANCH   1  17
ATOM     17  C   UNL     1       0.885   9.280  21.197  0.00  0.00    +0.000 C 
ATOM     18  C   UNL     1      -0.045  10.152  21.988  0.00  0.00    +0.000 C 
ATOM     19  C   UNL     1      -0.357   8.694  21.819  0.00  0.00    +0.000 C 
ENDBRANCH   1  17
BRANCH   1  20
ATOM     20  C   UNL     1       0.248  10.217  18.901  0.00  0.00    +0.000 C 
BRANCH  20  26
ATOM     21  C   UNL     1      -0.378  12.699  19.104  0.00  0.00    +0.000 A 
ATOM     22  C   UNL     1      -0.056  14.037  18.827  0.00  0.00    +0.000 A 
ATOM     23  C   UNL     1       1.264  14.413  18.598  0.00  0.00    +0.000 A 
ATOM     24  C   UNL     1       2.268  13.454  18.629  0.00  0.00    +0.000 A 
ATOM     25  C   UNL     1       1.943  12.105  18.796  0.00  0.00    +0.000 A 
ATOM     26  C   UNL     1       0.614  11.694  18.996  0.00  0.00    +0.000 A 
BRANCH  21  28
ATOM     27  C   UNL     1      -2.183  12.966  20.631  0.00  0.00    +0.000 C 
ATOM     28  O   UNL     1      -1.651  12.325  19.462  0.00  0.00    +0.000 OA
ENDBRANCH  21  28
ENDBRANCH  20  26
ENDBRANCH   1  20
TORSDOF 7
ENDMDL
MODEL 5
REMARK VINA RESULT:      -6.9      2.516      7.540
REMARK  Name = 
REMARK  8 active torsions:
REMARK  status: ('A' for Active; 'I' for Inactive)
REMARK    1  A    between atoms: C_1  and  O_2
REMARK    2  A    between atoms: O_2  and  C_3
REMARK    3  A    between atoms: C_8  and  C_9
REMARK    4  A    between atoms: C_9  and  N_10
REMARK    5  A    between atoms: N_10  and  C_25
REMARK    6  A    between atoms: C_13  and  N_14
REMARK    7  A    between atoms: C_18  and  C_19
REMARK    8  A    between atoms: C_19  and  O_20
REMARK                            x       y       z     vdW  Elec       q    Type
REMARK                         _______ _______ _______ _____ _____    ______ ____
ROOT
ATOM      1  N   UNL     1       1.563   8.817  19.798  0.00  0.00    +0.000 N 
ATOM      2  C   UNL     1       2.228   7.972  18.878  0.00  0.00    +0.000 A 
ATOM      3  C   UNL     1       2.025   6.593  18.917  0.00  0.00    +0.000 A 
ATOM      4  C   UNL     1       2.784   5.748  18.116  0.00  0.00    +0.000 A 
ATOM      5  N   UNL     1       3.719   6.258  17.307  0.00  0.00    +0.000 NA
ATOM      6  C   UNL     1       3.827   7.598  17.287  0.00  0.00    +0.000 A 
ATOM      7  N   UNL     1       3.118   8.482  18.010  0.00  0.00    +0.000 NA
ENDROOT
BRANCH   4   8
ATOM      8  N   UNL     1       2.593   4.378  18.163  0.00  0.00    +0.000 N 
ATOM      9  C   UNL     1       1.307   3.794  17.785  0.00  0.00    +0.000 C 
ATOM     10  C   UNL     1       0.643   3.067  18.953  0.00  0.00    +0.000 C 
ATOM     11  C   UNL     1       1.619   2.146  19.688  0.00  0.00    +0.000 C 
ATOM     12  C   UNL     1       2.895   2.890  20.106  0.00  0.00    +0.000 C 
ATOM     13  C   UNL     1       3.550   3.537  18.876  0.00  0.00    +0.000 C 
BRANCH  12  14
ATOM     14  C   UNL     1       2.604   3.889  21.236  0.00  0.00    +0.000 C 
BRANCH  14  15
ATOM     15  O   UNL     1       2.120   3.220  22.393  0.00  0.00    +0.000 OA
ATOM     16  H   UNL     1       2.721   3.469  23.120  0.00  0.00    +0.000 HD
ENDBRANCH  14  15
ENDBRANCH  12  14
ENDBRANCH   4   8
BRANCH   1  17
ATOM     17  C   UNL     1       1.050   8.272  21.064  0.00  0.00    +0.000 C 
ATOM     18  C   UNL     1       0.640   9.072  22.265  0.00  0.00    +0.000 C 
ATOM     19  C   UNL     1      -0.408   8.413  21.418  0.00  0.00    +0.000 C 
ENDBRANCH   1  17
BRANCH   1  20
ATOM     20  C   UNL     1       1.261  10.209  19.404  0.00  0.00    +0.000 C 
BRANCH  20  26
ATOM     21  C   UNL     1      -1.077  11.269  19.350  0.00  0.00    +0.000 A 
ATOM     22  C   UNL     1      -2.416  11.184  18.938  0.00  0.00    +0.000 A 
ATOM     23  C   UNL     1      -2.770  10.407  17.839  0.00  0.00    +0.000 A 
ATOM     24  C   UNL     1      -1.791   9.698  17.155  0.00  0.00    +0.000 A 
ATOM     25  C   UNL     1      -0.474   9.691  17.624  0.00  0.00    +0.000 A 
ATOM     26  C   UNL     1      -0.097  10.441  18.751  0.00  0.00    +0.000 A 
BRANCH  21  28
ATOM     27  C   UNL     1      -1.480  12.104  21.542  0.00  0.00    +0.000 C 
ATOM     28  O   UNL     1      -0.685  12.130  20.347  0.00  0.00    +0.000 OA
ENDBRANCH  21  28
ENDBRANCH  20  26
ENDBRANCH   1  20
TORSDOF 7
ENDMDL
MODEL 6
REMARK VINA RESULT:      -6.8      2.458      7.470
REMARK  Name = 
REMARK  8 active torsions:
REMARK  status: ('A' for Active; 'I' for Inactive)
REMARK    1  A    between atoms: C_1  and  O_2
REMARK    2  A    between atoms: O_2  and  C_3
REMARK    3  A    between atoms: C_8  and  C_9
REMARK    4  A    between atoms: C_9  and  N_10
REMARK    5  A    between atoms: N_10  and  C_25
REMARK    6  A    between atoms: C_13  and  N_14
REMARK    7  A    between atoms: C_18  and  C_19
REMARK    8  A    between atoms: C_19  and  O_20
REMARK                            x       y       z     vdW  Elec       q    Type
REMARK                         _______ _______ _______ _____ _____    ______ ____
ROOT
ATOM      1  N   UNL     1       1.869   8.492  18.803  0.00  0.00    +0.000 N 
ATOM      2  C   UNL     1       2.685   7.526  18.169  0.00  0.00    +0.000 A 
ATOM      3  C   UNL     1       2.426   6.166  18.340  0.00  0.00    +0.000 A 
ATOM      4  C   UNL     1       3.307   5.214  17.841  0.00  0.00    +0.000 A 
ATOM      5  N   UNL     1       4.415   5.603  17.200  0.00  0.00    +0.000 NA
ATOM      6  C   UNL     1       4.576   6.927  17.032  0.00  0.00    +0.000 A 
ATOM      7  N   UNL     1       3.762   7.907  17.461  0.00  0.00    +0.000 NA
ENDROOT
BRANCH   4   8
ATOM      8  N   UNL     1       3.059   3.865  18.021  0.00  0.00    +0.000 N 
ATOM      9  C   UNL     1       1.821   3.266  17.524  0.00  0.00    +0.000 C 
ATOM     10  C   UNL     1       0.963   2.702  18.656  0.00  0.00    +0.000 C 
ATOM     11  C   UNL     1       1.782   1.859  19.634  0.00  0.00    +0.000 C 
ATOM     12  C   UNL     1       3.011   2.622  20.150  0.00  0.00    +0.000 C 
ATOM     13  C   UNL     1       3.865   3.099  18.966  0.00  0.00    +0.000 C 
BRANCH  12  14
ATOM     14  C   UNL     1       2.595   3.759  21.095  0.00  0.00    +0.000 C 
BRANCH  14  15
ATOM     15  O   UNL     1       2.097   3.241  22.323  0.00  0.00    +0.000 OA
ATOM     16  H   UNL     1       2.573   3.717  23.029  0.00  0.00    +0.000 HD
ENDBRANCH  14  15
ENDBRANCH  12  14
ENDBRANCH   4   8
BRANCH   1  17
ATOM     17  C   UNL     1       1.072   8.127  19.984  0.00  0.00    +0.000 C 
ATOM     18  C   UNL     1       1.577   7.399  21.196  0.00  0.00    +0.000 C 
ATOM     19  C   UNL     1       1.260   8.864  21.286  0.00  0.00    +0.000 C 
ENDBRANCH   1  17
BRANCH   1  20
ATOM     20  C   UNL     1       1.714   9.822  18.177  0.00  0.00    +0.000 C 
BRANCH  20  26
ATOM     21  C   UNL     1      -0.014  11.536  18.993  0.00  0.00    +0.000 A 
ATOM     22  C   UNL     1      -1.357  11.835  19.277  0.00  0.00    +0.000 A 
ATOM     23  C   UNL     1      -2.384  11.130  18.658  0.00  0.00    +0.000 A 
ATOM     24  C   UNL     1      -2.078  10.113  17.763  0.00  0.00    +0.000 A 
ATOM     25  C   UNL     1      -0.748   9.737  17.557  0.00  0.00    +0.000 A 
ATOM     26  C   UNL     1       0.308  10.411  18.195  0.00  0.00    +0.000 A 
BRANCH  21  28
ATOM     27  C   UNL     1       0.943  12.608  20.889  0.00  0.00    +0.000 C 
ATOM     28  O   UNL     1       1.013  12.303  19.489  0.00  0.00    +0.000 OA
ENDBRANCH  21  28
ENDBRANCH  20  26
ENDBRANCH   1  20
TORSDOF 7
ENDMDL
MODEL 7
REMARK VINA RESULT:      -6.8      1.652      2.538
REMARK  Name = 
REMARK  8 active torsions:
REMARK  status: ('A' for Active; 'I' for Inactive)
REMARK    1  A    between atoms: C_1  and  O_2
REMARK    2  A    between atoms: O_2  and  C_3
REMARK    3  A    between atoms: C_8  and  C_9
REMARK    4  A    between atoms: C_9  and  N_10
REMARK    5  A    between atoms: N_10  and  C_25
REMARK    6  A    between atoms: C_13  and  N_14
REMARK    7  A    between atoms: C_18  and  C_19
REMARK    8  A    between atoms: C_19  and  O_20
REMARK                            x       y       z     vdW  Elec       q    Type
REMARK                         _______ _______ _______ _____ _____    ______ ____
ROOT
ATOM      1  N   UNL     1       2.849   5.879  19.911  0.00  0.00    +0.000 N 
ATOM      2  C   UNL     1       2.530   7.139  19.354  0.00  0.00    +0.000 A 
ATOM      3  C   UNL     1       1.512   7.915  19.909  0.00  0.00    +0.000 A 
ATOM      4  C   UNL     1       1.097   9.083  19.281  0.00  0.00    +0.000 A 
ATOM      5  N   UNL     1       1.672   9.464  18.134  0.00  0.00    +0.000 NA
ATOM      6  C   UNL     1       2.678   8.693  17.685  0.00  0.00    +0.000 A 
ATOM      7  N   UNL     1       3.152   7.566  18.243  0.00  0.00    +0.000 NA
ENDROOT
BRANCH   4   8
ATOM      8  N   UNL     1       0.078   9.847  19.821  0.00  0.00    +0.000 N 
ATOM      9  C   UNL     1      -1.045  10.280  18.991  0.00  0.00    +0.000 C 
ATOM     10  C   UNL     1      -1.119  11.802  18.876  0.00  0.00    +0.000 C 
ATOM     11  C   UNL     1      -0.972  12.490  20.235  0.00  0.00    +0.000 C 
ATOM     12  C   UNL     1       0.286  12.015  20.977  0.00  0.00    +0.000 C 
ATOM     13  C   UNL     1       0.262  10.486  21.121  0.00  0.00    +0.000 C 
BRANCH  12  14
ATOM     14  C   UNL     1       1.557  12.543  20.297  0.00  0.00    +0.000 C 
BRANCH  14  15
ATOM     15  O   UNL     1       2.415  13.170  21.241  0.00  0.00    +0.000 OA
ATOM     16  H   UNL     1       2.039  14.056  21.402  0.00  0.00    +0.000 HD
ENDBRANCH  14  15
ENDBRANCH  12  14
ENDBRANCH   4   8
BRANCH   1  17
ATOM     17  C   UNL     1       1.861   5.162  20.732  0.00  0.00    +0.000 C 
ATOM     18  C   UNL     1       0.977   4.042  20.268  0.00  0.00    +0.000 C 
ATOM     19  C   UNL     1       2.129   3.748  21.184  0.00  0.00    +0.000 C 
ENDBRANCH   1  17
BRANCH   1  20
ATOM     20  C   UNL     1       4.230   5.366  19.782  0.00  0.00    +0.000 C 
BRANCH  20  26
ATOM     21  C   UNL     1       5.788   5.218  17.747  0.00  0.00    +0.000 A 
ATOM     22  C   UNL     1       5.934   4.977  16.372  0.00  0.00    +0.000 A 
ATOM     23  C   UNL     1       5.005   4.200  15.687  0.00  0.00    +0.000 A 
ATOM     24  C   UNL     1       3.917   3.670  16.368  0.00  0.00    +0.000 A 
ATOM     25  C   UNL     1       3.706   3.993  17.711  0.00  0.00    +0.000 A 
ATOM     26  C   UNL     1       4.611   4.803  18.418  0.00  0.00    +0.000 A 
BRANCH  21  28
ATOM     27  C   UNL     1       7.465   6.905  17.773  0.00  0.00    +0.000 C 
ATOM     28  O   UNL     1       6.758   5.870  18.470  0.00  0.00    +0.000 OA
ENDBRANCH  21  28
ENDBRANCH  20  26
ENDBRANCH   1  20
TORSDOF 7
ENDMDL
MODEL 8
REMARK VINA RESULT:      -6.8      2.212      7.460
REMARK  Name = 
REMARK  8 active torsions:
REMARK  status: ('A' for Active; 'I' for Inactive)
REMARK    1  A    between atoms: C_1  and  O_2
REMARK    2  A    between atoms: O_2  and  C_3
REMARK    3  A    between atoms: C_8  and  C_9
REMARK    4  A    between atoms: C_9  and  N_10
REMARK    5  A    between atoms: N_10  and  C_25
REMARK    6  A    between atoms: C_13  and  N_14
REMARK    7  A    between atoms: C_18  and  C_19
REMARK    8  A    between atoms: C_19  and  O_20
REMARK                            x       y       z     vdW  Elec       q    Type
REMARK                         _______ _______ _______ _____ _____    ______ ____
ROOT
ATOM      1  N   UNL     1       1.846   8.693  18.912  0.00  0.00    +0.000 N 
ATOM      2  C   UNL     1       2.508   7.630  18.254  0.00  0.00    +0.000 A 
ATOM      3  C   UNL     1       2.031   6.325  18.371  0.00  0.00    +0.000 A 
ATOM      4  C   UNL     1       2.757   5.261  17.849  0.00  0.00    +0.000 A 
ATOM      5  N   UNL     1       3.925   5.489  17.237  0.00  0.00    +0.000 NA
ATOM      6  C   UNL     1       4.299   6.774  17.120  0.00  0.00    +0.000 A 
ATOM      7  N   UNL     1       3.645   7.857  17.574  0.00  0.00    +0.000 NA
ENDROOT
BRANCH   4   8
ATOM      8  N   UNL     1       2.292   3.964  17.976  0.00  0.00    +0.000 N 
ATOM      9  C   UNL     1       1.083   3.681  18.748  0.00  0.00    +0.000 C 
ATOM     10  C   UNL     1       1.370   2.789  19.954  0.00  0.00    +0.000 C 
ATOM     11  C   UNL     1       2.240   1.586  19.588  0.00  0.00    +0.000 C 
ATOM     12  C   UNL     1       3.519   2.014  18.855  0.00  0.00    +0.000 C 
ATOM     13  C   UNL     1       3.158   2.846  17.615  0.00  0.00    +0.000 C 
BRANCH  12  14
ATOM     14  C   UNL     1       4.485   2.733  19.809  0.00  0.00    +0.000 C 
BRANCH  14  15
ATOM     15  O   UNL     1       5.499   3.416  19.084  0.00  0.00    +0.000 OA
ATOM     16  H   UNL     1       5.382   4.364  19.283  0.00  0.00    +0.000 HD
ENDBRANCH  14  15
ENDBRANCH  12  14
ENDBRANCH   4   8
BRANCH   1  17
ATOM     17  C   UNL     1       0.979   8.421  20.069  0.00  0.00    +0.000 C 
ATOM     18  C   UNL     1       1.243   7.413  21.149  0.00  0.00    +0.000 C 
ATOM     19  C   UNL     1       1.385   8.876  21.447  0.00  0.00    +0.000 C 
ENDBRANCH   1  17
BRANCH   1  20
ATOM     20  C   UNL     1       1.917  10.051  18.333  0.00  0.00    +0.000 C 
BRANCH  20  26
ATOM     21  C   UNL     1      -0.460  11.019  18.256  0.00  0.00    +0.000 A 
ATOM     22  C   UNL     1      -1.301  12.131  18.419  0.00  0.00    +0.000 A 
ATOM     23  C   UNL     1      -0.922  13.191  19.237  0.00  0.00    +0.000 A 
ATOM     24  C   UNL     1       0.305  13.153  19.887  0.00  0.00    +0.000 A 
ATOM     25  C   UNL     1       1.193  12.102  19.645  0.00  0.00    +0.000 A 
ATOM     26  C   UNL     1       0.849  11.035  18.797  0.00  0.00    +0.000 A 
BRANCH  21  28
ATOM     27  C   UNL     1      -2.126  10.019  16.882  0.00  0.00    +0.000 C 
ATOM     28  O   UNL     1      -0.867   9.905  17.561  0.00  0.00    +0.000 OA
ENDBRANCH  21  28
ENDBRANCH  20  26
ENDBRANCH   1  20
TORSDOF 7
ENDMDL
MODEL 9
REMARK VINA RESULT:      -6.8      2.293      7.615
REMARK  Name = 
REMARK  8 active torsions:
REMARK  status: ('A' for Active; 'I' for Inactive)
REMARK    1  A    between atoms: C_1  and  O_2
REMARK    2  A    between atoms: O_2  and  C_3
REMARK    3  A    between atoms: C_8  and  C_9
REMARK    4  A    between atoms: C_9  and  N_10
REMARK    5  A    between atoms: N_10  and  C_25
REMARK    6  A    between atoms: C_13  and  N_14
REMARK    7  A    between atoms: C_18  and  C_19
REMARK    8  A    between atoms: C_19  and  O_20
REMARK                            x       y       z     vdW  Elec       q    Type
REMARK                         _______ _______ _______ _____ _____    ______ ____
ROOT
ATOM      1  N   UNL     1       1.909   8.499  18.883  0.00  0.00    +0.000 N 
ATOM      2  C   UNL     1       2.590   7.461  18.204  0.00  0.00    +0.000 A 
ATOM      3  C   UNL     1       2.130   6.147  18.288  0.00  0.00    +0.000 A 
ATOM      4  C   UNL     1       2.875   5.106  17.746  0.00  0.00    +0.000 A 
ATOM      5  N   UNL     1       4.043   5.364  17.146  0.00  0.00    +0.000 NA
ATOM      6  C   UNL     1       4.399   6.657  17.061  0.00  0.00    +0.000 A 
ATOM      7  N   UNL     1       3.727   7.719  17.536  0.00  0.00    +0.000 NA
ENDROOT
BRANCH   4   8
ATOM      8  N   UNL     1       2.428   3.800  17.839  0.00  0.00    +0.000 N 
ATOM      9  C   UNL     1       1.154   3.496  18.491  0.00  0.00    +0.000 C 
ATOM     10  C   UNL     1       1.339   2.621  19.729  0.00  0.00    +0.000 C 
ATOM     11  C   UNL     1       2.267   1.434  19.463  0.00  0.00    +0.000 C 
ATOM     12  C   UNL     1       3.603   1.885  18.855  0.00  0.00    +0.000 C 
ATOM     13  C   UNL     1       3.349   2.698  17.577  0.00  0.00    +0.000 C 
BRANCH  12  14
ATOM     14  C   UNL     1       4.454   2.633  19.892  0.00  0.00    +0.000 C 
BRANCH  14  15
ATOM     15  O   UNL     1       5.521   3.331  19.264  0.00  0.00    +0.000 OA
ATOM     16  H   UNL     1       5.158   3.690  18.433  0.00  0.00    +0.000 HD
ENDBRANCH  14  15
ENDBRANCH  12  14
ENDBRANCH   4   8
BRANCH   1  17
ATOM     17  C   UNL     1       1.040   8.187  20.028  0.00  0.00    +0.000 C 
ATOM     18  C   UNL     1       1.410   7.338  21.209  0.00  0.00    +0.000 C 
ATOM     19  C   UNL     1       1.292   8.826  21.370  0.00  0.00    +0.000 C 
ENDBRANCH   1  17
BRANCH   1  20
ATOM     20  C   UNL     1       1.965   9.871  18.336  0.00  0.00    +0.000 C 
BRANCH  20  26
ATOM     21  C   UNL     1       0.523  11.894  18.983  0.00  0.00    +0.000 A 
ATOM     22  C   UNL     1      -0.752  12.406  19.276  0.00  0.00    +0.000 A 
ATOM     23  C   UNL     1      -1.895  11.775  18.796  0.00  0.00    +0.000 A 
ATOM     24  C   UNL     1      -1.774  10.620  18.033  0.00  0.00    +0.000 A 
ATOM     25  C   UNL     1      -0.518  10.044  17.829  0.00  0.00    +0.000 A 
ATOM     26  C   UNL     1       0.651  10.644  18.330  0.00  0.00    +0.000 A 
BRANCH  21  28
ATOM     27  C   UNL     1       1.809  13.885  18.776  0.00  0.00    +0.000 C 
ATOM     28  O   UNL     1       1.667  12.570  19.332  0.00  0.00    +0.000 OA
ENDBRANCH  21  28
ENDBRANCH  20  26
ENDBRANCH   1  20
TORSDOF 7
ENDMDL
