MODEL 1
REMARK VINA RESULT:      -7.4      0.000      0.000
REMARK  Name = 
REMARK  3 active torsions:
REMARK  status: ('A' for Active; 'I' for Inactive)
REMARK    1  A    between atoms: C_1  and  C_2
REMARK    2  A    between atoms: N_4  and  C_5
REMARK    3  A    between atoms: C_12  and  C_13
REMARK                            x       y       z     vdW  Elec       q    Type
REMARK                         _______ _______ _______ _____ _____    ______ ____
ROOT
ATOM      1  C   UNL     1       6.766   4.384  13.744  0.00  0.00    +0.000 C 
ATOM      2  C   UNL     1       6.721   4.934  15.116  0.00  0.00    +0.000 A 
ATOM      3  N   UNL     1       7.578   5.887  15.540  0.00  0.00    +0.000 NA
ATOM      4  N   UNL     1       7.111   6.054  16.818  0.00  0.00    +0.000 N 
ATOM      5  C   UNL     1       7.779   6.963  17.714  0.00  0.00    +0.000 C 
ATOM      6  C   UNL     1       6.032   5.277  17.166  0.00  0.00    +0.000 A 
ATOM      7  N   UNL     1       5.284   5.178  18.285  0.00  0.00    +0.000 NA
ATOM      8  C   UNL     1       4.381   4.227  18.073  0.00  0.00    +0.000 A 
ATOM      9  N   UNL     1       3.412   3.861  18.962  0.00  0.00    +0.000 N 
ATOM     10  C   UNL     1       2.906   2.495  19.030  0.00  0.00    +0.000 C 
ATOM     11  C   UNL     1       1.381   2.553  19.081  0.00  0.00    +0.000 C 
ATOM     12  C   UNL     1       0.885   3.442  20.230  0.00  0.00    +0.000 C 
ATOM     13  C   UNL     1       1.586   4.810  20.235  0.00  0.00    +0.000 C 
ATOM     14  C   UNL     1       3.113   4.692  20.121  0.00  0.00    +0.000 C 
ATOM     15  S   UNL     1       4.444   3.490  16.454  0.00  0.00    +0.000 S 
ATOM     16  C   UNL     1       5.762   4.512  16.085  0.00  0.00    +0.000 A 
ENDROOT
BRANCH  12  17
ATOM     17  C   UNL     1       1.060   2.758  21.525  0.00  0.00    +0.000 C 
ATOM     18  N   UNL     1       1.187   2.214  22.538  0.00  0.00    +0.000 NA
ENDBRANCH  12  17
TORSDOF 1
ENDMDL
MODEL 2
REMARK VINA RESULT:      -6.5      4.634      6.673
REMARK  Name = 
REMARK  3 active torsions:
REMARK  status: ('A' for Active; 'I' for Inactive)
REMARK    1  A    between atoms: C_1  and  C_2
REMARK    2  A    between atoms: N_4  and  C_5
REMARK    3  A    between atoms: C_12  and  C_13
REMARK                            x       y       z     vdW  Elec       q    Type
REMARK                         _______ _______ _______ _____ _____    ______ ____
ROOT
ATOM      1  C   UNL     1       0.435  11.944  18.842  0.00  0.00    +0.000 C 
ATOM      2  C   UNL     1       0.462  10.936  19.923  0.00  0.00    +0.000 A 
ATOM      3  N   UNL     1      -0.088  11.161  21.135  0.00  0.00    +0.000 NA
ATOM      4  N   UNL     1       0.177   9.954  21.729  0.00  0.00    +0.000 N 
ATOM      5  C   UNL     1      -0.184   9.736  23.106  0.00  0.00    +0.000 C 
ATOM      6  C   UNL     1       0.829   9.033  20.944  0.00  0.00    +0.000 A 
ATOM      7  N   UNL     1       1.226   7.759  21.145  0.00  0.00    +0.000 NA
ATOM      8  C   UNL     1       1.849   7.360  20.042  0.00  0.00    +0.000 A 
ATOM      9  N   UNL     1       2.359   6.110  19.845  0.00  0.00    +0.000 N 
ATOM     10  C   UNL     1       3.535   5.881  19.014  0.00  0.00    +0.000 C 
ATOM     11  C   UNL     1       3.241   4.707  18.083  0.00  0.00    +0.000 C 
ATOM     12  C   UNL     1       2.797   3.461  18.863  0.00  0.00    +0.000 C 
ATOM     13  C   UNL     1       1.681   3.787  19.869  0.00  0.00    +0.000 C 
ATOM     14  C   UNL     1       2.006   5.013  20.737  0.00  0.00    +0.000 C 
ATOM     15  S   UNL     1       1.899   8.571  18.738  0.00  0.00    +0.000 S 
ATOM     16  C   UNL     1       1.056   9.648  19.761  0.00  0.00    +0.000 A 
ENDROOT
BRANCH  12  17
ATOM     17  C   UNL     1       3.950   2.839  19.542  0.00  0.00    +0.000 C 
ATOM     18  N   UNL     1       4.851   2.340  20.069  0.00  0.00    +0.000 NA
ENDBRANCH  12  17
TORSDOF 1
ENDMDL
MODEL 3
REMARK VINA RESULT:      -6.4      4.157      5.418
REMARK  Name = 
REMARK  3 active torsions:
REMARK  status: ('A' for Active; 'I' for Inactive)
REMARK    1  A    between atoms: C_1  and  C_2
REMARK    2  A    between atoms: N_4  and  C_5
REMARK    3  A    between atoms: C_12  and  C_13
REMARK                            x       y       z     vdW  Elec       q    Type
REMARK                         _______ _______ _______ _____ _____    ______ ____
ROOT
ATOM      1  C   UNL     1       3.683   2.348  18.651  0.00  0.00    +0.000 C 
ATOM      2  C   UNL     1       3.880   3.707  18.103  0.00  0.00    +0.000 A 
ATOM      3  N   UNL     1       4.665   3.947  17.031  0.00  0.00    +0.000 NA
ATOM      4  N   UNL     1       4.490   5.303  16.925  0.00  0.00    +0.000 N 
ATOM      5  C   UNL     1       5.209   6.044  15.920  0.00  0.00    +0.000 C 
ATOM      6  C   UNL     1       3.646   5.870  17.850  0.00  0.00    +0.000 A 
ATOM      7  N   UNL     1       3.203   7.128  18.050  0.00  0.00    +0.000 NA
ATOM      8  C   UNL     1       2.423   7.106  19.126  0.00  0.00    +0.000 A 
ATOM      9  N   UNL     1       1.752   8.185  19.624  0.00  0.00    +0.000 N 
ATOM     10  C   UNL     1       1.480   8.332  21.049  0.00  0.00    +0.000 C 
ATOM     11  C   UNL     1       0.017   8.736  21.216  0.00  0.00    +0.000 C 
ATOM     12  C   UNL     1      -0.321   9.992  20.402  0.00  0.00    +0.000 C 
ATOM     13  C   UNL     1       0.156   9.872  18.946  0.00  0.00    +0.000 C 
ATOM     14  C   UNL     1       1.615   9.404  18.838  0.00  0.00    +0.000 C 
ATOM     15  S   UNL     1       2.213   5.497  19.858  0.00  0.00    +0.000 S 
ATOM     16  C   UNL     1       3.245   4.860  18.655  0.00  0.00    +0.000 A 
ENDROOT
BRANCH  12  17
ATOM     17  C   UNL     1       0.249  11.193  21.043  0.00  0.00    +0.000 C 
ATOM     18  N   UNL     1       0.706  12.127  21.549  0.00  0.00    +0.000 NA
ENDBRANCH  12  17
TORSDOF 1
ENDMDL
MODEL 4
REMARK VINA RESULT:      -5.9      4.387      5.998
REMARK  Name = 
REMARK  3 active torsions:
REMARK  status: ('A' for Active; 'I' for Inactive)
REMARK    1  A    between atoms: C_1  and  C_2
REMARK    2  A    between atoms: N_4  and  C_5
REMARK    3  A    between atoms: C_12  and  C_13
REMARK                            x       y       z     vdW  Elec       q    Type
REMARK                         _______ _______ _______ _____ _____    ______ ____
ROOT
ATOM      1  C   UNL     1       3.369   2.508  20.303  0.00  0.00    +0.000 C 
ATOM      2  C   UNL     1       3.644   3.652  19.409  0.00  0.00    +0.000 A 
ATOM      3  N   UNL     1       4.489   3.561  18.358  0.00  0.00    +0.000 NA
ATOM      4  N   UNL     1       4.371   4.836  17.867  0.00  0.00    +0.000 N 
ATOM      5  C   UNL     1       5.165   5.246  16.737  0.00  0.00    +0.000 C 
ATOM      6  C   UNL     1       3.506   5.660  18.546  0.00  0.00    +0.000 A 
ATOM      7  N   UNL     1       3.103   6.935  18.360  0.00  0.00    +0.000 NA
ATOM      8  C   UNL     1       2.273   7.235  19.353  0.00  0.00    +0.000 A 
ATOM      9  N   UNL     1       1.621   8.426  19.489  0.00  0.00    +0.000 N 
ATOM     10  C   UNL     1       1.287   8.975  20.799  0.00  0.00    +0.000 C 
ATOM     11  C   UNL     1      -0.165   9.444  20.763  0.00  0.00    +0.000 C 
ATOM     12  C   UNL     1      -0.416  10.428  19.611  0.00  0.00    +0.000 C 
ATOM     13  C   UNL     1       0.125   9.890  18.276  0.00  0.00    +0.000 C 
ATOM     14  C   UNL     1       1.569   9.377  18.387  0.00  0.00    +0.000 C 
ATOM     15  S   UNL     1       1.966   5.903  20.494  0.00  0.00    +0.000 S 
ATOM     16  C   UNL     1       3.029   4.929  19.578  0.00  0.00    +0.000 A 
ENDROOT
BRANCH  12  17
ATOM     17  C   UNL     1       0.169  11.747  19.921  0.00  0.00    +0.000 C 
ATOM     18  N   UNL     1       0.617  12.784  20.170  0.00  0.00    +0.000 NA
ENDBRANCH  12  17
TORSDOF 1
ENDMDL
MODEL 5
REMARK VINA RESULT:      -5.9      4.526      7.024
REMARK  Name = 
REMARK  3 active torsions:
REMARK  status: ('A' for Active; 'I' for Inactive)
REMARK    1  A    between atoms: C_1  and  C_2
REMARK    2  A    between atoms: N_4  and  C_5
REMARK    3  A    between atoms: C_12  and  C_13
REMARK                            x       y       z     vdW  Elec       q    Type
REMARK                         _______ _______ _______ _____ _____    ______ ____
ROOT
ATOM      1  C   UNL     1      -0.906  11.454  18.374  0.00  0.00    +0.000 C 
ATOM      2  C   UNL     1      -0.306  10.545  19.373  0.00  0.00    +0.000 A 
ATOM      3  N   UNL     1      -0.689  10.541  20.669  0.00  0.00    +0.000 NA
ATOM      4  N   UNL     1       0.123   9.540  21.138  0.00  0.00    +0.000 N 
ATOM      5  C   UNL     1       0.113   9.205  22.539  0.00  0.00    +0.000 C 
ATOM      6  C   UNL     1       0.942   8.949  20.206  0.00  0.00    +0.000 A 
ATOM      7  N   UNL     1       1.833   7.937  20.264  0.00  0.00    +0.000 NA
ATOM      8  C   UNL     1       2.368   7.812  19.055  0.00  0.00    +0.000 A 
ATOM      9  N   UNL     1       3.286   6.865  18.704  0.00  0.00    +0.000 N 
ATOM     10  C   UNL     1       4.301   7.116  17.688  0.00  0.00    +0.000 C 
ATOM     11  C   UNL     1       4.337   5.916  16.744  0.00  0.00    +0.000 C 
ATOM     12  C   UNL     1       4.554   4.601  17.505  0.00  0.00    +0.000 C 
ATOM     13  C   UNL     1       3.585   4.464  18.691  0.00  0.00    +0.000 C 
ATOM     14  C   UNL     1       3.546   5.723  19.571  0.00  0.00    +0.000 C 
ATOM     15  S   UNL     1       1.721   8.936  17.836  0.00  0.00    +0.000 S 
ATOM     16  C   UNL     1       0.709   9.597  19.042  0.00  0.00    +0.000 A 
ENDROOT
BRANCH  12  17
ATOM     17  C   UNL     1       5.955   4.490  17.956  0.00  0.00    +0.000 C 
ATOM     18  N   UNL     1       7.051   4.413  18.317  0.00  0.00    +0.000 NA
ENDBRANCH  12  17
TORSDOF 1
ENDMDL
MODEL 6
REMARK VINA RESULT:      -5.8      2.221      3.620
REMARK  Name = 
REMARK  3 active torsions:
REMARK  status: ('A' for Active; 'I' for Inactive)
REMARK    1  A    between atoms: C_1  and  C_2
REMARK    2  A    between atoms: N_4  and  C_5
REMARK    3  A    between atoms: C_12  and  C_13
REMARK                            x       y       z     vdW  Elec       q    Type
REMARK                         _______ _______ _______ _____ _____    ______ ____
ROOT
ATOM      1  C   UNL     1       8.913   5.884  12.949  0.00  0.00    +0.000 C 
ATOM      2  C   UNL     1       7.708   5.035  13.060  0.00  0.00    +0.000 A 
ATOM      3  N   UNL     1       7.287   4.243  12.049  0.00  0.00    +0.000 NA
ATOM      4  N   UNL     1       6.194   3.676  12.652  0.00  0.00    +0.000 N 
ATOM      5  C   UNL     1       5.354   2.770  11.910  0.00  0.00    +0.000 C 
ATOM      6  C   UNL     1       5.955   4.068  13.947  0.00  0.00    +0.000 A 
ATOM      7  N   UNL     1       5.027   3.722  14.864  0.00  0.00    +0.000 NA
ATOM      8  C   UNL     1       5.254   4.452  15.950  0.00  0.00    +0.000 A 
ATOM      9  N   UNL     1       4.546   4.357  17.114  0.00  0.00    +0.000 N 
ATOM     10  C   UNL     1       4.343   5.507  17.986  0.00  0.00    +0.000 C 
ATOM     11  C   UNL     1       4.638   5.076  19.421  0.00  0.00    +0.000 C 
ATOM     12  C   UNL     1       3.806   3.852  19.828  0.00  0.00    +0.000 C 
ATOM     13  C   UNL     1       3.896   2.729  18.781  0.00  0.00    +0.000 C 
ATOM     14  C   UNL     1       3.651   3.233  17.351  0.00  0.00    +0.000 C 
ATOM     15  S   UNL     1       6.659   5.539  15.835  0.00  0.00    +0.000 S 
ATOM     16  C   UNL     1       6.911   4.977  14.242  0.00  0.00    +0.000 A 
ENDROOT
BRANCH  12  17
ATOM     17  C   UNL     1       2.401   4.236  20.064  0.00  0.00    +0.000 C 
ATOM     18  N   UNL     1       1.302   4.538  20.262  0.00  0.00    +0.000 NA
ENDBRANCH  12  17
TORSDOF 1
ENDMDL
MODEL 7
REMARK VINA RESULT:      -5.6      4.215      5.664
REMARK  Name = 
REMARK  3 active torsions:
REMARK  status: ('A' for Active; 'I' for Inactive)
REMARK    1  A    between atoms: C_1  and  C_2
REMARK    2  A    between atoms: N_4  and  C_5
REMARK    3  A    between atoms: C_12  and  C_13
REMARK                            x       y       z     vdW  Elec       q    Type
REMARK                         _______ _______ _______ _____ _____    ______ ____
ROOT
ATOM      1  C   UNL     1       6.610   4.528  17.397  0.00  0.00    +0.000 C 
ATOM      2  C   UNL     1       5.409   4.513  18.258  0.00  0.00    +0.000 A 
ATOM      3  N   UNL     1       5.097   3.459  19.044  0.00  0.00    +0.000 NA
ATOM      4  N   UNL     1       3.956   3.947  19.628  0.00  0.00    +0.000 N 
ATOM      5  C   UNL     1       3.203   3.119  20.535  0.00  0.00    +0.000 C 
ATOM      6  C   UNL     1       3.587   5.216  19.249  0.00  0.00    +0.000 A 
ATOM      7  N   UNL     1       2.578   6.034  19.613  0.00  0.00    +0.000 NA
ATOM      8  C   UNL     1       2.690   7.144  18.891  0.00  0.00    +0.000 A 
ATOM      9  N   UNL     1       1.872   8.231  19.004  0.00  0.00    +0.000 N 
ATOM     10  C   UNL     1       1.572   9.089  17.863  0.00  0.00    +0.000 C 
ATOM     11  C   UNL     1       1.729  10.542  18.305  0.00  0.00    +0.000 C 
ATOM     12  C   UNL     1       0.874  10.855  19.541  0.00  0.00    +0.000 C 
ATOM     13  C   UNL     1       1.079   9.813  20.653  0.00  0.00    +0.000 C 
ATOM     14  C   UNL     1       0.969   8.370  20.139  0.00  0.00    +0.000 C 
ATOM     15  S   UNL     1       4.087   7.176  17.789  0.00  0.00    +0.000 S 
ATOM     16  C   UNL     1       4.500   5.611  18.334  0.00  0.00    +0.000 A 
ENDROOT
BRANCH  12  17
ATOM     17  C   UNL     1      -0.551  10.955  19.172  0.00  0.00    +0.000 C 
ATOM     18  N   UNL     1      -1.668  11.046  18.886  0.00  0.00    +0.000 NA
ENDBRANCH  12  17
TORSDOF 1
ENDMDL
MODEL 8
REMARK VINA RESULT:      -5.6      4.944      7.513
REMARK  Name = 
REMARK  3 active torsions:
REMARK  status: ('A' for Active; 'I' for Inactive)
REMARK    1  A    between atoms: C_1  and  C_2
REMARK    2  A    between atoms: N_4  and  C_5
REMARK    3  A    between atoms: C_12  and  C_13
REMARK                            x       y       z     vdW  Elec       q    Type
REMARK                         _______ _______ _______ _____ _____    ______ ____
ROOT
ATOM      1  C   UNL     1      -0.616  10.065  23.102  0.00  0.00    +0.000 C 
ATOM      2  C   UNL     1      -0.284  10.159  21.665  0.00  0.00    +0.000 A 
ATOM      3  N   UNL     1      -0.745  11.158  20.881  0.00  0.00    +0.000 NA
ATOM      4  N   UNL     1      -0.150  10.806  19.697  0.00  0.00    +0.000 N 
ATOM      5  C   UNL     1      -0.409  11.574  18.506  0.00  0.00    +0.000 C 
ATOM      6  C   UNL     1       0.639   9.680  19.737  0.00  0.00    +0.000 A 
ATOM      7  N   UNL     1       1.398   9.048  18.818  0.00  0.00    +0.000 NA
ATOM      8  C   UNL     1       1.919   7.977  19.406  0.00  0.00    +0.000 A 
ATOM      9  N   UNL     1       2.781   7.103  18.808  0.00  0.00    +0.000 N 
ATOM     10  C   UNL     1       2.814   5.689  19.165  0.00  0.00    +0.000 C 
ATOM     11  C   UNL     1       4.272   5.279  19.356  0.00  0.00    +0.000 C 
ATOM     12  C   UNL     1       5.122   5.613  18.122  0.00  0.00    +0.000 C 
ATOM     13  C   UNL     1       4.912   7.065  17.663  0.00  0.00    +0.000 C 
ATOM     14  C   UNL     1       3.426   7.439  17.546  0.00  0.00    +0.000 C 
ATOM     15  S   UNL     1       1.490   7.788  21.123  0.00  0.00    +0.000 S 
ATOM     16  C   UNL     1       0.556   9.213  21.003  0.00  0.00    +0.000 A 
ENDROOT
BRANCH  12  17
ATOM     17  C   UNL     1       4.835   4.669  17.025  0.00  0.00    +0.000 C 
ATOM     18  N   UNL     1       4.603   3.938  16.159  0.00  0.00    +0.000 NA
ENDBRANCH  12  17
TORSDOF 1
ENDMDL
MODEL 9
REMARK VINA RESULT:      -5.6      3.679      6.708
REMARK  Name = 
REMARK  3 active torsions:
REMARK  status: ('A' for Active; 'I' for Inactive)
REMARK    1  A    between atoms: C_1  and  C_2
REMARK    2  A    between atoms: N_4  and  C_5
REMARK    3  A    between atoms: C_12  and  C_13
REMARK                            x       y       z     vdW  Elec       q    Type
REMARK                         _______ _______ _______ _____ _____    ______ ____
ROOT
ATOM      1  C   UNL     1       0.383   8.119  21.876  0.00  0.00    +0.000 C 
ATOM      2  C   UNL     1       0.969   8.600  20.607  0.00  0.00    +0.000 A 
ATOM      3  N   UNL     1       0.760   9.852  20.145  0.00  0.00    +0.000 NA
ATOM      4  N   UNL     1       1.513   9.796  19.000  0.00  0.00    +0.000 N 
ATOM      5  C   UNL     1       1.548  10.925  18.107  0.00  0.00    +0.000 C 
ATOM      6  C   UNL     1       2.160   8.605  18.770  0.00  0.00    +0.000 A 
ATOM      7  N   UNL     1       2.997   8.178  17.802  0.00  0.00    +0.000 NA
ATOM      8  C   UNL     1       3.292   6.910  18.065  0.00  0.00    +0.000 A 
ATOM      9  N   UNL     1       4.148   6.141  17.332  0.00  0.00    +0.000 N 
ATOM     10  C   UNL     1       3.969   4.699  17.202  0.00  0.00    +0.000 C 
ATOM     11  C   UNL     1       5.320   4.028  17.437  0.00  0.00    +0.000 C 
ATOM     12  C   UNL     1       6.403   4.590  16.506  0.00  0.00    +0.000 C 
ATOM     13  C   UNL     1       6.431   6.127  16.529  0.00  0.00    +0.000 C 
ATOM     14  C   UNL     1       5.036   6.746  16.348  0.00  0.00    +0.000 C 
ATOM     15  S   UNL     1       2.551   6.268  19.551  0.00  0.00    +0.000 S 
ATOM     16  C   UNL     1       1.808   7.787  19.788  0.00  0.00    +0.000 A 
ENDROOT
BRANCH  12  17
ATOM     17  C   UNL     1       6.215   4.089  15.131  0.00  0.00    +0.000 C 
ATOM     18  N   UNL     1       6.059   3.688  14.058  0.00  0.00    +0.000 NA
ENDBRANCH  12  17
TORSDOF 1
ENDMDL
