MODEL 1
REMARK VINA RESULT:      -7.5      0.000      0.000
REMARK  Name = 
REMARK  8 active torsions:
REMARK  status: ('A' for Active; 'I' for Inactive)
REMARK    1  A    between atoms: C_1  and  C_2
REMARK    2  A    between atoms: C_6  and  N_7
REMARK    3  A    between atoms: N_7  and  C_8
REMARK    4  A    between atoms: C_14  and  C_15
REMARK    5  A    between atoms: C_16  and  C_17
REMARK    6  A    between atoms: N_19  and  C_20
REMARK    7  A    between atoms: C_20  and  C_21
REMARK    8  A    between atoms: C_21  and  O_22
REMARK                            x       y       z     vdW  Elec       q    Type
REMARK                         _______ _______ _______ _____ _____    ______ ____
ROOT
ATOM      1  C   UNL     1       4.421   3.552  17.192  0.00  0.00    +0.000 A 
ATOM      2  N   UNL     1       3.726   2.437  17.518  0.00  0.00    +0.000 NA
ATOM      3  C   UNL     1       2.499   2.550  18.049  0.00  0.00    +0.000 A 
ATOM      4  N   UNL     1       1.835   3.675  18.316  0.00  0.00    +0.000 NA
ATOM      5  C   UNL     1       2.555   4.758  17.998  0.00  0.00    +0.000 A 
ATOM      6  O   UNL     1       2.085   6.018  18.179  0.00  0.00    +0.000 OA
ATOM      7  C   UNL     1       3.053   6.880  17.769  0.00  0.00    +0.000 A 
ATOM      8  C   UNL     1       2.720   8.316  17.895  0.00  0.00    +0.000 C 
ATOM      9  C   UNL     1       4.177   6.188  17.338  0.00  0.00    +0.000 A 
ATOM     10  C   UNL     1       3.830   4.797  17.454  0.00  0.00    +0.000 A 
ENDROOT
BRANCH   9  11
ATOM     11  C   UNL     1       5.401   6.827  16.880  0.00  0.00    +0.000 C 
ATOM     12  O   UNL     1       5.503   7.320  15.761  0.00  0.00    +0.000 OA
ATOM     13  N   UNL     1       6.428   6.860  17.793  0.00  0.00    +0.000 N 
ATOM     14  H   UNL     1       6.300   6.451  18.714  0.00  0.00    +0.000 HD
BRANCH  13  15
ATOM     15  C   UNL     1       7.748   7.382  17.476  0.00  0.00    +0.000 C 
BRANCH  15  16
ATOM     16  C   UNL     1       7.934   8.821  17.947  0.00  0.00    +0.000 C 
BRANCH  16  17
ATOM     17  O   UNL     1       8.899   8.880  18.995  0.00  0.00    +0.000 OA
ATOM     18  H   UNL     1       9.767   8.961  18.564  0.00  0.00    +0.000 HD
ENDBRANCH  16  17
ENDBRANCH  15  16
ENDBRANCH  13  15
ENDBRANCH   9  11
BRANCH   1  19
ATOM     19  N   UNL     1       5.690   3.443  16.587  0.00  0.00    +0.000 N 
ATOM     20  H   UNL     1       6.399   3.753  17.250  0.00  0.00    +0.000 HD
BRANCH  19  26
ATOM     21  C   UNL     1       4.733   3.182  11.732  0.00  0.00    +0.000 C 
ATOM     22  C   UNL     1       5.589   3.681  12.856  0.00  0.00    +0.000 A 
ATOM     23  C   UNL     1       6.720   4.466  12.619  0.00  0.00    +0.000 A 
ATOM     24  C   UNL     1       7.505   4.902  13.686  0.00  0.00    +0.000 A 
ATOM     25  C   UNL     1       7.159   4.568  14.999  0.00  0.00    +0.000 A 
ATOM     26  C   UNL     1       6.004   3.821  15.261  0.00  0.00    +0.000 A 
ATOM     27  C   UNL     1       5.250   3.358  14.175  0.00  0.00    +0.000 A 
ENDBRANCH  19  26
ENDBRANCH   1  19
TORSDOF 6
ENDMDL
MODEL 2
REMARK VINA RESULT:      -7.5      2.561      6.151
REMARK  Name = 
REMARK  8 active torsions:
REMARK  status: ('A' for Active; 'I' for Inactive)
REMARK    1  A    between atoms: C_1  and  C_2
REMARK    2  A    between atoms: C_6  and  N_7
REMARK    3  A    between atoms: N_7  and  C_8
REMARK    4  A    between atoms: C_14  and  C_15
REMARK    5  A    between atoms: C_16  and  C_17
REMARK    6  A    between atoms: N_19  and  C_20
REMARK    7  A    between atoms: C_20  and  C_21
REMARK    8  A    between atoms: C_21  and  O_22
REMARK                            x       y       z     vdW  Elec       q    Type
REMARK                         _______ _______ _______ _____ _____    ______ ____
ROOT
ATOM      1  C   UNL     1       2.346   5.407  19.657  0.00  0.00    +0.000 A 
ATOM      2  N   UNL     1       1.333   4.719  20.235  0.00  0.00    +0.000 NA
ATOM      3  C   UNL     1       1.025   3.491  19.789  0.00  0.00    +0.000 A 
ATOM      4  N   UNL     1       1.613   2.820  18.798  0.00  0.00    +0.000 NA
ATOM      5  C   UNL     1       2.598   3.534  18.238  0.00  0.00    +0.000 A 
ATOM      6  O   UNL     1       3.343   3.056  17.209  0.00  0.00    +0.000 OA
ATOM      7  C   UNL     1       4.241   4.019  16.872  0.00  0.00    +0.000 A 
ATOM      8  C   UNL     1       5.148   3.678  15.753  0.00  0.00    +0.000 C 
ATOM      9  C   UNL     1       4.074   5.147  17.663  0.00  0.00    +0.000 A 
ATOM     10  C   UNL     1       3.021   4.809  18.583  0.00  0.00    +0.000 A 
ENDROOT
BRANCH   9  11
ATOM     11  C   UNL     1       4.853   6.367  17.518  0.00  0.00    +0.000 C 
ATOM     12  O   UNL     1       4.328   7.464  17.354  0.00  0.00    +0.000 OA
ATOM     13  N   UNL     1       6.216   6.210  17.595  0.00  0.00    +0.000 N 
ATOM     14  H   UNL     1       6.612   5.287  17.743  0.00  0.00    +0.000 HD
BRANCH  13  15
ATOM     15  C   UNL     1       7.149   7.306  17.386  0.00  0.00    +0.000 C 
BRANCH  15  16
ATOM     16  C   UNL     1       8.202   7.393  18.485  0.00  0.00    +0.000 C 
BRANCH  16  17
ATOM     17  O   UNL     1       8.180   6.215  19.288  0.00  0.00    +0.000 OA
ATOM     18  H   UNL     1       8.065   5.467  18.676  0.00  0.00    +0.000 HD
ENDBRANCH  16  17
ENDBRANCH  15  16
ENDBRANCH  13  15
ENDBRANCH   9  11
BRANCH   1  19
ATOM     19  N   UNL     1       2.710   6.676  20.151  0.00  0.00    +0.000 N 
ATOM     20  H   UNL     1       3.248   6.556  21.007  0.00  0.00    +0.000 HD
BRANCH  19  26
ATOM     21  C   UNL     1      -0.470   9.492  22.704  0.00  0.00    +0.000 C 
ATOM     22  C   UNL     1       0.257   9.196  21.428  0.00  0.00    +0.000 A 
ATOM     23  C   UNL     1       0.077   9.978  20.286  0.00  0.00    +0.000 A 
ATOM     24  C   UNL     1       0.756   9.666  19.108  0.00  0.00    +0.000 A 
ATOM     25  C   UNL     1       1.632   8.577  19.068  0.00  0.00    +0.000 A 
ATOM     26  C   UNL     1       1.863   7.808  20.214  0.00  0.00    +0.000 A 
ATOM     27  C   UNL     1       1.141   8.111  21.376  0.00  0.00    +0.000 A 
ENDBRANCH  19  26
ENDBRANCH   1  19
TORSDOF 6
ENDMDL
MODEL 3
REMARK VINA RESULT:      -7.1      2.463      6.005
REMARK  Name = 
REMARK  8 active torsions:
REMARK  status: ('A' for Active; 'I' for Inactive)
REMARK    1  A    between atoms: C_1  and  C_2
REMARK    2  A    between atoms: C_6  and  N_7
REMARK    3  A    between atoms: N_7  and  C_8
REMARK    4  A    between atoms: C_14  and  C_15
REMARK    5  A    between atoms: C_16  and  C_17
REMARK    6  A    between atoms: N_19  and  C_20
REMARK    7  A    between atoms: C_20  and  C_21
REMARK    8  A    between atoms: C_21  and  O_22
REMARK                            x       y       z     vdW  Elec       q    Type
REMARK                         _______ _______ _______ _____ _____    ______ ____
ROOT
ATOM      1  C   UNL     1       2.308   5.353  19.787  0.00  0.00    +0.000 A 
ATOM      2  N   UNL     1       1.324   4.643  20.386  0.00  0.00    +0.000 NA
ATOM      3  C   UNL     1       1.056   3.395  19.969  0.00  0.00    +0.000 A 
ATOM      4  N   UNL     1       1.661   2.724  18.989  0.00  0.00    +0.000 NA
ATOM      5  C   UNL     1       2.616   3.459  18.407  0.00  0.00    +0.000 A 
ATOM      6  O   UNL     1       3.372   2.985  17.383  0.00  0.00    +0.000 OA
ATOM      7  C   UNL     1       4.233   3.971  17.019  0.00  0.00    +0.000 A 
ATOM      8  C   UNL     1       5.145   3.638  15.901  0.00  0.00    +0.000 C 
ATOM      9  C   UNL     1       4.031   5.110  17.787  0.00  0.00    +0.000 A 
ATOM     10  C   UNL     1       2.998   4.755  18.721  0.00  0.00    +0.000 A 
ENDROOT
BRANCH   9  11
ATOM     11  C   UNL     1       4.766   6.353  17.609  0.00  0.00    +0.000 C 
ATOM     12  O   UNL     1       4.203   7.427  17.423  0.00  0.00    +0.000 OA
ATOM     13  N   UNL     1       6.135   6.246  17.683  0.00  0.00    +0.000 N 
ATOM     14  H   UNL     1       6.564   5.341  17.851  0.00  0.00    +0.000 HD
BRANCH  13  15
ATOM     15  C   UNL     1       7.028   7.369  17.444  0.00  0.00    +0.000 C 
BRANCH  15  16
ATOM     16  C   UNL     1       8.178   7.421  18.444  0.00  0.00    +0.000 C 
BRANCH  16  17
ATOM     17  O   UNL     1       8.165   6.265  19.278  0.00  0.00    +0.000 OA
ATOM     18  H   UNL     1       7.866   6.564  20.156  0.00  0.00    +0.000 HD
ENDBRANCH  16  17
ENDBRANCH  15  16
ENDBRANCH  13  15
ENDBRANCH   9  11
BRANCH   1  19
ATOM     19  N   UNL     1       2.630   6.645  20.250  0.00  0.00    +0.000 N 
ATOM     20  H   UNL     1       3.238   6.562  21.064  0.00  0.00    +0.000 HD
BRANCH  19  26
ATOM     21  C   UNL     1       0.451  10.639  18.286  0.00  0.00    +0.000 C 
ATOM     22  C   UNL     1       0.662   9.725  19.454  0.00  0.00    +0.000 A 
ATOM     23  C   UNL     1       0.025   9.944  20.677  0.00  0.00    +0.000 A 
ATOM     24  C   UNL     1       0.255   9.084  21.751  0.00  0.00    +0.000 A 
ATOM     25  C   UNL     1       1.112   7.989  21.605  0.00  0.00    +0.000 A 
ATOM     26  C   UNL     1       1.724   7.724  20.374  0.00  0.00    +0.000 A 
ATOM     27  C   UNL     1       1.514   8.622  19.320  0.00  0.00    +0.000 A 
ENDBRANCH  19  26
ENDBRANCH   1  19
TORSDOF 6
ENDMDL
MODEL 4
REMARK VINA RESULT:      -7.1      3.081      4.587
REMARK  Name = 
REMARK  8 active torsions:
REMARK  status: ('A' for Active; 'I' for Inactive)
REMARK    1  A    between atoms: C_1  and  C_2
REMARK    2  A    between atoms: C_6  and  N_7
REMARK    3  A    between atoms: N_7  and  C_8
REMARK    4  A    between atoms: C_14  and  C_15
REMARK    5  A    between atoms: C_16  and  C_17
REMARK    6  A    between atoms: N_19  and  C_20
REMARK    7  A    between atoms: C_20  and  C_21
REMARK    8  A    between atoms: C_21  and  O_22
REMARK                            x       y       z     vdW  Elec       q    Type
REMARK                         _______ _______ _______ _____ _____    ______ ____
ROOT
ATOM      1  C   UNL     1       4.430   4.919  17.832  0.00  0.00    +0.000 A 
ATOM      2  N   UNL     1       4.231   6.181  17.386  0.00  0.00    +0.000 NA
ATOM      3  C   UNL     1       3.378   6.989  18.036  0.00  0.00    +0.000 A 
ATOM      4  N   UNL     1       2.658   6.699  19.120  0.00  0.00    +0.000 NA
ATOM      5  C   UNL     1       2.866   5.440  19.525  0.00  0.00    +0.000 A 
ATOM      6  O   UNL     1       2.243   4.918  20.613  0.00  0.00    +0.000 OA
ATOM      7  C   UNL     1       2.660   3.631  20.746  0.00  0.00    +0.000 A 
ATOM      8  C   UNL     1       2.080   2.890  21.887  0.00  0.00    +0.000 C 
ATOM      9  C   UNL     1       3.543   3.292  19.729  0.00  0.00    +0.000 A 
ATOM     10  C   UNL     1       3.703   4.493  18.955  0.00  0.00    +0.000 A 
ENDROOT
BRANCH   9  11
ATOM     11  C   UNL     1       4.131   1.972  19.567  0.00  0.00    +0.000 C 
ATOM     12  O   UNL     1       3.885   1.258  18.600  0.00  0.00    +0.000 OA
ATOM     13  N   UNL     1       4.997   1.585  20.563  0.00  0.00    +0.000 N 
ATOM     14  H   UNL     1       5.184   2.209  21.342  0.00  0.00    +0.000 HD
BRANCH  13  15
ATOM     15  C   UNL     1       5.608   0.266  20.608  0.00  0.00    +0.000 C 
BRANCH  15  16
ATOM     16  C   UNL     1       6.151  -0.077  21.991  0.00  0.00    +0.000 C 
BRANCH  16  17
ATOM     17  O   UNL     1       6.729   1.076  22.599  0.00  0.00    +0.000 OA
ATOM     18  H   UNL     1       6.309   1.847  22.179  0.00  0.00    +0.000 HD
ENDBRANCH  16  17
ENDBRANCH  15  16
ENDBRANCH  13  15
ENDBRANCH   9  11
BRANCH   1  19
ATOM     19  N   UNL     1       5.361   4.079  17.187  0.00  0.00    +0.000 N 
ATOM     20  H   UNL     1       6.069   3.792  17.861  0.00  0.00    +0.000 HD
BRANCH  19  26
ATOM     21  C   UNL     1       5.297   3.199  12.311  0.00  0.00    +0.000 C 
ATOM     22  C   UNL     1       5.937   3.850  13.498  0.00  0.00    +0.000 A 
ATOM     23  C   UNL     1       7.094   4.622  13.372  0.00  0.00    +0.000 A 
ATOM     24  C   UNL     1       7.676   5.203  14.499  0.00  0.00    +0.000 A 
ATOM     25  C   UNL     1       7.096   5.027  15.759  0.00  0.00    +0.000 A 
ATOM     26  C   UNL     1       5.911   4.296  15.902  0.00  0.00    +0.000 A 
ATOM     27  C   UNL     1       5.365   3.687  14.765  0.00  0.00    +0.000 A 
ENDBRANCH  19  26
ENDBRANCH   1  19
TORSDOF 6
ENDMDL
MODEL 5
REMARK VINA RESULT:      -6.8      1.996      5.344
REMARK  Name = 
REMARK  8 active torsions:
REMARK  status: ('A' for Active; 'I' for Inactive)
REMARK    1  A    between atoms: C_1  and  C_2
REMARK    2  A    between atoms: C_6  and  N_7
REMARK    3  A    between atoms: N_7  and  C_8
REMARK    4  A    between atoms: C_14  and  C_15
REMARK    5  A    between atoms: C_16  and  C_17
REMARK    6  A    between atoms: N_19  and  C_20
REMARK    7  A    between atoms: C_20  and  C_21
REMARK    8  A    between atoms: C_21  and  O_22
REMARK                            x       y       z     vdW  Elec       q    Type
REMARK                         _______ _______ _______ _____ _____    ______ ____
ROOT
ATOM      1  C   UNL     1       4.890   4.374  15.692  0.00  0.00    +0.000 A 
ATOM      2  N   UNL     1       5.347   3.673  14.627  0.00  0.00    +0.000 NA
ATOM      3  C   UNL     1       6.560   3.947  14.122  0.00  0.00    +0.000 A 
ATOM      4  N   UNL     1       7.424   4.869  14.549  0.00  0.00    +0.000 NA
ATOM      5  C   UNL     1       6.935   5.554  15.591  0.00  0.00    +0.000 A 
ATOM      6  O   UNL     1       7.638   6.544  16.199  0.00  0.00    +0.000 OA
ATOM      7  C   UNL     1       6.866   7.037  17.203  0.00  0.00    +0.000 A 
ATOM      8  C   UNL     1       7.468   8.139  17.985  0.00  0.00    +0.000 C 
ATOM      9  C   UNL     1       5.639   6.388  17.245  0.00  0.00    +0.000 A 
ATOM     10  C   UNL     1       5.706   5.391  16.211  0.00  0.00    +0.000 A 
ENDROOT
BRANCH   9  11
ATOM     11  C   UNL     1       4.574   6.718  18.179  0.00  0.00    +0.000 C 
ATOM     12  O   UNL     1       4.534   6.260  19.317  0.00  0.00    +0.000 OA
ATOM     13  N   UNL     1       3.625   7.594  17.708  0.00  0.00    +0.000 N 
ATOM     14  H   UNL     1       3.699   7.961  16.764  0.00  0.00    +0.000 HD
BRANCH  13  15
ATOM     15  C   UNL     1       2.446   7.967  18.475  0.00  0.00    +0.000 C 
BRANCH  15  16
ATOM     16  C   UNL     1       1.488   8.847  17.678  0.00  0.00    +0.000 C 
BRANCH  16  17
ATOM     17  O   UNL     1       2.051  10.141  17.478  0.00  0.00    +0.000 OA
ATOM     18  H   UNL     1       1.718  10.456  16.620  0.00  0.00    +0.000 HD
ENDBRANCH  16  17
ENDBRANCH  15  16
ENDBRANCH  13  15
ENDBRANCH   9  11
BRANCH   1  19
ATOM     19  N   UNL     1       3.639   4.060  16.260  0.00  0.00    +0.000 N 
ATOM     20  H   UNL     1       2.973   4.791  16.016  0.00  0.00    +0.000 HD
BRANCH  19  26
ATOM     21  C   UNL     1       0.811   3.802  20.321  0.00  0.00    +0.000 C 
ATOM     22  C   UNL     1       2.082   3.457  19.608  0.00  0.00    +0.000 A 
ATOM     23  C   UNL     1       3.087   2.710  20.226  0.00  0.00    +0.000 A 
ATOM     24  C   UNL     1       4.266   2.419  19.540  0.00  0.00    +0.000 A 
ATOM     25  C   UNL     1       4.444   2.861  18.226  0.00  0.00    +0.000 A 
ATOM     26  C   UNL     1       3.431   3.571  17.571  0.00  0.00    +0.000 A 
ATOM     27  C   UNL     1       2.270   3.889  18.290  0.00  0.00    +0.000 A 
ENDBRANCH  19  26
ENDBRANCH   1  19
TORSDOF 6
ENDMDL
MODEL 6
REMARK VINA RESULT:      -6.8      0.370      1.382
REMARK  Name = 
REMARK  8 active torsions:
REMARK  status: ('A' for Active; 'I' for Inactive)
REMARK    1  A    between atoms: C_1  and  C_2
REMARK    2  A    between atoms: C_6  and  N_7
REMARK    3  A    between atoms: N_7  and  C_8
REMARK    4  A    between atoms: C_14  and  C_15
REMARK    5  A    between atoms: C_16  and  C_17
REMARK    6  A    between atoms: N_19  and  C_20
REMARK    7  A    between atoms: C_20  and  C_21
REMARK    8  A    between atoms: C_21  and  O_22
REMARK                            x       y       z     vdW  Elec       q    Type
REMARK                         _______ _______ _______ _____ _____    ______ ____
ROOT
ATOM      1  C   UNL     1       4.592   3.548  17.140  0.00  0.00    +0.000 A 
ATOM      2  N   UNL     1       3.967   2.402  17.496  0.00  0.00    +0.000 NA
ATOM      3  C   UNL     1       2.757   2.457  18.074  0.00  0.00    +0.000 A 
ATOM      4  N   UNL     1       2.049   3.549  18.364  0.00  0.00    +0.000 NA
ATOM      5  C   UNL     1       2.702   4.664  18.015  0.00  0.00    +0.000 A 
ATOM      6  O   UNL     1       2.178   5.901  18.211  0.00  0.00    +0.000 OA
ATOM      7  C   UNL     1       3.086   6.807  17.761  0.00  0.00    +0.000 A 
ATOM      8  C   UNL     1       2.688   8.226  17.897  0.00  0.00    +0.000 C 
ATOM      9  C   UNL     1       4.225   6.169  17.289  0.00  0.00    +0.000 A 
ATOM     10  C   UNL     1       3.952   4.764  17.422  0.00  0.00    +0.000 A 
ENDROOT
BRANCH   9  11
ATOM     11  C   UNL     1       5.397   6.866  16.782  0.00  0.00    +0.000 C 
ATOM     12  O   UNL     1       5.450   7.316  15.641  0.00  0.00    +0.000 OA
ATOM     13  N   UNL     1       6.434   7.004  17.673  0.00  0.00    +0.000 N 
ATOM     14  H   UNL     1       6.348   6.628  18.613  0.00  0.00    +0.000 HD
BRANCH  13  15
ATOM     15  C   UNL     1       7.712   7.596  17.311  0.00  0.00    +0.000 C 
BRANCH  15  16
ATOM     16  C   UNL     1       7.947   8.939  17.995  0.00  0.00    +0.000 C 
BRANCH  16  17
ATOM     17  O   UNL     1       8.936   8.812  19.014  0.00  0.00    +0.000 OA
ATOM     18  H   UNL     1       9.683   8.333  18.613  0.00  0.00    +0.000 HD
ENDBRANCH  16  17
ENDBRANCH  15  16
ENDBRANCH  13  15
ENDBRANCH   9  11
BRANCH   1  19
ATOM     19  N   UNL     1       5.841   3.499  16.487  0.00  0.00    +0.000 N 
ATOM     20  H   UNL     1       6.538   3.958  17.072  0.00  0.00    +0.000 HD
BRANCH  19  26
ATOM     21  C   UNL     1       8.448   5.728  12.911  0.00  0.00    +0.000 C 
ATOM     22  C   UNL     1       7.296   4.864  13.323  0.00  0.00    +0.000 A 
ATOM     23  C   UNL     1       6.404   4.341  12.385  0.00  0.00    +0.000 A 
ATOM     24  C   UNL     1       5.332   3.553  12.802  0.00  0.00    +0.000 A 
ATOM     25  C   UNL     1       5.151   3.270  14.159  0.00  0.00    +0.000 A 
ATOM     26  C   UNL     1       6.060   3.745  15.111  0.00  0.00    +0.000 A 
ATOM     27  C   UNL     1       7.107   4.569  14.679  0.00  0.00    +0.000 A 
ENDBRANCH  19  26
ENDBRANCH   1  19
TORSDOF 6
ENDMDL
MODEL 7
REMARK VINA RESULT:      -6.8      2.692      5.820
REMARK  Name = 
REMARK  8 active torsions:
REMARK  status: ('A' for Active; 'I' for Inactive)
REMARK    1  A    between atoms: C_1  and  C_2
REMARK    2  A    between atoms: C_6  and  N_7
REMARK    3  A    between atoms: N_7  and  C_8
REMARK    4  A    between atoms: C_14  and  C_15
REMARK    5  A    between atoms: C_16  and  C_17
REMARK    6  A    between atoms: N_19  and  C_20
REMARK    7  A    between atoms: C_20  and  C_21
REMARK    8  A    between atoms: C_21  and  O_22
REMARK                            x       y       z     vdW  Elec       q    Type
REMARK                         _______ _______ _______ _____ _____    ______ ____
ROOT
ATOM      1  C   UNL     1       2.152   5.016  19.899  0.00  0.00    +0.000 A 
ATOM      2  N   UNL     1       1.042   4.548  20.516  0.00  0.00    +0.000 NA
ATOM      3  C   UNL     1       0.586   3.320  20.221  0.00  0.00    +0.000 A 
ATOM      4  N   UNL     1       1.106   2.452  19.353  0.00  0.00    +0.000 NA
ATOM      5  C   UNL     1       2.191   2.952  18.749  0.00  0.00    +0.000 A 
ATOM      6  O   UNL     1       2.894   2.247  17.826  0.00  0.00    +0.000 OA
ATOM      7  C   UNL     1       3.921   3.033  17.406  0.00  0.00    +0.000 A 
ATOM      8  C   UNL     1       4.805   2.430  16.383  0.00  0.00    +0.000 C 
ATOM      9  C   UNL     1       3.883   4.270  18.035  0.00  0.00    +0.000 A 
ATOM     10  C   UNL     1       2.771   4.197  18.943  0.00  0.00    +0.000 A 
ENDROOT
BRANCH   9  11
ATOM     11  C   UNL     1       4.821   5.350  17.766  0.00  0.00    +0.000 C 
ATOM     12  O   UNL     1       4.726   6.069  16.776  0.00  0.00    +0.000 OA
ATOM     13  N   UNL     1       5.809   5.522  18.705  0.00  0.00    +0.000 N 
ATOM     14  H   UNL     1       5.847   4.913  19.518  0.00  0.00    +0.000 HD
BRANCH  13  15
ATOM     15  C   UNL     1       6.880   6.494  18.555  0.00  0.00    +0.000 C 
BRANCH  15  16
ATOM     16  C   UNL     1       8.197   6.007  19.149  0.00  0.00    +0.000 C 
BRANCH  16  17
ATOM     17  O   UNL     1       7.988   5.479  20.457  0.00  0.00    +0.000 OA
ATOM     18  H   UNL     1       8.863   5.437  20.879  0.00  0.00    +0.000 HD
ENDBRANCH  16  17
ENDBRANCH  15  16
ENDBRANCH  13  15
ENDBRANCH   9  11
BRANCH   1  19
ATOM     19  N   UNL     1       2.668   6.284  20.238  0.00  0.00    +0.000 N 
ATOM     20  H   UNL     1       2.870   6.302  21.236  0.00  0.00    +0.000 HD
BRANCH  19  26
ATOM     21  C   UNL     1      -0.008  10.375  21.048  0.00  0.00    +0.000 C 
ATOM     22  C   UNL     1       0.821   9.535  20.126  0.00  0.00    +0.000 A 
ATOM     23  C   UNL     1       1.067   9.923  18.808  0.00  0.00    +0.000 A 
ATOM     24  C   UNL     1       1.829   9.110  17.969  0.00  0.00    +0.000 A 
ATOM     25  C   UNL     1       2.363   7.910  18.446  0.00  0.00    +0.000 A 
ATOM     26  C   UNL     1       2.168   7.524  19.777  0.00  0.00    +0.000 A 
ATOM     27  C   UNL     1       1.366   8.333  20.593  0.00  0.00    +0.000 A 
ENDBRANCH  19  26
ENDBRANCH   1  19
TORSDOF 6
ENDMDL
MODEL 8
REMARK VINA RESULT:      -6.7      2.503      5.756
REMARK  Name = 
REMARK  8 active torsions:
REMARK  status: ('A' for Active; 'I' for Inactive)
REMARK    1  A    between atoms: C_1  and  C_2
REMARK    2  A    between atoms: C_6  and  N_7
REMARK    3  A    between atoms: N_7  and  C_8
REMARK    4  A    between atoms: C_14  and  C_15
REMARK    5  A    between atoms: C_16  and  C_17
REMARK    6  A    between atoms: N_19  and  C_20
REMARK    7  A    between atoms: C_20  and  C_21
REMARK    8  A    between atoms: C_21  and  O_22
REMARK                            x       y       z     vdW  Elec       q    Type
REMARK                         _______ _______ _______ _____ _____    ______ ____
ROOT
ATOM      1  C   UNL     1       1.998   4.552  19.861  0.00  0.00    +0.000 A 
ATOM      2  N   UNL     1       0.846   3.883  20.098  0.00  0.00    +0.000 NA
ATOM      3  C   UNL     1       0.567   2.772  19.397  0.00  0.00    +0.000 A 
ATOM      4  N   UNL     1       1.312   2.209  18.445  0.00  0.00    +0.000 NA
ATOM      5  C   UNL     1       2.434   2.905  18.225  0.00  0.00    +0.000 A 
ATOM      6  O   UNL     1       3.352   2.523  17.300  0.00  0.00    +0.000 OA
ATOM      7  C   UNL     1       4.358   3.437  17.319  0.00  0.00    +0.000 A 
ATOM      8  C   UNL     1       5.461   3.188  16.364  0.00  0.00    +0.000 C 
ATOM      9  C   UNL     1       4.093   4.441  18.241  0.00  0.00    +0.000 A 
ATOM     10  C   UNL     1       2.850   4.066  18.859  0.00  0.00    +0.000 A 
ENDROOT
BRANCH   9  11
ATOM     11  C   UNL     1       4.957   5.590  18.464  0.00  0.00    +0.000 C 
ATOM     12  O   UNL     1       5.445   5.840  19.561  0.00  0.00    +0.000 OA
ATOM     13  N   UNL     1       5.205   6.367  17.357  0.00  0.00    +0.000 N 
ATOM     14  H   UNL     1       4.791   6.120  16.463  0.00  0.00    +0.000 HD
BRANCH  13  15
ATOM     15  C   UNL     1       5.975   7.599  17.415  0.00  0.00    +0.000 C 
BRANCH  15  16
ATOM     16  C   UNL     1       7.457   7.374  17.136  0.00  0.00    +0.000 C 
BRANCH  16  17
ATOM     17  O   UNL     1       7.637   6.239  16.292  0.00  0.00    +0.000 OA
ATOM     18  H   UNL     1       7.210   6.457  15.444  0.00  0.00    +0.000 HD
ENDBRANCH  16  17
ENDBRANCH  15  16
ENDBRANCH  13  15
ENDBRANCH   9  11
BRANCH   1  19
ATOM     19  N   UNL     1       2.323   5.691  20.626  0.00  0.00    +0.000 N 
ATOM     20  H   UNL     1       2.327   5.437  21.613  0.00  0.00    +0.000 HD
BRANCH  19  26
ATOM     21  C   UNL     1       1.983   9.742  17.792  0.00  0.00    +0.000 C 
ATOM     22  C   UNL     1       1.658   9.026  19.067  0.00  0.00    +0.000 A 
ATOM     23  C   UNL     1       0.910   9.635  20.076  0.00  0.00    +0.000 A 
ATOM     24  C   UNL     1       0.638   8.948  21.259  0.00  0.00    +0.000 A 
ATOM     25  C   UNL     1       1.101   7.641  21.436  0.00  0.00    +0.000 A 
ATOM     26  C   UNL     1       1.813   6.994  20.419  0.00  0.00    +0.000 A 
ATOM     27  C   UNL     1       2.112   7.715  19.254  0.00  0.00    +0.000 A 
ENDBRANCH  19  26
ENDBRANCH   1  19
TORSDOF 6
ENDMDL
MODEL 9
REMARK VINA RESULT:      -6.7      2.678      6.627
REMARK  Name = 
REMARK  8 active torsions:
REMARK  status: ('A' for Active; 'I' for Inactive)
REMARK    1  A    between atoms: C_1  and  C_2
REMARK    2  A    between atoms: C_6  and  N_7
REMARK    3  A    between atoms: N_7  and  C_8
REMARK    4  A    between atoms: C_14  and  C_15
REMARK    5  A    between atoms: C_16  and  C_17
REMARK    6  A    between atoms: N_19  and  C_20
REMARK    7  A    between atoms: C_20  and  C_21
REMARK    8  A    between atoms: C_21  and  O_22
REMARK                            x       y       z     vdW  Elec       q    Type
REMARK                         _______ _______ _______ _____ _____    ______ ____
ROOT
ATOM      1  C   UNL     1       5.419   4.256  16.911  0.00  0.00    +0.000 A 
ATOM      2  N   UNL     1       5.751   4.634  18.168  0.00  0.00    +0.000 NA
ATOM      3  C   UNL     1       6.831   5.406  18.366  0.00  0.00    +0.000 A 
ATOM      4  N   UNL     1       7.669   5.875  17.442  0.00  0.00    +0.000 NA
ATOM      5  C   UNL     1       7.323   5.469  16.214  0.00  0.00    +0.000 A 
ATOM      6  O   UNL     1       8.029   5.824  15.109  0.00  0.00    +0.000 OA
ATOM      7  C   UNL     1       7.426   5.248  14.036  0.00  0.00    +0.000 A 
ATOM      8  C   UNL     1       8.063   5.520  12.728  0.00  0.00    +0.000 C 
ATOM      9  C   UNL     1       6.334   4.488  14.433  0.00  0.00    +0.000 A 
ATOM     10  C   UNL     1       6.248   4.669  15.857  0.00  0.00    +0.000 A 
ENDROOT
BRANCH   9  11
ATOM     11  C   UNL     1       5.508   3.710  13.523  0.00  0.00    +0.000 C 
ATOM     12  O   UNL     1       4.283   3.707  13.590  0.00  0.00    +0.000 OA
ATOM     13  N   UNL     1       6.193   2.995  12.570  0.00  0.00    +0.000 N 
ATOM     14  H   UNL     1       7.207   3.033  12.539  0.00  0.00    +0.000 HD
BRANCH  13  15
ATOM     15  C   UNL     1       5.535   2.096  11.634  0.00  0.00    +0.000 C 
BRANCH  15  16
ATOM     16  C   UNL     1       6.495   1.074  11.035  0.00  0.00    +0.000 C 
BRANCH  16  17
ATOM     17  O   UNL     1       6.100  -0.248  11.395  0.00  0.00    +0.000 OA
ATOM     18  H   UNL     1       5.131  -0.230  11.487  0.00  0.00    +0.000 HD
ENDBRANCH  16  17
ENDBRANCH  15  16
ENDBRANCH  13  15
ENDBRANCH   9  11
BRANCH   1  19
ATOM     19  N   UNL     1       4.259   3.486  16.687  0.00  0.00    +0.000 N 
ATOM     20  H   UNL     1       3.949   3.629  15.727  0.00  0.00    +0.000 HD
BRANCH  19  26
ATOM     21  C   UNL     1       1.565   5.322  20.419  0.00  0.00    +0.000 C 
ATOM     22  C   UNL     1       1.845   4.214  19.450  0.00  0.00    +0.000 A 
ATOM     23  C   UNL     1       1.091   3.039  19.446  0.00  0.00    +0.000 A 
ATOM     24  C   UNL     1       1.387   2.019  18.542  0.00  0.00    +0.000 A 
ATOM     25  C   UNL     1       2.432   2.172  17.626  0.00  0.00    +0.000 A 
ATOM     26  C   UNL     1       3.171   3.360  17.581  0.00  0.00    +0.000 A 
ATOM     27  C   UNL     1       2.885   4.357  18.524  0.00  0.00    +0.000 A 
ENDBRANCH  19  26
ENDBRANCH   1  19
TORSDOF 6
ENDMDL
