MODEL 1
REMARK VINA RESULT:      -6.4      0.000      0.000
REMARK  Name = 
REMARK  4 active torsions:
REMARK  status: ('A' for Active; 'I' for Inactive)
REMARK    1  A    between atoms: C_1  and  C_2
REMARK    2  A    between atoms: C_2  and  C_3
REMARK    3  A    between atoms: C_2  and  N_4
REMARK    4  A    between atoms: N_4  and  P_5
REMARK                            x       y       z     vdW  Elec       q    Type
REMARK                         _______ _______ _______ _____ _____    ______ ____
ROOT
ATOM      1  P   UNL     1       4.604   5.143  17.839  0.00  0.00    +0.000 P 
ATOM      2  S   UNL     1       5.028   4.040  16.297  0.00  0.00    +0.000 S 
ATOM      3  O   UNL     1       3.141   5.827  17.756  0.00  0.00    +0.000 OA
ATOM      4  C   UNL     1       2.042   4.940  17.863  0.00  0.00    +0.000 C 
ATOM      5  C   UNL     1       2.117   4.140  19.129  0.00  0.00    +0.000 A 
ATOM      6  C   UNL     1       0.953   3.604  19.699  0.00  0.00    +0.000 A 
ATOM      7  C   UNL     1       1.017   2.869  20.885  0.00  0.00    +0.000 A 
ATOM      8  C   UNL     1       2.245   2.653  21.510  0.00  0.00    +0.000 A 
ATOM      9  C   UNL     1       3.409   3.160  20.937  0.00  0.00    +0.000 A 
ATOM     10  C   UNL     1       3.340   3.886  19.752  0.00  0.00    +0.000 A 
ATOM     11  O   UNL     1       4.518   4.362  19.253  0.00  0.00    +0.000 OA
ENDROOT
BRANCH   1  12
ATOM     12  N   UNL     1       5.610   6.421  18.121  0.00  0.00    +0.000 NA
ATOM     13  H   UNL     1       5.240   7.272  17.711  0.00  0.00    +0.000 HD
BRANCH  12  15
ATOM     14  C   UNL     1       7.661   7.665  17.509  0.00  0.00    +0.000 C 
ATOM     15  C   UNL     1       7.042   6.310  17.844  0.00  0.00    +0.000 C 
ATOM     16  C   UNL     1       7.759   5.700  19.049  0.00  0.00    +0.000 C 
ENDBRANCH  12  15
ENDBRANCH   1  12
TORSDOF 2
ENDMDL
MODEL 2
REMARK VINA RESULT:      -6.2      2.407      3.072
REMARK  Name = 
REMARK  4 active torsions:
REMARK  status: ('A' for Active; 'I' for Inactive)
REMARK    1  A    between atoms: C_1  and  C_2
REMARK    2  A    between atoms: C_2  and  C_3
REMARK    3  A    between atoms: C_2  and  N_4
REMARK    4  A    between atoms: N_4  and  P_5
REMARK                            x       y       z     vdW  Elec       q    Type
REMARK                         _______ _______ _______ _____ _____    ______ ____
ROOT
ATOM      1  P   UNL     1       4.658   4.654  17.038  0.00  0.00    +0.000 P 
ATOM      2  S   UNL     1       4.703   6.594  16.948  0.00  0.00    +0.000 S 
ATOM      3  O   UNL     1       5.386   4.055  18.352  0.00  0.00    +0.000 OA
ATOM      4  C   UNL     1       4.733   4.306  19.584  0.00  0.00    +0.000 C 
ATOM      5  C   UNL     1       3.321   3.802  19.556  0.00  0.00    +0.000 A 
ATOM      6  C   UNL     1       2.664   3.470  20.750  0.00  0.00    +0.000 A 
ATOM      7  C   UNL     1       1.353   2.988  20.729  0.00  0.00    +0.000 A 
ATOM      8  C   UNL     1       0.681   2.842  19.516  0.00  0.00    +0.000 A 
ATOM      9  C   UNL     1       1.316   3.194  18.328  0.00  0.00    +0.000 A 
ATOM     10  C   UNL     1       2.620   3.680  18.356  0.00  0.00    +0.000 A 
ATOM     11  O   UNL     1       3.185   3.995  17.154  0.00  0.00    +0.000 OA
ENDROOT
BRANCH   1  12
ATOM     12  N   UNL     1       5.386   3.849  15.794  0.00  0.00    +0.000 NA
ATOM     13  H   UNL     1       6.107   3.223  16.140  0.00  0.00    +0.000 HD
BRANCH  12  15
ATOM     14  C   UNL     1       7.337   4.979  14.771  0.00  0.00    +0.000 C 
ATOM     15  C   UNL     1       5.871   4.578  14.623  0.00  0.00    +0.000 C 
ATOM     16  C   UNL     1       5.695   3.722  13.369  0.00  0.00    +0.000 C 
ENDBRANCH  12  15
ENDBRANCH   1  12
TORSDOF 2
ENDMDL
MODEL 3
REMARK VINA RESULT:      -6.1      3.227      5.168
REMARK  Name = 
REMARK  4 active torsions:
REMARK  status: ('A' for Active; 'I' for Inactive)
REMARK    1  A    between atoms: C_1  and  C_2
REMARK    2  A    between atoms: C_2  and  C_3
REMARK    3  A    between atoms: C_2  and  N_4
REMARK    4  A    between atoms: N_4  and  P_5
REMARK                            x       y       z     vdW  Elec       q    Type
REMARK                         _______ _______ _______ _____ _____    ______ ____
ROOT
ATOM      1  P   UNL     1       3.423   4.663  19.165  0.00  0.00    +0.000 P 
ATOM      2  S   UNL     1       3.255   2.952  20.070  0.00  0.00    +0.000 S 
ATOM      3  O   UNL     1       4.748   5.487  19.592  0.00  0.00    +0.000 OA
ATOM      4  C   UNL     1       5.979   4.936  19.161  0.00  0.00    +0.000 C 
ATOM      5  C   UNL     1       5.995   4.754  17.673  0.00  0.00    +0.000 A 
ATOM      6  C   UNL     1       7.213   4.723  16.976  0.00  0.00    +0.000 A 
ATOM      7  C   UNL     1       7.233   4.567  15.588  0.00  0.00    +0.000 A 
ATOM      8  C   UNL     1       6.038   4.430  14.881  0.00  0.00    +0.000 A 
ATOM      9  C   UNL     1       4.826   4.434  15.568  0.00  0.00    +0.000 A 
ATOM     10  C   UNL     1       4.813   4.583  16.952  0.00  0.00    +0.000 A 
ATOM     11  O   UNL     1       3.590   4.589  17.558  0.00  0.00    +0.000 OA
ENDROOT
BRANCH   1  12
ATOM     12  N   UNL     1       2.200   5.743  19.415  0.00  0.00    +0.000 NA
ATOM     13  H   UNL     1       1.425   5.567  18.784  0.00  0.00    +0.000 HD
BRANCH  12  15
ATOM     14  C   UNL     1       2.281   7.855  18.125  0.00  0.00    +0.000 C 
ATOM     15  C   UNL     1       2.481   7.177  19.478  0.00  0.00    +0.000 C 
ATOM     16  C   UNL     1       1.580   7.837  20.523  0.00  0.00    +0.000 C 
ENDBRANCH  12  15
ENDBRANCH   1  12
TORSDOF 2
ENDMDL
MODEL 4
REMARK VINA RESULT:      -6.0      2.251      5.590
REMARK  Name = 
REMARK  4 active torsions:
REMARK  status: ('A' for Active; 'I' for Inactive)
REMARK    1  A    between atoms: C_1  and  C_2
REMARK    2  A    between atoms: C_2  and  C_3
REMARK    3  A    between atoms: C_2  and  N_4
REMARK    4  A    between atoms: N_4  and  P_5
REMARK                            x       y       z     vdW  Elec       q    Type
REMARK                         _______ _______ _______ _____ _____    ______ ____
ROOT
ATOM      1  P   UNL     1       3.208   5.064  19.398  0.00  0.00    +0.000 P 
ATOM      2  S   UNL     1       2.180   6.420  20.335  0.00  0.00    +0.000 S 
ATOM      3  O   UNL     1       3.220   5.263  17.793  0.00  0.00    +0.000 OA
ATOM      4  C   UNL     1       3.937   6.389  17.319  0.00  0.00    +0.000 C 
ATOM      5  C   UNL     1       5.356   6.365  17.802  0.00  0.00    +0.000 A 
ATOM      6  C   UNL     1       6.358   7.040  17.090  0.00  0.00    +0.000 A 
ATOM      7  C   UNL     1       7.684   7.010  17.529  0.00  0.00    +0.000 A 
ATOM      8  C   UNL     1       8.022   6.314  18.689  0.00  0.00    +0.000 A 
ATOM      9  C   UNL     1       7.029   5.662  19.416  0.00  0.00    +0.000 A 
ATOM     10  C   UNL     1       5.709   5.701  18.978  0.00  0.00    +0.000 A 
ATOM     11  O   UNL     1       4.790   5.032  19.733  0.00  0.00    +0.000 OA
ENDROOT
BRANCH   1  12
ATOM     12  N   UNL     1       2.702   3.504  19.588  0.00  0.00    +0.000 NA
ATOM     13  H   UNL     1       2.958   2.939  18.785  0.00  0.00    +0.000 HD
BRANCH  12  15
ATOM     14  C   UNL     1       0.635   2.271  19.010  0.00  0.00    +0.000 C 
ATOM     15  C   UNL     1       1.326   3.216  19.990  0.00  0.00    +0.000 C 
ATOM     16  C   UNL     1       1.311   2.606  21.392  0.00  0.00    +0.000 C 
ENDBRANCH  12  15
ENDBRANCH   1  12
TORSDOF 2
ENDMDL
MODEL 5
REMARK VINA RESULT:      -6.0      1.771      2.044
REMARK  Name = 
REMARK  4 active torsions:
REMARK  status: ('A' for Active; 'I' for Inactive)
REMARK    1  A    between atoms: C_1  and  C_2
REMARK    2  A    between atoms: C_2  and  C_3
REMARK    3  A    between atoms: C_2  and  N_4
REMARK    4  A    between atoms: N_4  and  P_5
REMARK                            x       y       z     vdW  Elec       q    Type
REMARK                         _______ _______ _______ _____ _____    ______ ____
ROOT
ATOM      1  P   UNL     1       5.557   4.869  16.962  0.00  0.00    +0.000 P 
ATOM      2  S   UNL     1       5.518   5.141  15.039  0.00  0.00    +0.000 S 
ATOM      3  O   UNL     1       4.634   5.918  17.777  0.00  0.00    +0.000 OA
ATOM      4  C   UNL     1       3.236   5.769  17.604  0.00  0.00    +0.000 C 
ATOM      5  C   UNL     1       2.794   4.381  17.956  0.00  0.00    +0.000 A 
ATOM      6  C   UNL     1       1.471   4.137  18.353  0.00  0.00    +0.000 A 
ATOM      7  C   UNL     1       1.058   2.847  18.695  0.00  0.00    +0.000 A 
ATOM      8  C   UNL     1       1.960   1.784  18.633  0.00  0.00    +0.000 A 
ATOM      9  C   UNL     1       3.268   2.012  18.214  0.00  0.00    +0.000 A 
ATOM     10  C   UNL     1       3.672   3.299  17.869  0.00  0.00    +0.000 A 
ATOM     11  O   UNL     1       4.970   3.452  17.478  0.00  0.00    +0.000 OA
ENDROOT
BRANCH   1  12
ATOM     12  N   UNL     1       7.032   5.007  17.690  0.00  0.00    +0.000 NA
ATOM     13  H   UNL     1       7.338   4.114  18.062  0.00  0.00    +0.000 HD
BRANCH  12  15
ATOM     14  C   UNL     1       8.231   5.617  19.768  0.00  0.00    +0.000 C 
ATOM     15  C   UNL     1       7.280   6.070  18.663  0.00  0.00    +0.000 C 
ATOM     16  C   UNL     1       7.859   7.296  17.956  0.00  0.00    +0.000 C 
ENDBRANCH  12  15
ENDBRANCH   1  12
TORSDOF 2
ENDMDL
MODEL 6
REMARK VINA RESULT:      -6.0      2.580      5.687
REMARK  Name = 
REMARK  4 active torsions:
REMARK  status: ('A' for Active; 'I' for Inactive)
REMARK    1  A    between atoms: C_1  and  C_2
REMARK    2  A    between atoms: C_2  and  C_3
REMARK    3  A    between atoms: C_2  and  N_4
REMARK    4  A    between atoms: N_4  and  P_5
REMARK                            x       y       z     vdW  Elec       q    Type
REMARK                         _______ _______ _______ _____ _____    ______ ____
ROOT
ATOM      1  P   UNL     1       3.706   3.941  19.211  0.00  0.00    +0.000 P 
ATOM      2  S   UNL     1       4.206   2.332  20.179  0.00  0.00    +0.000 S 
ATOM      3  O   UNL     1       4.649   5.211  19.548  0.00  0.00    +0.000 OA
ATOM      4  C   UNL     1       5.983   5.127  19.079  0.00  0.00    +0.000 C 
ATOM      5  C   UNL     1       6.018   4.893  17.598  0.00  0.00    +0.000 A 
ATOM      6  C   UNL     1       7.140   5.275  16.847  0.00  0.00    +0.000 A 
ATOM      7  C   UNL     1       7.172   5.070  15.466  0.00  0.00    +0.000 A 
ATOM      8  C   UNL     1       6.089   4.474  14.820  0.00  0.00    +0.000 A 
ATOM      9  C   UNL     1       4.983   4.068  15.562  0.00  0.00    +0.000 A 
ATOM     10  C   UNL     1       4.959   4.268  16.939  0.00  0.00    +0.000 A 
ATOM     11  O   UNL     1       3.838   3.856  17.601  0.00  0.00    +0.000 OA
ENDROOT
BRANCH   1  12
ATOM     12  N   UNL     1       2.181   4.511  19.482  0.00  0.00    +0.000 NA
ATOM     13  H   UNL     1       2.191   5.267  20.159  0.00  0.00    +0.000 HD
BRANCH  12  15
ATOM     14  C   UNL     1       1.013   2.453  18.756  0.00  0.00    +0.000 C 
ATOM     15  C   UNL     1       1.087   3.587  19.776  0.00  0.00    +0.000 C 
ATOM     16  C   UNL     1       1.260   3.007  21.180  0.00  0.00    +0.000 C 
ENDBRANCH  12  15
ENDBRANCH   1  12
TORSDOF 2
ENDMDL
MODEL 7
REMARK VINA RESULT:      -6.0      1.129      1.487
REMARK  Name = 
REMARK  4 active torsions:
REMARK  status: ('A' for Active; 'I' for Inactive)
REMARK    1  A    between atoms: C_1  and  C_2
REMARK    2  A    between atoms: C_2  and  C_3
REMARK    3  A    between atoms: C_2  and  N_4
REMARK    4  A    between atoms: N_4  and  P_5
REMARK                            x       y       z     vdW  Elec       q    Type
REMARK                         _______ _______ _______ _____ _____    ______ ____
ROOT
ATOM      1  P   UNL     1       5.394   4.485  17.877  0.00  0.00    +0.000 P 
ATOM      2  S   UNL     1       5.041   4.006  16.028  0.00  0.00    +0.000 S 
ATOM      3  O   UNL     1       4.666   5.855  18.335  0.00  0.00    +0.000 OA
ATOM      4  C   UNL     1       3.254   5.798  18.431  0.00  0.00    +0.000 C 
ATOM      5  C   UNL     1       2.822   4.703  19.358  0.00  0.00    +0.000 A 
ATOM      6  C   UNL     1       1.576   4.768  20.000  0.00  0.00    +0.000 A 
ATOM      7  C   UNL     1       1.174   3.757  20.876  0.00  0.00    +0.000 A 
ATOM      8  C   UNL     1       2.008   2.663  21.112  0.00  0.00    +0.000 A 
ATOM      9  C   UNL     1       3.234   2.577  20.458  0.00  0.00    +0.000 A 
ATOM     10  C   UNL     1       3.626   3.585  19.582  0.00  0.00    +0.000 A 
ATOM     11  O   UNL     1       4.845   3.441  18.985  0.00  0.00    +0.000 OA
ENDROOT
BRANCH   1  12
ATOM     12  N   UNL     1       6.975   4.737  18.278  0.00  0.00    +0.000 NA
ATOM     13  H   UNL     1       7.397   3.888  18.638  0.00  0.00    +0.000 HD
BRANCH  12  15
ATOM     14  C   UNL     1       8.386   5.495  20.165  0.00  0.00    +0.000 C 
ATOM     15  C   UNL     1       7.355   5.880  19.106  0.00  0.00    +0.000 C 
ATOM     16  C   UNL     1       7.915   6.997  18.225  0.00  0.00    +0.000 C 
ENDBRANCH  12  15
ENDBRANCH   1  12
TORSDOF 2
ENDMDL
MODEL 8
REMARK VINA RESULT:      -6.0      2.271      5.529
REMARK  Name = 
REMARK  4 active torsions:
REMARK  status: ('A' for Active; 'I' for Inactive)
REMARK    1  A    between atoms: C_1  and  C_2
REMARK    2  A    between atoms: C_2  and  C_3
REMARK    3  A    between atoms: C_2  and  N_4
REMARK    4  A    between atoms: N_4  and  P_5
REMARK                            x       y       z     vdW  Elec       q    Type
REMARK                         _______ _______ _______ _____ _____    ______ ____
ROOT
ATOM      1  P   UNL     1       3.376   4.362  19.369  0.00  0.00    +0.000 P 
ATOM      2  S   UNL     1       2.152   5.508  20.350  0.00  0.00    +0.000 S 
ATOM      3  O   UNL     1       3.330   4.596  17.769  0.00  0.00    +0.000 OA
ATOM      4  C   UNL     1       3.841   5.835  17.314  0.00  0.00    +0.000 C 
ATOM      5  C   UNL     1       5.252   6.038  17.779  0.00  0.00    +0.000 A 
ATOM      6  C   UNL     1       6.116   6.887  17.071  0.00  0.00    +0.000 A 
ATOM      7  C   UNL     1       7.435   7.070  17.493  0.00  0.00    +0.000 A 
ATOM      8  C   UNL     1       7.903   6.414  18.632  0.00  0.00    +0.000 A 
ATOM      9  C   UNL     1       7.044   5.591  19.356  0.00  0.00    +0.000 A 
ATOM     10  C   UNL     1       5.729   5.418  18.934  0.00  0.00    +0.000 A 
ATOM     11  O   UNL     1       4.946   4.588  19.684  0.00  0.00    +0.000 OA
ENDROOT
BRANCH   1  12
ATOM     12  N   UNL     1       3.141   2.737  19.528  0.00  0.00    +0.000 NA
ATOM     13  H   UNL     1       3.488   2.239  18.715  0.00  0.00    +0.000 HD
BRANCH  12  15
ATOM     14  C   UNL     1       1.420   2.694  21.308  0.00  0.00    +0.000 C 
ATOM     15  C   UNL     1       1.832   2.213  19.918  0.00  0.00    +0.000 C 
ATOM     16  C   UNL     1       0.778   2.635  18.894  0.00  0.00    +0.000 C 
ENDBRANCH  12  15
ENDBRANCH   1  12
TORSDOF 2
ENDMDL
MODEL 9
REMARK VINA RESULT:      -5.9      2.478      5.349
REMARK  Name = 
REMARK  4 active torsions:
REMARK  status: ('A' for Active; 'I' for Inactive)
REMARK    1  A    between atoms: C_1  and  C_2
REMARK    2  A    between atoms: C_2  and  C_3
REMARK    3  A    between atoms: C_2  and  N_4
REMARK    4  A    between atoms: N_4  and  P_5
REMARK                            x       y       z     vdW  Elec       q    Type
REMARK                         _______ _______ _______ _____ _____    ______ ____
ROOT
ATOM      1  P   UNL     1       2.591   5.769  19.322  0.00  0.00    +0.000 P 
ATOM      2  S   UNL     1       1.976   7.285  20.371  0.00  0.00    +0.000 S 
ATOM      3  O   UNL     1       2.676   6.080  17.737  0.00  0.00    +0.000 OA
ATOM      4  C   UNL     1       3.686   6.991  17.343  0.00  0.00    +0.000 C 
ATOM      5  C   UNL     1       5.035   6.532  17.806  0.00  0.00    +0.000 A 
ATOM      6  C   UNL     1       6.195   6.951  17.137  0.00  0.00    +0.000 A 
ATOM      7  C   UNL     1       7.454   6.516  17.557  0.00  0.00    +0.000 A 
ATOM      8  C   UNL     1       7.570   5.666  18.657  0.00  0.00    +0.000 A 
ATOM      9  C   UNL     1       6.426   5.266  19.343  0.00  0.00    +0.000 A 
ATOM     10  C   UNL     1       5.175   5.708  18.924  0.00  0.00    +0.000 A 
ATOM     11  O   UNL     1       4.097   5.268  19.636  0.00  0.00    +0.000 OA
ENDROOT
BRANCH   1  12
ATOM     12  N   UNL     1       1.665   4.405  19.398  0.00  0.00    +0.000 NA
ATOM     13  H   UNL     1       0.745   4.612  19.772  0.00  0.00    +0.000 HD
BRANCH  12  15
ATOM     14  C   UNL     1       1.666   2.985  21.426  0.00  0.00    +0.000 C 
ATOM     15  C   UNL     1       2.194   3.186  20.007  0.00  0.00    +0.000 C 
ATOM     16  C   UNL     1       1.830   1.975  19.147  0.00  0.00    +0.000 C 
ENDBRANCH  12  15
ENDBRANCH   1  12
TORSDOF 2
ENDMDL
