MODEL 1
REMARK VINA RESULT:      -6.3      0.000      0.000
REMARK  Name = 
REMARK  11 active torsions:
REMARK  status: ('A' for Active; 'I' for Inactive)
REMARK    1  A    between atoms: C_1  and  C_2
REMARK    2  A    between atoms: C_2  and  O_3
REMARK    3  A    between atoms: O_3  and  C_4
REMARK    4  A    between atoms: C_4  and  C_6
REMARK    5  A    between atoms: N_8  and  C_9
REMARK    6  A    between atoms: C_10  and  C_11
REMARK    7  A    between atoms: C_11  and  O_13
REMARK    8  A    between atoms: O_13  and  C_14
REMARK    9  A    between atoms: C_14  and  C_15
REMARK   10  A    between atoms: N_18  and  C_19
REMARK   11  A    between atoms: C_19  and  C_20
REMARK                            x       y       z     vdW  Elec       q    Type
REMARK                         _______ _______ _______ _____ _____    ______ ____
ROOT
ATOM      1  C   UNL     1       3.467   6.286  18.196  0.00  0.00    +0.000 A 
ATOM      2  C   UNL     1       4.270   5.759  17.244  0.00  0.00    +0.000 A 
ATOM      3  C   UNL     1       4.350   4.270  17.065  0.00  0.00    +0.000 A 
ATOM      4  O   UNL     1       5.146   3.768  16.272  0.00  0.00    +0.000 OA
ATOM      5  N   UNL     1       3.497   3.480  17.819  0.00  0.00    +0.000 N 
ATOM      6  C   UNL     1       2.700   4.010  18.855  0.00  0.00    +0.000 A 
ATOM      7  N   UNL     1       1.950   3.140  19.576  0.00  0.00    +0.000 NA
ATOM      8  C   UNL     1       1.169   3.631  20.556  0.00  0.00    +0.000 A 
ATOM      9  C   UNL     1       1.109   4.969  20.874  0.00  0.00    +0.000 A 
ATOM     10  C   UNL     1       1.888   5.857  20.134  0.00  0.00    +0.000 A 
ATOM     11  C   UNL     1       2.704   5.388  19.092  0.00  0.00    +0.000 A 
ENDROOT
BRANCH   1  14
ATOM     12  C   UNL     1       2.105   8.281  17.880  0.00  0.00    +0.000 C 
ATOM     13  O   UNL     1       1.175   7.714  17.323  0.00  0.00    +0.000 OA
ATOM     14  N   UNL     1       3.251   7.654  18.339  0.00  0.00    +0.000 N 
ATOM     15  H   UNL     1       3.846   8.204  18.956  0.00  0.00    +0.000 HD
BRANCH  12  16
ATOM     16  C   UNL     1       2.041   9.784  18.197  0.00  0.00    +0.000 C 
ATOM     17  O   UNL     1       2.674  10.601  17.547  0.00  0.00    +0.000 OA
BRANCH  16  18
ATOM     18  O   UNL     1       1.245  10.006  19.264  0.00  0.00    +0.000 OA
BRANCH  18  20
ATOM     19  C   UNL     1      -0.988  10.346  18.421  0.00  0.00    +0.000 C 
ATOM     20  C   UNL     1       0.214  10.983  19.092  0.00  0.00    +0.000 C 
ENDBRANCH  18  20
ENDBRANCH  16  18
ENDBRANCH  12  16
ENDBRANCH   1  14
BRANCH   2  21
ATOM     21  C   UNL     1       5.150   6.672  16.450  0.00  0.00    +0.000 C 
ATOM     22  O   UNL     1       5.037   6.850  15.241  0.00  0.00    +0.000 OA
BRANCH  21  23
ATOM     23  O   UNL     1       6.073   7.289  17.225  0.00  0.00    +0.000 OA
BRANCH  23  24
ATOM     24  C   UNL     1       7.359   6.658  17.295  0.00  0.00    +0.000 C 
ATOM     25  C   UNL     1       7.625   6.105  18.686  0.00  0.00    +0.000 C 
ENDBRANCH  23  24
ENDBRANCH  21  23
ENDBRANCH   2  21
BRANCH   5  26
ATOM     26  C   UNL     1       3.410   2.040  17.547  0.00  0.00    +0.000 C 
ATOM     27  C   UNL     1       4.109   1.162  18.576  0.00  0.00    +0.000 C 
ENDBRANCH   5  26
TORSDOF 8
ENDMDL
MODEL 2
REMARK VINA RESULT:      -6.0      1.841      5.312
REMARK  Name = 
REMARK  11 active torsions:
REMARK  status: ('A' for Active; 'I' for Inactive)
REMARK    1  A    between atoms: C_1  and  C_2
REMARK    2  A    between atoms: C_2  and  O_3
REMARK    3  A    between atoms: O_3  and  C_4
REMARK    4  A    between atoms: C_4  and  C_6
REMARK    5  A    between atoms: N_8  and  C_9
REMARK    6  A    between atoms: C_10  and  C_11
REMARK    7  A    between atoms: C_11  and  O_13
REMARK    8  A    between atoms: O_13  and  C_14
REMARK    9  A    between atoms: C_14  and  C_15
REMARK   10  A    between atoms: N_18  and  C_19
REMARK   11  A    between atoms: C_19  and  C_20
REMARK                            x       y       z     vdW  Elec       q    Type
REMARK                         _______ _______ _______ _____ _____    ______ ____
ROOT
ATOM      1  C   UNL     1       3.356   5.366  18.248  0.00  0.00    +0.000 A 
ATOM      2  C   UNL     1       2.491   5.992  19.078  0.00  0.00    +0.000 A 
ATOM      3  C   UNL     1       1.582   5.191  19.965  0.00  0.00    +0.000 A 
ATOM      4  O   UNL     1       0.722   5.738  20.654  0.00  0.00    +0.000 OA
ATOM      5  N   UNL     1       1.744   3.815  19.983  0.00  0.00    +0.000 N 
ATOM      6  C   UNL     1       2.598   3.145  19.082  0.00  0.00    +0.000 A 
ATOM      7  N   UNL     1       2.634   1.791  19.141  0.00  0.00    +0.000 NA
ATOM      8  C   UNL     1       3.457   1.137  18.301  0.00  0.00    +0.000 A 
ATOM      9  C   UNL     1       4.250   1.775  17.373  0.00  0.00    +0.000 A 
ATOM     10  C   UNL     1       4.203   3.166  17.313  0.00  0.00    +0.000 A 
ATOM     11  C   UNL     1       3.369   3.887  18.182  0.00  0.00    +0.000 A 
ENDROOT
BRANCH   1  14
ATOM     12  C   UNL     1       5.632   6.154  17.882  0.00  0.00    +0.000 C 
ATOM     13  O   UNL     1       6.100   5.674  18.905  0.00  0.00    +0.000 OA
ATOM     14  N   UNL     1       4.309   6.041  17.489  0.00  0.00    +0.000 N 
ATOM     15  H   UNL     1       4.101   6.311  16.530  0.00  0.00    +0.000 HD
BRANCH  12  16
ATOM     16  C   UNL     1       6.527   6.883  16.868  0.00  0.00    +0.000 C 
ATOM     17  O   UNL     1       7.201   7.850  17.190  0.00  0.00    +0.000 OA
BRANCH  16  18
ATOM     18  O   UNL     1       6.413   6.320  15.647  0.00  0.00    +0.000 OA
BRANCH  18  20
ATOM     19  C   UNL     1       6.255   4.232  14.454  0.00  0.00    +0.000 C 
ATOM     20  C   UNL     1       7.025   5.038  15.481  0.00  0.00    +0.000 C 
ENDBRANCH  18  20
ENDBRANCH  16  18
ENDBRANCH  12  16
ENDBRANCH   1  14
BRANCH   2  21
ATOM     21  C   UNL     1       2.382   7.484  19.021  0.00  0.00    +0.000 C 
ATOM     22  O   UNL     1       2.504   8.139  17.991  0.00  0.00    +0.000 OA
BRANCH  21  23
ATOM     23  O   UNL     1       2.115   8.020  20.235  0.00  0.00    +0.000 OA
BRANCH  23  24
ATOM     24  C   UNL     1       1.146   9.078  20.257  0.00  0.00    +0.000 C 
ATOM     25  C   UNL     1       0.333   9.053  21.541  0.00  0.00    +0.000 C 
ENDBRANCH  23  24
ENDBRANCH  21  23
ENDBRANCH   2  21
BRANCH   5  26
ATOM     26  C   UNL     1       1.008   3.009  20.966  0.00  0.00    +0.000 C 
ATOM     27  C   UNL     1       1.816   2.624  22.197  0.00  0.00    +0.000 C 
ENDBRANCH   5  26
TORSDOF 8
ENDMDL
MODEL 3
REMARK VINA RESULT:      -6.0      3.578      8.446
REMARK  Name = 
REMARK  11 active torsions:
REMARK  status: ('A' for Active; 'I' for Inactive)
REMARK    1  A    between atoms: C_1  and  C_2
REMARK    2  A    between atoms: C_2  and  O_3
REMARK    3  A    between atoms: O_3  and  C_4
REMARK    4  A    between atoms: C_4  and  C_6
REMARK    5  A    between atoms: N_8  and  C_9
REMARK    6  A    between atoms: C_10  and  C_11
REMARK    7  A    between atoms: C_11  and  O_13
REMARK    8  A    between atoms: O_13  and  C_14
REMARK    9  A    between atoms: C_14  and  C_15
REMARK   10  A    between atoms: N_18  and  C_19
REMARK   11  A    between atoms: C_19  and  C_20
REMARK                            x       y       z     vdW  Elec       q    Type
REMARK                         _______ _______ _______ _____ _____    ______ ____
ROOT
ATOM      1  C   UNL     1      -0.802  10.655  19.272  0.00  0.00    +0.000 A 
ATOM      2  C   UNL     1      -0.768  11.425  20.384  0.00  0.00    +0.000 A 
ATOM      3  C   UNL     1      -1.876  12.400  20.660  0.00  0.00    +0.000 A 
ATOM      4  O   UNL     1      -1.816  13.176  21.613  0.00  0.00    +0.000 OA
ATOM      5  N   UNL     1      -2.970  12.395  19.810  0.00  0.00    +0.000 N 
ATOM      6  C   UNL     1      -2.992  11.642  18.617  0.00  0.00    +0.000 A 
ATOM      7  N   UNL     1      -4.085  11.760  17.822  0.00  0.00    +0.000 NA
ATOM      8  C   UNL     1      -4.131  11.036  16.689  0.00  0.00    +0.000 A 
ATOM      9  C   UNL     1      -3.116  10.196  16.289  0.00  0.00    +0.000 A 
ATOM     10  C   UNL     1      -1.992  10.085  17.106  0.00  0.00    +0.000 A 
ATOM     11  C   UNL     1      -1.912  10.813  18.305  0.00  0.00    +0.000 A 
ENDROOT
BRANCH   1  14
ATOM     12  C   UNL     1       1.306   9.880  18.328  0.00  0.00    +0.000 C 
ATOM     13  O   UNL     1       1.661  10.968  17.897  0.00  0.00    +0.000 OA
ATOM     14  N   UNL     1       0.125   9.649  19.013  0.00  0.00    +0.000 N 
ATOM     15  H   UNL     1       0.050   8.751  19.487  0.00  0.00    +0.000 HD
BRANCH  12  16
ATOM     16  C   UNL     1       2.214   8.646  18.209  0.00  0.00    +0.000 C 
ATOM     17  O   UNL     1       2.961   8.492  17.254  0.00  0.00    +0.000 OA
BRANCH  16  18
ATOM     18  O   UNL     1       2.022   7.817  19.256  0.00  0.00    +0.000 OA
BRANCH  18  20
ATOM     19  C   UNL     1       2.141   5.465  18.743  0.00  0.00    +0.000 C 
ATOM     20  C   UNL     1       2.869   6.666  19.316  0.00  0.00    +0.000 C 
ENDBRANCH  18  20
ENDBRANCH  16  18
ENDBRANCH  12  16
ENDBRANCH   1  14
BRANCH   2  21
ATOM     21  C   UNL     1       0.435  11.365  21.271  0.00  0.00    +0.000 C 
ATOM     22  O   UNL     1       1.507  11.902  21.008  0.00  0.00    +0.000 OA
BRANCH  21  23
ATOM     23  O   UNL     1       0.197  10.664  22.405  0.00  0.00    +0.000 OA
BRANCH  23  24
ATOM     24  C   UNL     1       0.732   9.334  22.447  0.00  0.00    +0.000 C 
ATOM     25  C   UNL     1      -0.343   8.299  22.153  0.00  0.00    +0.000 C 
ENDBRANCH  23  24
ENDBRANCH  21  23
ENDBRANCH   2  21
BRANCH   5  26
ATOM     26  C   UNL     1      -4.154  13.197  20.144  0.00  0.00    +0.000 C 
ATOM     27  C   UNL     1      -5.102  12.537  21.136  0.00  0.00    +0.000 C 
ENDBRANCH   5  26
TORSDOF 8
ENDMDL
MODEL 4
REMARK VINA RESULT:      -5.9      2.731      5.859
REMARK  Name = 
REMARK  11 active torsions:
REMARK  status: ('A' for Active; 'I' for Inactive)
REMARK    1  A    between atoms: C_1  and  C_2
REMARK    2  A    between atoms: C_2  and  O_3
REMARK    3  A    between atoms: O_3  and  C_4
REMARK    4  A    between atoms: C_4  and  C_6
REMARK    5  A    between atoms: N_8  and  C_9
REMARK    6  A    between atoms: C_10  and  C_11
REMARK    7  A    between atoms: C_11  and  O_13
REMARK    8  A    between atoms: O_13  and  C_14
REMARK    9  A    between atoms: C_14  and  C_15
REMARK   10  A    between atoms: N_18  and  C_19
REMARK   11  A    between atoms: C_19  and  C_20
REMARK                            x       y       z     vdW  Elec       q    Type
REMARK                         _______ _______ _______ _____ _____    ______ ____
ROOT
ATOM      1  C   UNL     1       2.128   6.902  19.846  0.00  0.00    +0.000 A 
ATOM      2  C   UNL     1       2.696   7.158  18.645  0.00  0.00    +0.000 A 
ATOM      3  C   UNL     1       2.404   8.447  17.932  0.00  0.00    +0.000 A 
ATOM      4  O   UNL     1       2.832   8.656  16.798  0.00  0.00    +0.000 OA
ATOM      5  N   UNL     1       1.641   9.395  18.595  0.00  0.00    +0.000 N 
ATOM      6  C   UNL     1       0.995   9.119  19.818  0.00  0.00    +0.000 A 
ATOM      7  N   UNL     1       0.217  10.095  20.350  0.00  0.00    +0.000 NA
ATOM      8  C   UNL     1      -0.391   9.856  21.525  0.00  0.00    +0.000 A 
ATOM      9  C   UNL     1      -0.278   8.664  22.205  0.00  0.00    +0.000 A 
ATOM     10  C   UNL     1       0.517   7.663  21.650  0.00  0.00    +0.000 A 
ATOM     11  C   UNL     1       1.182   7.878  20.432  0.00  0.00    +0.000 A 
ENDROOT
BRANCH   1  14
ATOM     12  C   UNL     1       1.761   4.588  20.510  0.00  0.00    +0.000 C 
ATOM     13  O   UNL     1       0.835   4.378  19.739  0.00  0.00    +0.000 OA
ATOM     14  N   UNL     1       2.445   5.786  20.616  0.00  0.00    +0.000 N 
ATOM     15  H   UNL     1       3.314   5.761  21.146  0.00  0.00    +0.000 HD
BRANCH  12  16
ATOM     16  C   UNL     1       2.315   3.467  21.405  0.00  0.00    +0.000 C 
ATOM     17  O   UNL     1       2.444   3.618  22.610  0.00  0.00    +0.000 OA
BRANCH  16  18
ATOM     18  O   UNL     1       2.635   2.386  20.663  0.00  0.00    +0.000 OA
BRANCH  18  20
ATOM     19  C   UNL     1       3.525   1.776  18.508  0.00  0.00    +0.000 C 
ATOM     20  C   UNL     1       3.771   2.522  19.806  0.00  0.00    +0.000 C 
ENDBRANCH  18  20
ENDBRANCH  16  18
ENDBRANCH  12  16
ENDBRANCH   1  14
BRANCH   2  21
ATOM     21  C   UNL     1       3.527   6.097  17.994  0.00  0.00    +0.000 C 
ATOM     22  O   UNL     1       3.060   5.132  17.397  0.00  0.00    +0.000 OA
BRANCH  21  23
ATOM     23  O   UNL     1       4.853   6.337  18.129  0.00  0.00    +0.000 OA
BRANCH  23  24
ATOM     24  C   UNL     1       5.633   6.247  16.929  0.00  0.00    +0.000 C 
ATOM     25  C   UNL     1       7.104   6.516  17.207  0.00  0.00    +0.000 C 
ENDBRANCH  23  24
ENDBRANCH  21  23
ENDBRANCH   2  21
BRANCH   5  26
ATOM     26  C   UNL     1       1.485  10.736  18.017  0.00  0.00    +0.000 C 
ATOM     27  C   UNL     1       2.581  11.720  18.405  0.00  0.00    +0.000 C 
ENDBRANCH   5  26
TORSDOF 8
ENDMDL
MODEL 5
REMARK VINA RESULT:      -5.8      2.720      6.242
REMARK  Name = 
REMARK  11 active torsions:
REMARK  status: ('A' for Active; 'I' for Inactive)
REMARK    1  A    between atoms: C_1  and  C_2
REMARK    2  A    between atoms: C_2  and  O_3
REMARK    3  A    between atoms: O_3  and  C_4
REMARK    4  A    between atoms: C_4  and  C_6
REMARK    5  A    between atoms: N_8  and  C_9
REMARK    6  A    between atoms: C_10  and  C_11
REMARK    7  A    between atoms: C_11  and  O_13
REMARK    8  A    between atoms: O_13  and  C_14
REMARK    9  A    between atoms: C_14  and  C_15
REMARK   10  A    between atoms: N_18  and  C_19
REMARK   11  A    between atoms: C_19  and  C_20
REMARK                            x       y       z     vdW  Elec       q    Type
REMARK                         _______ _______ _______ _____ _____    ______ ____
ROOT
ATOM      1  C   UNL     1       3.805   5.336  18.489  0.00  0.00    +0.000 A 
ATOM      2  C   UNL     1       3.415   4.582  19.541  0.00  0.00    +0.000 A 
ATOM      3  C   UNL     1       2.444   5.133  20.546  0.00  0.00    +0.000 A 
ATOM      4  O   UNL     1       2.152   4.501  21.560  0.00  0.00    +0.000 OA
ATOM      5  N   UNL     1       1.885   6.376  20.291  0.00  0.00    +0.000 N 
ATOM      6  C   UNL     1       2.325   7.196  19.232  0.00  0.00    +0.000 A 
ATOM      7  N   UNL     1       1.758   8.422  19.111  0.00  0.00    +0.000 NA
ATOM      8  C   UNL     1       2.152   9.211  18.096  0.00  0.00    +0.000 A 
ATOM      9  C   UNL     1       3.118   8.842  17.185  0.00  0.00    +0.000 A 
ATOM     10  C   UNL     1       3.703   7.585  17.320  0.00  0.00    +0.000 A 
ATOM     11  C   UNL     1       3.307   6.725  18.357  0.00  0.00    +0.000 A 
ENDROOT
BRANCH   1  14
ATOM     12  C   UNL     1       5.968   5.087  17.396  0.00  0.00    +0.000 C 
ATOM     13  O   UNL     1       6.604   5.722  18.225  0.00  0.00    +0.000 OA
ATOM     14  N   UNL     1       4.605   4.850  17.458  0.00  0.00    +0.000 N 
ATOM     15  H   UNL     1       4.243   4.146  16.819  0.00  0.00    +0.000 HD
BRANCH  12  16
ATOM     16  C   UNL     1       6.670   4.405  16.211  0.00  0.00    +0.000 C 
ATOM     17  O   UNL     1       7.879   4.485  16.054  0.00  0.00    +0.000 OA
BRANCH  16  18
ATOM     18  O   UNL     1       5.769   3.781  15.424  0.00  0.00    +0.000 OA
BRANCH  18  20
ATOM     19  C   UNL     1       6.174   3.569  13.058  0.00  0.00    +0.000 C 
ATOM     20  C   UNL     1       5.513   4.384  14.153  0.00  0.00    +0.000 C 
ENDBRANCH  18  20
ENDBRANCH  16  18
ENDBRANCH  12  16
ENDBRANCH   1  14
BRANCH   2  21
ATOM     21  C   UNL     1       4.044   3.240  19.745  0.00  0.00    +0.000 C 
ATOM     22  O   UNL     1       5.251   3.063  19.876  0.00  0.00    +0.000 OA
BRANCH  21  23
ATOM     23  O   UNL     1       3.123   2.248  19.784  0.00  0.00    +0.000 OA
BRANCH  23  24
ATOM     24  C   UNL     1       2.423   1.990  18.559  0.00  0.00    +0.000 C 
ATOM     25  C   UNL     1       0.932   2.248  18.713  0.00  0.00    +0.000 C 
ENDBRANCH  23  24
ENDBRANCH  21  23
ENDBRANCH   2  21
BRANCH   5  26
ATOM     26  C   UNL     1       0.798   6.872  21.145  0.00  0.00    +0.000 C 
ATOM     27  C   UNL     1       1.082   8.212  21.809  0.00  0.00    +0.000 C 
ENDBRANCH   5  26
TORSDOF 8
ENDMDL
MODEL 6
REMARK VINA RESULT:      -5.8      3.438      8.393
REMARK  Name = 
REMARK  11 active torsions:
REMARK  status: ('A' for Active; 'I' for Inactive)
REMARK    1  A    between atoms: C_1  and  C_2
REMARK    2  A    between atoms: C_2  and  O_3
REMARK    3  A    between atoms: O_3  and  C_4
REMARK    4  A    between atoms: C_4  and  C_6
REMARK    5  A    between atoms: N_8  and  C_9
REMARK    6  A    between atoms: C_10  and  C_11
REMARK    7  A    between atoms: C_11  and  O_13
REMARK    8  A    between atoms: O_13  and  C_14
REMARK    9  A    between atoms: C_14  and  C_15
REMARK   10  A    between atoms: N_18  and  C_19
REMARK   11  A    between atoms: C_19  and  C_20
REMARK                            x       y       z     vdW  Elec       q    Type
REMARK                         _______ _______ _______ _____ _____    ______ ____
ROOT
ATOM      1  C   UNL     1      -0.636  10.549  19.301  0.00  0.00    +0.000 A 
ATOM      2  C   UNL     1      -0.577  11.339  20.398  0.00  0.00    +0.000 A 
ATOM      3  C   UNL     1      -1.668  12.334  20.671  0.00  0.00    +0.000 A 
ATOM      4  O   UNL     1      -1.584  13.127  21.608  0.00  0.00    +0.000 OA
ATOM      5  N   UNL     1      -2.773  12.328  19.835  0.00  0.00    +0.000 N 
ATOM      6  C   UNL     1      -2.822  11.554  18.657  0.00  0.00    +0.000 A 
ATOM      7  N   UNL     1      -3.924  11.672  17.875  0.00  0.00    +0.000 NA
ATOM      8  C   UNL     1      -3.995  10.927  16.757  0.00  0.00    +0.000 A 
ATOM      9  C   UNL     1      -2.997  10.066  16.359  0.00  0.00    +0.000 A 
ATOM     10  C   UNL     1      -1.864   9.956  17.163  0.00  0.00    +0.000 A 
ATOM     11  C   UNL     1      -1.757  10.704  18.346  0.00  0.00    +0.000 A 
ENDROOT
BRANCH   1  14
ATOM     12  C   UNL     1       1.428   9.719  18.309  0.00  0.00    +0.000 C 
ATOM     13  O   UNL     1       1.773  10.784  17.820  0.00  0.00    +0.000 OA
ATOM     14  N   UNL     1       0.273   9.525  19.049  0.00  0.00    +0.000 N 
ATOM     15  H   UNL     1       0.211   8.648  19.562  0.00  0.00    +0.000 HD
BRANCH  12  16
ATOM     16  C   UNL     1       2.323   8.473  18.207  0.00  0.00    +0.000 C 
ATOM     17  O   UNL     1       3.060   8.294  17.249  0.00  0.00    +0.000 OA
BRANCH  16  18
ATOM     18  O   UNL     1       2.131   7.666  19.271  0.00  0.00    +0.000 OA
BRANCH  18  20
ATOM     19  C   UNL     1       2.148   5.319  18.723  0.00  0.00    +0.000 C 
ATOM     20  C   UNL     1       2.926   6.478  19.316  0.00  0.00    +0.000 C 
ENDBRANCH  18  20
ENDBRANCH  16  18
ENDBRANCH  12  16
ENDBRANCH   1  14
BRANCH   2  21
ATOM     21  C   UNL     1       0.638  11.279  21.270  0.00  0.00    +0.000 C 
ATOM     22  O   UNL     1       1.070  10.244  21.769  0.00  0.00    +0.000 OA
BRANCH  21  23
ATOM     23  O   UNL     1       1.210  12.495  21.428  0.00  0.00    +0.000 OA
BRANCH  23  24
ATOM     24  C   UNL     1       2.010  12.961  20.333  0.00  0.00    +0.000 C 
ATOM     25  C   UNL     1       1.497  14.291  19.804  0.00  0.00    +0.000 C 
ENDBRANCH  23  24
ENDBRANCH  21  23
ENDBRANCH   2  21
BRANCH   5  26
ATOM     26  C   UNL     1      -3.942  13.152  20.170  0.00  0.00    +0.000 C 
ATOM     27  C   UNL     1      -4.884  12.524  21.189  0.00  0.00    +0.000 C 
ENDBRANCH   5  26
TORSDOF 8
ENDMDL
MODEL 7
REMARK VINA RESULT:      -5.8      3.693      8.511
REMARK  Name = 
REMARK  11 active torsions:
REMARK  status: ('A' for Active; 'I' for Inactive)
REMARK    1  A    between atoms: C_1  and  C_2
REMARK    2  A    between atoms: C_2  and  O_3
REMARK    3  A    between atoms: O_3  and  C_4
REMARK    4  A    between atoms: C_4  and  C_6
REMARK    5  A    between atoms: N_8  and  C_9
REMARK    6  A    between atoms: C_10  and  C_11
REMARK    7  A    between atoms: C_11  and  O_13
REMARK    8  A    between atoms: O_13  and  C_14
REMARK    9  A    between atoms: C_14  and  C_15
REMARK   10  A    between atoms: N_18  and  C_19
REMARK   11  A    between atoms: C_19  and  C_20
REMARK                            x       y       z     vdW  Elec       q    Type
REMARK                         _______ _______ _______ _____ _____    ______ ____
ROOT
ATOM      1  C   UNL     1      -0.357  11.467  18.854  0.00  0.00    +0.000 A 
ATOM      2  C   UNL     1      -0.129  12.431  19.775  0.00  0.00    +0.000 A 
ATOM      3  C   UNL     1      -1.274  13.220  20.341  0.00  0.00    +0.000 A 
ATOM      4  O   UNL     1      -1.078  14.164  21.105  0.00  0.00    +0.000 OA
ATOM      5  N   UNL     1      -2.559  12.847  19.979  0.00  0.00    +0.000 N 
ATOM      6  C   UNL     1      -2.809  11.886  18.977  0.00  0.00    +0.000 A 
ATOM      7  N   UNL     1      -4.103  11.643  18.651  0.00  0.00    +0.000 NA
ATOM      8  C   UNL     1      -4.361  10.716  17.711  0.00  0.00    +0.000 A 
ATOM      9  C   UNL     1      -3.375  10.016  17.051  0.00  0.00    +0.000 A 
ATOM     10  C   UNL     1      -2.047  10.276  17.385  0.00  0.00    +0.000 A 
ATOM     11  C   UNL     1      -1.736  11.225  18.372  0.00  0.00    +0.000 A 
ENDROOT
BRANCH   1  14
ATOM     12  C   UNL     1       1.045   9.486  19.063  0.00  0.00    +0.000 C 
ATOM     13  O   UNL     1       0.580   9.111  20.129  0.00  0.00    +0.000 OA
ATOM     14  N   UNL     1       0.638  10.618  18.376  0.00  0.00    +0.000 N 
ATOM     15  H   UNL     1       0.963  10.701  17.416  0.00  0.00    +0.000 HD
BRANCH  12  16
ATOM     16  C   UNL     1       2.110   8.656  18.327  0.00  0.00    +0.000 C 
ATOM     17  O   UNL     1       2.476   8.944  17.198  0.00  0.00    +0.000 OA
BRANCH  16  18
ATOM     18  O   UNL     1       2.506   7.616  19.090  0.00  0.00    +0.000 OA
BRANCH  18  20
ATOM     19  C   UNL     1       4.036   5.851  18.494  0.00  0.00    +0.000 C 
ATOM     20  C   UNL     1       2.605   6.350  18.433  0.00  0.00    +0.000 C 
ENDBRANCH  18  20
ENDBRANCH  16  18
ENDBRANCH  12  16
ENDBRANCH   1  14
BRANCH   2  21
ATOM     21  C   UNL     1       1.284  12.768  20.137  0.00  0.00    +0.000 C 
ATOM     22  O   UNL     1       1.817  12.436  21.191  0.00  0.00    +0.000 OA
BRANCH  21  23
ATOM     23  O   UNL     1       1.907  13.466  19.159  0.00  0.00    +0.000 OA
BRANCH  23  24
ATOM     24  C   UNL     1       2.535  14.691  19.562  0.00  0.00    +0.000 C 
ATOM     25  C   UNL     1       4.017  14.687  19.222  0.00  0.00    +0.000 C 
ENDBRANCH  23  24
ENDBRANCH  21  23
ENDBRANCH   2  21
BRANCH   5  26
ATOM     26  C   UNL     1      -3.711  13.466  20.647  0.00  0.00    +0.000 C 
ATOM     27  C   UNL     1      -4.113  12.798  21.955  0.00  0.00    +0.000 C 
ENDBRANCH   5  26
TORSDOF 8
ENDMDL
MODEL 8
REMARK VINA RESULT:      -5.7      5.982     10.470
REMARK  Name = 
REMARK  11 active torsions:
REMARK  status: ('A' for Active; 'I' for Inactive)
REMARK    1  A    between atoms: C_1  and  C_2
REMARK    2  A    between atoms: C_2  and  O_3
REMARK    3  A    between atoms: O_3  and  C_4
REMARK    4  A    between atoms: C_4  and  C_6
REMARK    5  A    between atoms: N_8  and  C_9
REMARK    6  A    between atoms: C_10  and  C_11
REMARK    7  A    between atoms: C_11  and  O_13
REMARK    8  A    between atoms: O_13  and  C_14
REMARK    9  A    between atoms: C_14  and  C_15
REMARK   10  A    between atoms: N_18  and  C_19
REMARK   11  A    between atoms: C_19  and  C_20
REMARK                            x       y       z     vdW  Elec       q    Type
REMARK                         _______ _______ _______ _____ _____    ______ ____
ROOT
ATOM      1  C   UNL     1      -2.914  12.000  19.476  0.00  0.00    +0.000 A 
ATOM      2  C   UNL     1      -3.907  12.591  20.179  0.00  0.00    +0.000 A 
ATOM      3  C   UNL     1      -5.260  12.785  19.558  0.00  0.00    +0.000 A 
ATOM      4  O   UNL     1      -6.145  13.407  20.145  0.00  0.00    +0.000 OA
ATOM      5  N   UNL     1      -5.481  12.238  18.304  0.00  0.00    +0.000 N 
ATOM      6  C   UNL     1      -4.441  11.672  17.537  0.00  0.00    +0.000 A 
ATOM      7  N   UNL     1      -4.752  11.225  16.294  0.00  0.00    +0.000 NA
ATOM      8  C   UNL     1      -3.777  10.665  15.556  0.00  0.00    +0.000 A 
ATOM      9  C   UNL     1      -2.477  10.542  15.991  0.00  0.00    +0.000 A 
ATOM     10  C   UNL     1      -2.162  11.010  17.265  0.00  0.00    +0.000 A 
ATOM     11  C   UNL     1      -3.155  11.587  18.075  0.00  0.00    +0.000 A 
ENDROOT
BRANCH   1  14
ATOM     12  C   UNL     1      -0.580  12.521  19.938  0.00  0.00    +0.000 C 
ATOM     13  O   UNL     1      -0.582  13.615  19.391  0.00  0.00    +0.000 OA
ATOM     14  N   UNL     1      -1.676  11.680  20.027  0.00  0.00    +0.000 N 
ATOM     15  H   UNL     1      -1.591  10.901  20.676  0.00  0.00    +0.000 HD
BRANCH  12  16
ATOM     16  C   UNL     1       0.669  12.005  20.670  0.00  0.00    +0.000 C 
ATOM     17  O   UNL     1       1.161  12.619  21.603  0.00  0.00    +0.000 OA
BRANCH  16  18
ATOM     18  O   UNL     1       1.102  10.856  20.109  0.00  0.00    +0.000 OA
BRANCH  18  20
ATOM     19  C   UNL     1       1.208   9.513  18.111  0.00  0.00    +0.000 C 
ATOM     20  C   UNL     1       1.371  10.898  18.705  0.00  0.00    +0.000 C 
ENDBRANCH  18  20
ENDBRANCH  16  18
ENDBRANCH  12  16
ENDBRANCH   1  14
BRANCH   2  21
ATOM     21  C   UNL     1      -3.605  13.141  21.538  0.00  0.00    +0.000 C 
ATOM     22  O   UNL     1      -3.041  14.214  21.731  0.00  0.00    +0.000 OA
BRANCH  21  23
ATOM     23  O   UNL     1      -4.042  12.325  22.526  0.00  0.00    +0.000 OA
BRANCH  23  24
ATOM     24  C   UNL     1      -4.850  12.940  23.539  0.00  0.00    +0.000 C 
ATOM     25  C   UNL     1      -4.277  12.691  24.925  0.00  0.00    +0.000 C 
ENDBRANCH  23  24
ENDBRANCH  21  23
ENDBRANCH   2  21
BRANCH   5  26
ATOM     26  C   UNL     1      -6.836  12.241  17.738  0.00  0.00    +0.000 C 
ATOM     27  C   UNL     1      -7.201  13.516  16.989  0.00  0.00    +0.000 C 
ENDBRANCH   5  26
TORSDOF 8
ENDMDL
MODEL 9
REMARK VINA RESULT:      -5.7      6.832     10.561
REMARK  Name = 
REMARK  11 active torsions:
REMARK  status: ('A' for Active; 'I' for Inactive)
REMARK    1  A    between atoms: C_1  and  C_2
REMARK    2  A    between atoms: C_2  and  O_3
REMARK    3  A    between atoms: O_3  and  C_4
REMARK    4  A    between atoms: C_4  and  C_6
REMARK    5  A    between atoms: N_8  and  C_9
REMARK    6  A    between atoms: C_10  and  C_11
REMARK    7  A    between atoms: C_11  and  O_13
REMARK    8  A    between atoms: O_13  and  C_14
REMARK    9  A    between atoms: C_14  and  C_15
REMARK   10  A    between atoms: N_18  and  C_19
REMARK   11  A    between atoms: C_19  and  C_20
REMARK                            x       y       z     vdW  Elec       q    Type
REMARK                         _______ _______ _______ _____ _____    ______ ____
ROOT
ATOM      1  C   UNL     1      -3.089  12.074  19.633  0.00  0.00    +0.000 A 
ATOM      2  C   UNL     1      -4.138  12.705  20.210  0.00  0.00    +0.000 A 
ATOM      3  C   UNL     1      -5.413  12.904  19.443  0.00  0.00    +0.000 A 
ATOM      4  O   UNL     1      -6.342  13.559  19.914  0.00  0.00    +0.000 OA
ATOM      5  N   UNL     1      -5.512  12.324  18.188  0.00  0.00    +0.000 N 
ATOM      6  C   UNL     1      -4.409  11.716  17.552  0.00  0.00    +0.000 A 
ATOM      7  N   UNL     1      -4.596  11.238  16.296  0.00  0.00    +0.000 NA
ATOM      8  C   UNL     1      -3.560  10.639  15.681  0.00  0.00    +0.000 A 
ATOM      9  C   UNL     1      -2.316  10.505  16.256  0.00  0.00    +0.000 A 
ATOM     10  C   UNL     1      -2.129  11.006  17.543  0.00  0.00    +0.000 A 
ATOM     11  C   UNL     1      -3.189  11.624  18.226  0.00  0.00    +0.000 A 
ENDROOT
BRANCH   1  14
ATOM     12  C   UNL     1      -0.836  12.602  20.391  0.00  0.00    +0.000 C 
ATOM     13  O   UNL     1      -0.784  13.711  19.880  0.00  0.00    +0.000 OA
ATOM     14  N   UNL     1      -1.924  11.748  20.321  0.00  0.00    +0.000 N 
ATOM     15  H   UNL     1      -1.909  10.951  20.953  0.00  0.00    +0.000 HD
BRANCH  12  16
ATOM     16  C   UNL     1       0.322  12.074  21.254  0.00  0.00    +0.000 C 
ATOM     17  O   UNL     1       1.414  12.620  21.260  0.00  0.00    +0.000 OA
BRANCH  16  18
ATOM     18  O   UNL     1      -0.057  10.965  21.923  0.00  0.00    +0.000 OA
BRANCH  18  20
ATOM     19  C   UNL     1      -0.137   8.571  21.654  0.00  0.00    +0.000 C 
ATOM     20  C   UNL     1       0.749   9.800  21.726  0.00  0.00    +0.000 C 
ENDBRANCH  18  20
ENDBRANCH  16  18
ENDBRANCH  12  16
ENDBRANCH   1  14
BRANCH   2  21
ATOM     21  C   UNL     1      -3.970  13.290  21.577  0.00  0.00    +0.000 C 
ATOM     22  O   UNL     1      -3.658  14.458  21.787  0.00  0.00    +0.000 OA
BRANCH  21  23
ATOM     23  O   UNL     1      -4.219  12.384  22.551  0.00  0.00    +0.000 OA
BRANCH  23  24
ATOM     24  C   UNL     1      -3.532  12.591  23.794  0.00  0.00    +0.000 C 
ATOM     25  C   UNL     1      -4.473  12.424  24.977  0.00  0.00    +0.000 C 
ENDBRANCH  23  24
ENDBRANCH  21  23
ENDBRANCH   2  21
BRANCH   5  26
ATOM     26  C   UNL     1      -6.799  12.335  17.481  0.00  0.00    +0.000 C 
ATOM     27  C   UNL     1      -7.117  13.646  16.774  0.00  0.00    +0.000 C 
ENDBRANCH   5  26
TORSDOF 8
ENDMDL
