MODEL 1
REMARK VINA RESULT:      -6.8      0.000      0.000
REMARK  Name = 
REMARK  6 active torsions:
REMARK  status: ('A' for Active; 'I' for Inactive)
REMARK    1  A    between atoms: C_1  and  N_2
REMARK    2  A    between atoms: N_2  and  C_3
REMARK    3  A    between atoms: N_2  and  C_6
REMARK    4  A    between atoms: C_3  and  C_4
REMARK    5  A    between atoms: C_11  and  O_12
REMARK    6  A    between atoms: C_13  and  O_14
REMARK                            x       y       z     vdW  Elec       q    Type
REMARK                         _______ _______ _______ _____ _____    ______ ____
ROOT
ATOM      1  C   UNL     1       5.004   5.865  16.451  0.00  0.00    +0.000 C 
ATOM      2  C   UNL     1       4.671   6.777  17.652  0.00  0.00    +0.000 C 
ATOM      3  C   UNL     1       3.219   6.622  18.086  0.00  0.00    +0.000 C 
ATOM      4  C   UNL     1       2.824   5.192  18.309  0.00  0.00    +0.000 A 
ATOM      5  C   UNL     1       1.703   4.911  19.111  0.00  0.00    +0.000 A 
ATOM      6  C   UNL     1       1.307   3.597  19.310  0.00  0.00    +0.000 A 
ATOM      7  C   UNL     1       2.015   2.557  18.706  0.00  0.00    +0.000 A 
ATOM      8  C   UNL     1       3.116   2.818  17.905  0.00  0.00    +0.000 A 
ATOM      9  C   UNL     1       3.530   4.142  17.695  0.00  0.00    +0.000 A 
ATOM     10  C   UNL     1       4.773   4.388  16.870  0.00  0.00    +0.000 C 
ENDROOT
BRANCH   1  12
ATOM     11  C   UNL     1       7.265   6.729  16.939  0.00  0.00    +0.000 C 
ATOM     12  N   UNL     1       6.385   6.106  15.941  0.00  0.00    +0.000 NA
BRANCH  12  13
ATOM     13  C   UNL     1       7.030   4.896  15.374  0.00  0.00    +0.000 C 
BRANCH  13  14
ATOM     14  C   UNL     1       7.074   4.812  13.841  0.00  0.00    +0.000 C 
ATOM     15 CL   UNL     1       5.829   3.693  13.234  0.00  0.00    +0.000 Cl
ENDBRANCH  13  14
ENDBRANCH  12  13
ENDBRANCH   1  12
BRANCH   6  16
ATOM     16  O   UNL     1       0.239   3.270  20.096  0.00  0.00    +0.000 OA
ATOM     17  H   UNL     1       0.366   3.687  20.965  0.00  0.00    +0.000 HD
ENDBRANCH   6  16
BRANCH   7  18
ATOM     18  O   UNL     1       1.632   1.262  18.907  0.00  0.00    +0.000 OA
ATOM     19  H   UNL     1       2.474   0.767  18.951  0.00  0.00    +0.000 HD
ENDBRANCH   7  18
TORSDOF 5
ENDMDL
MODEL 2
REMARK VINA RESULT:      -6.6      1.281      1.333
REMARK  Name = 
REMARK  6 active torsions:
REMARK  status: ('A' for Active; 'I' for Inactive)
REMARK    1  A    between atoms: C_1  and  N_2
REMARK    2  A    between atoms: N_2  and  C_3
REMARK    3  A    between atoms: N_2  and  C_6
REMARK    4  A    between atoms: C_3  and  C_4
REMARK    5  A    between atoms: C_11  and  O_12
REMARK    6  A    between atoms: C_13  and  O_14
REMARK                            x       y       z     vdW  Elec       q    Type
REMARK                         _______ _______ _______ _____ _____    ______ ____
ROOT
ATOM      1  C   UNL     1       5.049   5.391  17.028  0.00  0.00    +0.000 C 
ATOM      2  C   UNL     1       5.611   5.333  18.465  0.00  0.00    +0.000 C 
ATOM      3  C   UNL     1       4.502   5.430  19.505  0.00  0.00    +0.000 C 
ATOM      4  C   UNL     1       3.391   4.449  19.270  0.00  0.00    +0.000 A 
ATOM      5  C   UNL     1       2.544   4.109  20.340  0.00  0.00    +0.000 A 
ATOM      6  C   UNL     1       1.497   3.222  20.138  0.00  0.00    +0.000 A 
ATOM      7  C   UNL     1       1.280   2.677  18.872  0.00  0.00    +0.000 A 
ATOM      8  C   UNL     1       2.101   3.010  17.805  0.00  0.00    +0.000 A 
ATOM      9  C   UNL     1       3.165   3.903  17.993  0.00  0.00    +0.000 A 
ATOM     10  C   UNL     1       4.080   4.195  16.825  0.00  0.00    +0.000 C 
ENDROOT
BRANCH   1  12
ATOM     11  C   UNL     1       7.313   4.633  16.398  0.00  0.00    +0.000 C 
ATOM     12  N   UNL     1       6.138   5.425  16.010  0.00  0.00    +0.000 NA
BRANCH  12  13
ATOM     13  C   UNL     1       5.691   5.044  14.647  0.00  0.00    +0.000 C 
BRANCH  13  14
ATOM     14  C   UNL     1       6.537   3.979  13.934  0.00  0.00    +0.000 C 
ATOM     15 CL   UNL     1       5.741   3.439  12.435  0.00  0.00    +0.000 Cl
ENDBRANCH  13  14
ENDBRANCH  12  13
ENDBRANCH   1  12
BRANCH   6  16
ATOM     16  O   UNL     1       0.660   2.844  21.148  0.00  0.00    +0.000 OA
ATOM     17  H   UNL     1       1.188   2.749  21.958  0.00  0.00    +0.000 HD
ENDBRANCH   6  16
BRANCH   7  18
ATOM     18  O   UNL     1       0.255   1.797  18.672  0.00  0.00    +0.000 OA
ATOM     19  H   UNL     1      -0.538   2.364  18.606  0.00  0.00    +0.000 HD
ENDBRANCH   7  18
TORSDOF 5
ENDMDL
MODEL 3
REMARK VINA RESULT:      -6.4      4.003      6.232
REMARK  Name = 
REMARK  6 active torsions:
REMARK  status: ('A' for Active; 'I' for Inactive)
REMARK    1  A    between atoms: C_1  and  N_2
REMARK    2  A    between atoms: N_2  and  C_3
REMARK    3  A    between atoms: N_2  and  C_6
REMARK    4  A    between atoms: C_3  and  C_4
REMARK    5  A    between atoms: C_11  and  O_12
REMARK    6  A    between atoms: C_13  and  O_14
REMARK                            x       y       z     vdW  Elec       q    Type
REMARK                         _______ _______ _______ _____ _____    ______ ____
ROOT
ATOM      1  C   UNL     1       2.205   4.451  18.422  0.00  0.00    +0.000 C 
ATOM      2  C   UNL     1       2.710   3.118  17.826  0.00  0.00    +0.000 C 
ATOM      3  C   UNL     1       3.482   3.340  16.532  0.00  0.00    +0.000 C 
ATOM      4  C   UNL     1       4.564   4.371  16.664  0.00  0.00    +0.000 A 
ATOM      5  C   UNL     1       5.619   4.376  15.734  0.00  0.00    +0.000 A 
ATOM      6  C   UNL     1       6.616   5.335  15.824  0.00  0.00    +0.000 A 
ATOM      7  C   UNL     1       6.567   6.299  16.832  0.00  0.00    +0.000 A 
ATOM      8  C   UNL     1       5.528   6.313  17.751  0.00  0.00    +0.000 A 
ATOM      9  C   UNL     1       4.513   5.349  17.673  0.00  0.00    +0.000 A 
ATOM     10  C   UNL     1       3.430   5.353  18.729  0.00  0.00    +0.000 C 
ENDROOT
BRANCH   1  12
ATOM     11  C   UNL     1       0.595   2.965  19.561  0.00  0.00    +0.000 C 
ATOM     12  N   UNL     1       1.342   4.228  19.617  0.00  0.00    +0.000 NA
BRANCH  12  13
ATOM     13  C   UNL     1       2.072   4.334  20.905  0.00  0.00    +0.000 C 
BRANCH  13  14
ATOM     14  C   UNL     1       2.412   3.006  21.598  0.00  0.00    +0.000 C 
ATOM     15 CL   UNL     1       3.912   2.313  20.933  0.00  0.00    +0.000 Cl
ENDBRANCH  13  14
ENDBRANCH  12  13
ENDBRANCH   1  12
BRANCH   6  16
ATOM     16  O   UNL     1       7.672   5.370  14.959  0.00  0.00    +0.000 OA
ATOM     17  H   UNL     1       7.396   4.945  14.129  0.00  0.00    +0.000 HD
ENDBRANCH   6  16
BRANCH   7  18
ATOM     18  O   UNL     1       7.552   7.240  16.929  0.00  0.00    +0.000 OA
ATOM     19  H   UNL     1       7.069   8.083  17.029  0.00  0.00    +0.000 HD
ENDBRANCH   7  18
TORSDOF 5
ENDMDL
MODEL 4
REMARK VINA RESULT:      -6.4      3.798      5.792
REMARK  Name = 
REMARK  6 active torsions:
REMARK  status: ('A' for Active; 'I' for Inactive)
REMARK    1  A    between atoms: C_1  and  N_2
REMARK    2  A    between atoms: N_2  and  C_3
REMARK    3  A    between atoms: N_2  and  C_6
REMARK    4  A    between atoms: C_3  and  C_4
REMARK    5  A    between atoms: C_11  and  O_12
REMARK    6  A    between atoms: C_13  and  O_14
REMARK                            x       y       z     vdW  Elec       q    Type
REMARK                         _______ _______ _______ _____ _____    ______ ____
ROOT
ATOM      1  C   UNL     1       4.495   3.724  19.295  0.00  0.00    +0.000 C 
ATOM      2  C   UNL     1       4.812   5.234  19.352  0.00  0.00    +0.000 C 
ATOM      3  C   UNL     1       6.107   5.563  18.620  0.00  0.00    +0.000 C 
ATOM      4  C   UNL     1       6.150   5.008  17.227  0.00  0.00    +0.000 A 
ATOM      5  C   UNL     1       7.039   5.572  16.295  0.00  0.00    +0.000 A 
ATOM      6  C   UNL     1       7.111   5.059  15.009  0.00  0.00    +0.000 A 
ATOM      7  C   UNL     1       6.309   3.977  14.645  0.00  0.00    +0.000 A 
ATOM      8  C   UNL     1       5.434   3.403  15.556  0.00  0.00    +0.000 A 
ATOM      9  C   UNL     1       5.349   3.912  16.859  0.00  0.00    +0.000 A 
ATOM     10  C   UNL     1       4.338   3.306  17.807  0.00  0.00    +0.000 C 
ENDROOT
BRANCH   1  12
ATOM     11  C   UNL     1       2.639   4.558  20.693  0.00  0.00    +0.000 C 
ATOM     12  N   UNL     1       3.300   3.379  20.116  0.00  0.00    +0.000 NA
BRANCH  12  13
ATOM     13  C   UNL     1       2.309   2.537  19.401  0.00  0.00    +0.000 C 
BRANCH  13  14
ATOM     14  C   UNL     1       0.992   3.226  19.016  0.00  0.00    +0.000 C 
ATOM     15 CL   UNL     1       1.213   4.257  17.581  0.00  0.00    +0.000 Cl
ENDBRANCH  13  14
ENDBRANCH  12  13
ENDBRANCH   1  12
BRANCH   6  16
ATOM     16  O   UNL     1       7.943   5.584  14.061  0.00  0.00    +0.000 OA
ATOM     17  H   UNL     1       8.514   6.242  14.493  0.00  0.00    +0.000 HD
ENDBRANCH   6  16
BRANCH   7  18
ATOM     18  O   UNL     1       6.371   3.474  13.377  0.00  0.00    +0.000 OA
ATOM     19  H   UNL     1       5.942   4.159  12.826  0.00  0.00    +0.000 HD
ENDBRANCH   7  18
TORSDOF 5
ENDMDL
MODEL 5
REMARK VINA RESULT:      -6.4      2.576      3.213
REMARK  Name = 
REMARK  6 active torsions:
REMARK  status: ('A' for Active; 'I' for Inactive)
REMARK    1  A    between atoms: C_1  and  N_2
REMARK    2  A    between atoms: N_2  and  C_3
REMARK    3  A    between atoms: N_2  and  C_6
REMARK    4  A    between atoms: C_3  and  C_4
REMARK    5  A    between atoms: C_11  and  O_12
REMARK    6  A    between atoms: C_13  and  O_14
REMARK                            x       y       z     vdW  Elec       q    Type
REMARK                         _______ _______ _______ _____ _____    ______ ____
ROOT
ATOM      1  C   UNL     1       6.020   4.935  18.547  0.00  0.00    +0.000 C 
ATOM      2  C   UNL     1       5.473   4.903  17.103  0.00  0.00    +0.000 C 
ATOM      3  C   UNL     1       4.591   3.684  16.865  0.00  0.00    +0.000 C 
ATOM      4  C   UNL     1       3.518   3.526  17.902  0.00  0.00    +0.000 A 
ATOM      5  C   UNL     1       2.387   2.747  17.599  0.00  0.00    +0.000 A 
ATOM      6  C   UNL     1       1.395   2.569  18.552  0.00  0.00    +0.000 A 
ATOM      7  C   UNL     1       1.525   3.155  19.811  0.00  0.00    +0.000 A 
ATOM      8  C   UNL     1       2.639   3.917  20.128  0.00  0.00    +0.000 A 
ATOM      9  C   UNL     1       3.650   4.108  19.176  0.00  0.00    +0.000 A 
ATOM     10  C   UNL     1       4.820   4.998  19.531  0.00  0.00    +0.000 C 
ENDROOT
BRANCH   1  12
ATOM     11  C   UNL     1       8.129   5.684  19.590  0.00  0.00    +0.000 C 
ATOM     12  N   UNL     1       6.984   6.055  18.748  0.00  0.00    +0.000 NA
BRANCH  12  13
ATOM     13  C   UNL     1       7.457   6.666  17.481  0.00  0.00    +0.000 C 
BRANCH  13  14
ATOM     14  C   UNL     1       7.235   8.179  17.339  0.00  0.00    +0.000 C 
ATOM     15 CL   UNL     1       8.472   9.087  18.242  0.00  0.00    +0.000 Cl
ENDBRANCH  13  14
ENDBRANCH  12  13
ENDBRANCH   1  12
BRANCH   6  16
ATOM     16  O   UNL     1       0.268   1.840  18.300  0.00  0.00    +0.000 OA
ATOM     17  H   UNL     1       0.317   1.514  17.386  0.00  0.00    +0.000 HD
ENDBRANCH   6  16
BRANCH   7  18
ATOM     18  O   UNL     1       0.546   2.988  20.748  0.00  0.00    +0.000 OA
ATOM     19  H   UNL     1      -0.286   3.068  20.242  0.00  0.00    +0.000 HD
ENDBRANCH   7  18
TORSDOF 5
ENDMDL
MODEL 6
REMARK VINA RESULT:      -6.3      3.988      5.918
REMARK  Name = 
REMARK  6 active torsions:
REMARK  status: ('A' for Active; 'I' for Inactive)
REMARK    1  A    between atoms: C_1  and  N_2
REMARK    2  A    between atoms: N_2  and  C_3
REMARK    3  A    between atoms: N_2  and  C_6
REMARK    4  A    between atoms: C_3  and  C_4
REMARK    5  A    between atoms: C_11  and  O_12
REMARK    6  A    between atoms: C_13  and  O_14
REMARK                            x       y       z     vdW  Elec       q    Type
REMARK                         _______ _______ _______ _____ _____    ______ ____
ROOT
ATOM      1  C   UNL     1       2.974   6.228  19.690  0.00  0.00    +0.000 C 
ATOM      2  C   UNL     1       2.393   6.448  18.276  0.00  0.00    +0.000 C 
ATOM      3  C   UNL     1       3.445   6.990  17.317  0.00  0.00    +0.000 C 
ATOM      4  C   UNL     1       4.708   6.180  17.312  0.00  0.00    +0.000 A 
ATOM      5  C   UNL     1       5.572   6.271  16.207  0.00  0.00    +0.000 A 
ATOM      6  C   UNL     1       6.756   5.548  16.193  0.00  0.00    +0.000 A 
ATOM      7  C   UNL     1       7.091   4.740  17.280  0.00  0.00    +0.000 A 
ATOM      8  C   UNL     1       6.254   4.648  18.382  0.00  0.00    +0.000 A 
ATOM      9  C   UNL     1       5.053   5.371  18.410  0.00  0.00    +0.000 A 
ATOM     10  C   UNL     1       4.132   5.198  19.597  0.00  0.00    +0.000 C 
ENDROOT
BRANCH   1  12
ATOM     11  C   UNL     1       1.067   6.937  21.090  0.00  0.00    +0.000 C 
ATOM     12  N   UNL     1       1.920   5.820  20.662  0.00  0.00    +0.000 NA
BRANCH  12  13
ATOM     13  C   UNL     1       1.083   4.688  20.192  0.00  0.00    +0.000 C 
BRANCH  13  14
ATOM     14  C   UNL     1       1.317   3.341  20.891  0.00  0.00    +0.000 C 
ATOM     15 CL   UNL     1       1.733   2.078  19.707  0.00  0.00    +0.000 Cl
ENDBRANCH  13  14
ENDBRANCH  12  13
ENDBRANCH   1  12
BRANCH   6  16
ATOM     16  O   UNL     1       7.619   5.586  15.135  0.00  0.00    +0.000 OA
ATOM     17  H   UNL     1       7.263   5.013  14.436  0.00  0.00    +0.000 HD
ENDBRANCH   6  16
BRANCH   7  18
ATOM     18  O   UNL     1       8.252   4.021  17.267  0.00  0.00    +0.000 OA
ATOM     19  H   UNL     1       8.942   4.684  17.065  0.00  0.00    +0.000 HD
ENDBRANCH   7  18
TORSDOF 5
ENDMDL
MODEL 7
REMARK VINA RESULT:      -6.3      4.064      6.045
REMARK  Name = 
REMARK  6 active torsions:
REMARK  status: ('A' for Active; 'I' for Inactive)
REMARK    1  A    between atoms: C_1  and  N_2
REMARK    2  A    between atoms: N_2  and  C_3
REMARK    3  A    between atoms: N_2  and  C_6
REMARK    4  A    between atoms: C_3  and  C_4
REMARK    5  A    between atoms: C_11  and  O_12
REMARK    6  A    between atoms: C_13  and  O_14
REMARK                            x       y       z     vdW  Elec       q    Type
REMARK                         _______ _______ _______ _____ _____    ______ ____
ROOT
ATOM      1  C   UNL     1       2.364   4.487  18.964  0.00  0.00    +0.000 C 
ATOM      2  C   UNL     1       2.059   5.697  18.054  0.00  0.00    +0.000 C 
ATOM      3  C   UNL     1       3.217   6.686  18.029  0.00  0.00    +0.000 C 
ATOM      4  C   UNL     1       4.535   6.038  17.719  0.00  0.00    +0.000 A 
ATOM      5  C   UNL     1       5.588   6.832  17.235  0.00  0.00    +0.000 A 
ATOM      6  C   UNL     1       6.821   6.257  16.965  0.00  0.00    +0.000 A 
ATOM      7  C   UNL     1       7.016   4.893  17.183  0.00  0.00    +0.000 A 
ATOM      8  C   UNL     1       5.989   4.098  17.670  0.00  0.00    +0.000 A 
ATOM      9  C   UNL     1       4.737   4.665  17.947  0.00  0.00    +0.000 A 
ATOM     10  C   UNL     1       3.620   3.758  18.415  0.00  0.00    +0.000 C 
ENDROOT
BRANCH   1  12
ATOM     11  C   UNL     1       1.379   2.289  18.422  0.00  0.00    +0.000 C 
ATOM     12  N   UNL     1       1.187   3.582  19.092  0.00  0.00    +0.000 NA
BRANCH  12  13
ATOM     13  C   UNL     1       0.748   3.371  20.494  0.00  0.00    +0.000 C 
BRANCH  13  14
ATOM     14  C   UNL     1       1.809   3.619  21.577  0.00  0.00    +0.000 C 
ATOM     15 CL   UNL     1       2.962   2.265  21.654  0.00  0.00    +0.000 Cl
ENDBRANCH  13  14
ENDBRANCH  12  13
ENDBRANCH   1  12
BRANCH   6  16
ATOM     16  O   UNL     1       7.870   6.981  16.473  0.00  0.00    +0.000 OA
ATOM     17  H   UNL     1       8.589   6.362  16.260  0.00  0.00    +0.000 HD
ENDBRANCH   6  16
BRANCH   7  18
ATOM     18  O   UNL     1       8.226   4.322  16.911  0.00  0.00    +0.000 OA
ATOM     19  H   UNL     1       8.265   3.548  17.507  0.00  0.00    +0.000 HD
ENDBRANCH   7  18
TORSDOF 5
ENDMDL
MODEL 8
REMARK VINA RESULT:      -6.3      4.177      6.353
REMARK  Name = 
REMARK  6 active torsions:
REMARK  status: ('A' for Active; 'I' for Inactive)
REMARK    1  A    between atoms: C_1  and  N_2
REMARK    2  A    between atoms: N_2  and  C_3
REMARK    3  A    between atoms: N_2  and  C_6
REMARK    4  A    between atoms: C_3  and  C_4
REMARK    5  A    between atoms: C_11  and  O_12
REMARK    6  A    between atoms: C_13  and  O_14
REMARK                            x       y       z     vdW  Elec       q    Type
REMARK                         _______ _______ _______ _____ _____    ______ ____
ROOT
ATOM      1  C   UNL     1       2.696   4.971  18.922  0.00  0.00    +0.000 C 
ATOM      2  C   UNL     1       2.994   3.574  18.334  0.00  0.00    +0.000 C 
ATOM      3  C   UNL     1       3.588   3.671  16.935  0.00  0.00    +0.000 C 
ATOM      4  C   UNL     1       4.763   4.601  16.859  0.00  0.00    +0.000 A 
ATOM      5  C   UNL     1       5.669   4.470  15.793  0.00  0.00    +0.000 A 
ATOM      6  C   UNL     1       6.748   5.335  15.692  0.00  0.00    +0.000 A 
ATOM      7  C   UNL     1       6.927   6.339  16.643  0.00  0.00    +0.000 A 
ATOM      8  C   UNL     1       6.036   6.488  17.696  0.00  0.00    +0.000 A 
ATOM      9  C   UNL     1       4.941   5.620  17.812  0.00  0.00    +0.000 A 
ATOM     10  C   UNL     1       4.026   5.768  19.007  0.00  0.00    +0.000 C 
ENDROOT
BRANCH   1  12
ATOM     11  C   UNL     1       1.545   6.183  20.739  0.00  0.00    +0.000 C 
ATOM     12  N   UNL     1       1.998   4.879  20.236  0.00  0.00    +0.000 NA
BRANCH  12  13
ATOM     13  C   UNL     1       0.876   3.908  20.248  0.00  0.00    +0.000 C 
BRANCH  13  14
ATOM     14  C   UNL     1       1.068   2.666  21.130  0.00  0.00    +0.000 C 
ATOM     15 CL   UNL     1       2.743   2.569  21.729  0.00  0.00    +0.000 Cl
ENDBRANCH  13  14
ENDBRANCH  12  13
ENDBRANCH   1  12
BRANCH   6  16
ATOM     16  O   UNL     1       7.668   5.236  14.687  0.00  0.00    +0.000 OA
ATOM     17  H   UNL     1       8.475   4.838  15.055  0.00  0.00    +0.000 HD
ENDBRANCH   6  16
BRANCH   7  18
ATOM     18  O   UNL     1       7.993   7.188  16.551  0.00  0.00    +0.000 OA
ATOM     19  H   UNL     1       8.648   6.693  16.020  0.00  0.00    +0.000 HD
ENDBRANCH   7  18
TORSDOF 5
ENDMDL
MODEL 9
REMARK VINA RESULT:      -6.2      4.234      6.271
REMARK  Name = 
REMARK  6 active torsions:
REMARK  status: ('A' for Active; 'I' for Inactive)
REMARK    1  A    between atoms: C_1  and  N_2
REMARK    2  A    between atoms: N_2  and  C_3
REMARK    3  A    between atoms: N_2  and  C_6
REMARK    4  A    between atoms: C_3  and  C_4
REMARK    5  A    between atoms: C_11  and  O_12
REMARK    6  A    between atoms: C_13  and  O_14
REMARK                            x       y       z     vdW  Elec       q    Type
REMARK                         _______ _______ _______ _____ _____    ______ ____
ROOT
ATOM      1  C   UNL     1       4.030   3.460  18.582  0.00  0.00    +0.000 C 
ATOM      2  C   UNL     1       4.499   4.891  18.926  0.00  0.00    +0.000 C 
ATOM      3  C   UNL     1       5.895   5.169  18.384  0.00  0.00    +0.000 C 
ATOM      4  C   UNL     1       6.032   4.842  16.925  0.00  0.00    +0.000 A 
ATOM      5  C   UNL     1       7.075   5.433  16.190  0.00  0.00    +0.000 A 
ATOM      6  C   UNL     1       7.233   5.126  14.847  0.00  0.00    +0.000 A 
ATOM      7  C   UNL     1       6.364   4.225  14.230  0.00  0.00    +0.000 A 
ATOM      8  C   UNL     1       5.337   3.627  14.945  0.00  0.00    +0.000 A 
ATOM      9  C   UNL     1       5.163   3.928  16.303  0.00  0.00    +0.000 A 
ATOM     10  C   UNL     1       3.995   3.309  17.037  0.00  0.00    +0.000 C 
ENDROOT
BRANCH   1  12
ATOM     11  C   UNL     1       1.953   2.129  18.480  0.00  0.00    +0.000 C 
ATOM     12  N   UNL     1       2.720   3.141  19.219  0.00  0.00    +0.000 NA
BRANCH  12  13
ATOM     13  C   UNL     1       2.831   2.756  20.648  0.00  0.00    +0.000 C 
BRANCH  13  14
ATOM     14  C   UNL     1       2.164   3.705  21.654  0.00  0.00    +0.000 C 
ATOM     15 CL   UNL     1       1.385   5.070  20.817  0.00  0.00    +0.000 Cl
ENDBRANCH  13  14
ENDBRANCH  12  13
ENDBRANCH   1  12
BRANCH   6  16
ATOM     16  O   UNL     1       8.217   5.689  14.083  0.00  0.00    +0.000 OA
ATOM     17  H   UNL     1       8.990   5.100  14.106  0.00  0.00    +0.000 HD
ENDBRANCH   6  16
BRANCH   7  18
ATOM     18  O   UNL     1       6.513   3.928  12.906  0.00  0.00    +0.000 OA
ATOM     19  H   UNL     1       6.383   4.784  12.452  0.00  0.00    +0.000 HD
ENDBRANCH   7  18
TORSDOF 5
ENDMDL
