MODEL 1
REMARK VINA RESULT:      -4.9      0.000      0.000
REMARK  Name = 
REMARK  2 active torsions:
REMARK  status: ('A' for Active; 'I' for Inactive)
REMARK    1  A    between atoms: C_1  and  C_2
REMARK    2  A    between atoms: C_9  and  S_10
REMARK                            x       y       z     vdW  Elec       q    Type
REMARK                         _______ _______ _______ _____ _____    ______ ____
ROOT
ATOM      1  C   UNL     1       4.089   3.054  17.083  0.00  0.00    +0.000 C 
ATOM      2  C   UNL     1       4.889   4.083  17.794  0.00  0.00    +0.000 A 
ATOM      3  N   UNL     1       4.773   4.338  19.087  0.00  0.00    +0.000 NA
ATOM      4  C   UNL     1       5.661   5.339  19.365  0.00  0.00    +0.000 A 
ATOM      5  C   UNL     1       6.325   5.700  18.225  0.00  0.00    +0.000 A 
ATOM      6  C   UNL     1       7.327   6.657  17.925  0.00  0.00    +0.000 A 
ATOM      7  N   UNL     1       7.784   6.782  16.718  0.00  0.00    +0.000 NA
ATOM      8  N   UNL     1       7.275   5.948  15.679  0.00  0.00    +0.000 NA
ATOM      9  C   UNL     1       6.353   5.060  15.925  0.00  0.00    +0.000 A 
ATOM     10  N   UNL     1       5.843   4.906  17.217  0.00  0.00    +0.000 N 
ENDROOT
BRANCH   9  11
ATOM     11  S   UNL     1       5.818   4.105  14.564  0.00  0.00    +0.000 S 
ATOM     12  H   UNL     1       4.939   5.015  14.118  0.00  0.00    +0.000 HD
ENDBRANCH   9  11
TORSDOF 1
ENDMDL
MODEL 2
REMARK VINA RESULT:      -4.8      3.197      4.656
REMARK  Name = 
REMARK  2 active torsions:
REMARK  status: ('A' for Active; 'I' for Inactive)
REMARK    1  A    between atoms: C_1  and  C_2
REMARK    2  A    between atoms: C_9  and  S_10
REMARK                            x       y       z     vdW  Elec       q    Type
REMARK                         _______ _______ _______ _____ _____    ______ ____
ROOT
ATOM      1  C   UNL     1       5.874   5.210  19.282  0.00  0.00    +0.000 C 
ATOM      2  C   UNL     1       4.916   4.077  19.254  0.00  0.00    +0.000 A 
ATOM      3  N   UNL     1       5.187   2.875  19.739  0.00  0.00    +0.000 NA
ATOM      4  C   UNL     1       4.073   2.113  19.527  0.00  0.00    +0.000 A 
ATOM      5  C   UNL     1       3.111   2.859  18.903  0.00  0.00    +0.000 A 
ATOM      6  C   UNL     1       1.794   2.596  18.450  0.00  0.00    +0.000 A 
ATOM      7  N   UNL     1       1.092   3.524  17.876  0.00  0.00    +0.000 NA
ATOM      8  N   UNL     1       1.650   4.824  17.699  0.00  0.00    +0.000 NA
ATOM      9  C   UNL     1       2.859   5.095  18.105  0.00  0.00    +0.000 A 
ATOM     10  N   UNL     1       3.636   4.113  18.725  0.00  0.00    +0.000 N 
ENDROOT
BRANCH   9  11
ATOM     11  S   UNL     1       3.420   6.726  17.826  0.00  0.00    +0.000 S 
ATOM     12  H   UNL     1       4.510   6.360  17.135  0.00  0.00    +0.000 HD
ENDBRANCH   9  11
TORSDOF 1
ENDMDL
MODEL 3
REMARK VINA RESULT:      -4.8      1.790      2.810
REMARK  Name = 
REMARK  2 active torsions:
REMARK  status: ('A' for Active; 'I' for Inactive)
REMARK    1  A    between atoms: C_1  and  C_2
REMARK    2  A    between atoms: C_9  and  S_10
REMARK                            x       y       z     vdW  Elec       q    Type
REMARK                         _______ _______ _______ _____ _____    ______ ____
ROOT
ATOM      1  C   UNL     1       5.114   5.423  19.372  0.00  0.00    +0.000 C 
ATOM      2  C   UNL     1       5.077   4.742  18.054  0.00  0.00    +0.000 A 
ATOM      3  N   UNL     1       4.218   3.783  17.747  0.00  0.00    +0.000 NA
ATOM      4  C   UNL     1       4.497   3.410  16.462  0.00  0.00    +0.000 A 
ATOM      5  C   UNL     1       5.540   4.151  15.980  0.00  0.00    +0.000 A 
ATOM      6  C   UNL     1       6.237   4.192  14.746  0.00  0.00    +0.000 A 
ATOM      7  N   UNL     1       7.216   5.023  14.565  0.00  0.00    +0.000 NA
ATOM      8  N   UNL     1       7.597   5.906  15.618  0.00  0.00    +0.000 NA
ATOM      9  C   UNL     1       6.975   5.890  16.763  0.00  0.00    +0.000 A 
ATOM     10  N   UNL     1       5.918   5.005  16.984  0.00  0.00    +0.000 N 
ENDROOT
BRANCH   9  11
ATOM     11  S   UNL     1       7.543   7.024  17.965  0.00  0.00    +0.000 S 
ATOM     12  H   UNL     1       7.642   8.058  17.117  0.00  0.00    +0.000 HD
ENDBRANCH   9  11
TORSDOF 1
ENDMDL
MODEL 4
REMARK VINA RESULT:      -4.7      3.196      4.226
REMARK  Name = 
REMARK  2 active torsions:
REMARK  status: ('A' for Active; 'I' for Inactive)
REMARK    1  A    between atoms: C_1  and  C_2
REMARK    2  A    between atoms: C_9  and  S_10
REMARK                            x       y       z     vdW  Elec       q    Type
REMARK                         _______ _______ _______ _____ _____    ______ ____
ROOT
ATOM      1  C   UNL     1       1.057   3.829  20.377  0.00  0.00    +0.000 C 
ATOM      2  C   UNL     1       1.960   3.350  19.301  0.00  0.00    +0.000 A 
ATOM      3  N   UNL     1       2.044   2.084  18.923  0.00  0.00    +0.000 NA
ATOM      4  C   UNL     1       2.975   2.040  17.923  0.00  0.00    +0.000 A 
ATOM      5  C   UNL     1       3.464   3.295  17.689  0.00  0.00    +0.000 A 
ATOM      6  C   UNL     1       4.424   3.832  16.794  0.00  0.00    +0.000 A 
ATOM      7  N   UNL     1       4.695   5.100  16.795  0.00  0.00    +0.000 NA
ATOM      8  N   UNL     1       4.020   5.967  17.705  0.00  0.00    +0.000 NA
ATOM      9  C   UNL     1       3.134   5.501  18.539  0.00  0.00    +0.000 A 
ATOM     10  N   UNL     1       2.825   4.139  18.560  0.00  0.00    +0.000 N 
ENDROOT
BRANCH   9  11
ATOM     11  S   UNL     1       2.383   6.671  19.599  0.00  0.00    +0.000 S 
ATOM     12  H   UNL     1       3.447   6.799  20.407  0.00  0.00    +0.000 HD
ENDBRANCH   9  11
TORSDOF 1
ENDMDL
MODEL 5
REMARK VINA RESULT:      -4.7      2.359      3.110
REMARK  Name = 
REMARK  2 active torsions:
REMARK  status: ('A' for Active; 'I' for Inactive)
REMARK    1  A    between atoms: C_1  and  C_2
REMARK    2  A    between atoms: C_9  and  S_10
REMARK                            x       y       z     vdW  Elec       q    Type
REMARK                         _______ _______ _______ _____ _____    ______ ____
ROOT
ATOM      1  C   UNL     1       3.248   3.683  16.806  0.00  0.00    +0.000 C 
ATOM      2  C   UNL     1       4.697   3.987  16.703  0.00  0.00    +0.000 A 
ATOM      3  N   UNL     1       5.402   3.831  15.593  0.00  0.00    +0.000 NA
ATOM      4  C   UNL     1       6.682   4.206  15.893  0.00  0.00    +0.000 A 
ATOM      5  C   UNL     1       6.758   4.594  17.202  0.00  0.00    +0.000 A 
ATOM      6  C   UNL     1       7.804   5.065  18.035  0.00  0.00    +0.000 A 
ATOM      7  N   UNL     1       7.578   5.365  19.277  0.00  0.00    +0.000 NA
ATOM      8  N   UNL     1       6.264   5.223  19.811  0.00  0.00    +0.000 NA
ATOM      9  C   UNL     1       5.283   4.792  19.069  0.00  0.00    +0.000 A 
ATOM     10  N   UNL     1       5.499   4.460  17.729  0.00  0.00    +0.000 N 
ENDROOT
BRANCH   9  11
ATOM     11  S   UNL     1       3.724   4.664  19.848  0.00  0.00    +0.000 S 
ATOM     12  H   UNL     1       3.791   5.862  20.446  0.00  0.00    +0.000 HD
ENDBRANCH   9  11
TORSDOF 1
ENDMDL
MODEL 6
REMARK VINA RESULT:      -4.7      3.167      4.585
REMARK  Name = 
REMARK  2 active torsions:
REMARK  status: ('A' for Active; 'I' for Inactive)
REMARK    1  A    between atoms: C_1  and  C_2
REMARK    2  A    between atoms: C_9  and  S_10
REMARK                            x       y       z     vdW  Elec       q    Type
REMARK                         _______ _______ _______ _____ _____    ______ ____
ROOT
ATOM      1  C   UNL     1       2.530   7.055  19.088  0.00  0.00    +0.000 C 
ATOM      2  C   UNL     1       2.425   5.737  19.764  0.00  0.00    +0.000 A 
ATOM      3  N   UNL     1       1.400   5.380  20.521  0.00  0.00    +0.000 NA
ATOM      4  C   UNL     1       1.668   4.115  20.964  0.00  0.00    +0.000 A 
ATOM      5  C   UNL     1       2.872   3.696  20.469  0.00  0.00    +0.000 A 
ATOM      6  C   UNL     1       3.633   2.506  20.596  0.00  0.00    +0.000 A 
ATOM      7  N   UNL     1       4.777   2.384  19.996  0.00  0.00    +0.000 NA
ATOM      8  N   UNL     1       5.275   3.457  19.199  0.00  0.00    +0.000 NA
ATOM      9  C   UNL     1       4.598   4.562  19.066  0.00  0.00    +0.000 A 
ATOM     10  N   UNL     1       3.364   4.720  19.702  0.00  0.00    +0.000 N 
ENDROOT
BRANCH   9  11
ATOM     11  S   UNL     1       5.323   5.796  18.063  0.00  0.00    +0.000 S 
ATOM     12  H   UNL     1       6.231   4.979  17.508  0.00  0.00    +0.000 HD
ENDBRANCH   9  11
TORSDOF 1
ENDMDL
MODEL 7
REMARK VINA RESULT:      -4.6      3.401      4.799
REMARK  Name = 
REMARK  2 active torsions:
REMARK  status: ('A' for Active; 'I' for Inactive)
REMARK    1  A    between atoms: C_1  and  C_2
REMARK    2  A    between atoms: C_9  and  S_10
REMARK                            x       y       z     vdW  Elec       q    Type
REMARK                         _______ _______ _______ _____ _____    ______ ____
ROOT
ATOM      1  C   UNL     1       2.439   6.773  19.649  0.00  0.00    +0.000 C 
ATOM      2  C   UNL     1       2.123   5.329  19.780  0.00  0.00    +0.000 A 
ATOM      3  N   UNL     1       1.257   4.844  20.656  0.00  0.00    +0.000 NA
ATOM      4  C   UNL     1       1.243   3.489  20.476  0.00  0.00    +0.000 A 
ATOM      5  C   UNL     1       2.113   3.144  19.479  0.00  0.00    +0.000 A 
ATOM      6  C   UNL     1       2.500   1.916  18.885  0.00  0.00    +0.000 A 
ATOM      7  N   UNL     1       3.375   1.890  17.927  0.00  0.00    +0.000 NA
ATOM      8  N   UNL     1       3.954   3.108  17.465  0.00  0.00    +0.000 NA
ATOM      9  C   UNL     1       3.618   4.252  17.993  0.00  0.00    +0.000 A 
ATOM     10  N   UNL     1       2.679   4.308  19.026  0.00  0.00    +0.000 N 
ENDROOT
BRANCH   9  11
ATOM     11  S   UNL     1       4.403   5.667  17.334  0.00  0.00    +0.000 S 
ATOM     12  H   UNL     1       3.873   5.537  16.109  0.00  0.00    +0.000 HD
ENDBRANCH   9  11
TORSDOF 1
ENDMDL
MODEL 8
REMARK VINA RESULT:      -4.6      3.599      5.484
REMARK  Name = 
REMARK  2 active torsions:
REMARK  status: ('A' for Active; 'I' for Inactive)
REMARK    1  A    between atoms: C_1  and  C_2
REMARK    2  A    between atoms: C_9  and  S_10
REMARK                            x       y       z     vdW  Elec       q    Type
REMARK                         _______ _______ _______ _____ _____    ______ ____
ROOT
ATOM      1  C   UNL     1       4.262   5.232  17.208  0.00  0.00    +0.000 C 
ATOM      2  C   UNL     1       3.699   4.029  17.869  0.00  0.00    +0.000 A 
ATOM      3  N   UNL     1       3.966   2.789  17.489  0.00  0.00    +0.000 NA
ATOM      4  C   UNL     1       3.266   1.968  18.328  0.00  0.00    +0.000 A 
ATOM      5  C   UNL     1       2.563   2.717  19.230  0.00  0.00    +0.000 A 
ATOM      6  C   UNL     1       1.688   2.409  20.302  0.00  0.00    +0.000 A 
ATOM      7  N   UNL     1       1.148   3.353  21.010  0.00  0.00    +0.000 NA
ATOM      8  N   UNL     1       1.437   4.716  20.707  0.00  0.00    +0.000 NA
ATOM      9  C   UNL     1       2.237   5.029  19.727  0.00  0.00    +0.000 A 
ATOM     10  N   UNL     1       2.831   4.032  18.949  0.00  0.00    +0.000 N 
ENDROOT
BRANCH   9  11
ATOM     11  S   UNL     1       2.505   6.736  19.465  0.00  0.00    +0.000 S 
ATOM     12  H   UNL     1       2.376   6.673  18.131  0.00  0.00    +0.000 HD
ENDBRANCH   9  11
TORSDOF 1
ENDMDL
MODEL 9
REMARK VINA RESULT:      -4.6      3.341      4.554
REMARK  Name = 
REMARK  2 active torsions:
REMARK  status: ('A' for Active; 'I' for Inactive)
REMARK    1  A    between atoms: C_1  and  C_2
REMARK    2  A    between atoms: C_9  and  S_10
REMARK                            x       y       z     vdW  Elec       q    Type
REMARK                         _______ _______ _______ _____ _____    ______ ____
ROOT
ATOM      1  C   UNL     1       3.616   6.789  17.745  0.00  0.00    +0.000 C 
ATOM      2  C   UNL     1       2.988   5.478  18.046  0.00  0.00    +0.000 A 
ATOM      3  N   UNL     1       1.727   5.187  17.769  0.00  0.00    +0.000 NA
ATOM      4  C   UNL     1       1.523   3.905  18.195  0.00  0.00    +0.000 A 
ATOM      5  C   UNL     1       2.676   3.408  18.739  0.00  0.00    +0.000 A 
ATOM      6  C   UNL     1       3.039   2.169  19.324  0.00  0.00    +0.000 A 
ATOM      7  N   UNL     1       4.242   1.973  19.769  0.00  0.00    +0.000 NA
ATOM      8  N   UNL     1       5.211   3.014  19.667  0.00  0.00    +0.000 NA
ATOM      9  C   UNL     1       4.906   4.163  19.134  0.00  0.00    +0.000 A 
ATOM     10  N   UNL     1       3.617   4.400  18.649  0.00  0.00    +0.000 N 
ENDROOT
BRANCH   9  11
ATOM     11  S   UNL     1       6.187   5.350  19.072  0.00  0.00    +0.000 S 
ATOM     12  H   UNL     1       7.162   4.490  19.402  0.00  0.00    +0.000 HD
ENDBRANCH   9  11
TORSDOF 1
ENDMDL
