MODEL 1
REMARK VINA RESULT:      -6.7      0.000      0.000
REMARK  Name = 
REMARK  9 active torsions:
REMARK  status: ('A' for Active; 'I' for Inactive)
REMARK    1  A    between atoms: C_1  and  C_2
REMARK    2  A    between atoms: C_2  and  C_3
REMARK    3  A    between atoms: C_2  and  C_4
REMARK    4  A    between atoms: C_2  and  C_5
REMARK    5  A    between atoms: C_5  and  C_7
REMARK    6  A    between atoms: C_7  and  S_8
REMARK    7  A    between atoms: S_8  and  C_9
REMARK    8  A    between atoms: C_12  and  S_13
REMARK    9  A    between atoms: S_13  and  N_16
REMARK                            x       y       z     vdW  Elec       q    Type
REMARK                         _______ _______ _______ _____ _____    ______ ____
ROOT
ATOM      1  C   UNL     1       2.704   8.053  18.212  0.00  0.00    +0.000 A 
ATOM      2  C   UNL     1       2.299   7.310  19.322  0.00  0.00    +0.000 A 
ATOM      3  C   UNL     1       2.808   6.040  19.530  0.00  0.00    +0.000 A 
ATOM      4  C   UNL     1       3.692   5.499  18.610  0.00  0.00    +0.000 A 
ATOM      5  C   UNL     1       4.043   6.273  17.518  0.00  0.00    +0.000 A 
ATOM      6  N   UNL     1       3.590   7.552  17.313  0.00  0.00    +0.000 NA
ENDROOT
BRANCH   4   7
ATOM      7  S   UNL     1       4.139   3.792  18.696  0.00  0.00    +0.000 S 
ATOM      8  O   UNL     1       4.064   3.271  17.354  0.00  0.00    +0.000 OA
ATOM      9  O   UNL     1       5.368   3.717  19.464  0.00  0.00    +0.000 OA
BRANCH   7  10
ATOM     10  N   UNL     1       2.946   3.066  19.595  0.00  0.00    +0.000 NA
ATOM     11  C   UNL     1       1.606   2.800  19.094  0.00  0.00    +0.000 C 
ATOM     12  C   UNL     1       0.727   3.097  20.297  0.00  0.00    +0.000 C 
ATOM     13  C   UNL     1       1.564   2.585  21.459  0.00  0.00    +0.000 C 
ATOM     14  C   UNL     1       3.014   2.857  21.043  0.00  0.00    +0.000 C 
ENDBRANCH   7  10
ENDBRANCH   4   7
BRANCH   1  15
ATOM     15  S   UNL     1       2.021   9.682  17.902  0.00  0.00    +0.000 S 
BRANCH  15  16
ATOM     16  C   UNL     1       0.594   9.724  19.057  0.00  0.00    +0.000 C 
BRANCH  16  17
ATOM     17  C   UNL     1      -0.611  10.360  18.383  0.00  0.00    +0.000 C 
ATOM     18  O   UNL     1      -1.111   9.837  17.385  0.00  0.00    +0.000 OA
BRANCH  17  20
ATOM     19  C   UNL     1      -2.737  11.667  18.691  0.00  0.00    +0.000 C 
ATOM     20  C   UNL     1      -1.233  11.625  19.016  0.00  0.00    +0.000 C 
ATOM     21  C   UNL     1      -0.575  12.879  18.431  0.00  0.00    +0.000 C 
ATOM     22  C   UNL     1      -1.069  11.591  20.542  0.00  0.00    +0.000 C 
ENDBRANCH  17  20
ENDBRANCH  16  17
ENDBRANCH  15  16
ENDBRANCH   1  15
TORSDOF 6
ENDMDL
MODEL 2
REMARK VINA RESULT:      -6.7      2.030      2.775
REMARK  Name = 
REMARK  9 active torsions:
REMARK  status: ('A' for Active; 'I' for Inactive)
REMARK    1  A    between atoms: C_1  and  C_2
REMARK    2  A    between atoms: C_2  and  C_3
REMARK    3  A    between atoms: C_2  and  C_4
REMARK    4  A    between atoms: C_2  and  C_5
REMARK    5  A    between atoms: C_5  and  C_7
REMARK    6  A    between atoms: C_7  and  S_8
REMARK    7  A    between atoms: S_8  and  C_9
REMARK    8  A    between atoms: C_12  and  S_13
REMARK    9  A    between atoms: S_13  and  N_16
REMARK                            x       y       z     vdW  Elec       q    Type
REMARK                         _______ _______ _______ _____ _____    ______ ____
ROOT
ATOM      1  C   UNL     1       1.396   9.366  18.964  0.00  0.00    +0.000 A 
ATOM      2  C   UNL     1       1.992   9.137  17.722  0.00  0.00    +0.000 A 
ATOM      3  C   UNL     1       2.711   7.974  17.502  0.00  0.00    +0.000 A 
ATOM      4  C   UNL     1       2.865   7.061  18.533  0.00  0.00    +0.000 A 
ATOM      5  C   UNL     1       2.270   7.350  19.748  0.00  0.00    +0.000 A 
ATOM      6  N   UNL     1       1.513   8.471  19.978  0.00  0.00    +0.000 NA
ENDROOT
BRANCH   4   7
ATOM      7  S   UNL     1       4.000   5.716  18.373  0.00  0.00    +0.000 S 
ATOM      8  O   UNL     1       4.892   6.048  17.290  0.00  0.00    +0.000 OA
ATOM      9  O   UNL     1       4.507   5.433  19.703  0.00  0.00    +0.000 OA
BRANCH   7  10
ATOM     10  N   UNL     1       3.083   4.415  17.902  0.00  0.00    +0.000 NA
ATOM     11  C   UNL     1       1.628   4.425  17.860  0.00  0.00    +0.000 C 
ATOM     12  C   UNL     1       1.264   3.034  18.351  0.00  0.00    +0.000 C 
ATOM     13  C   UNL     1       2.353   2.166  17.739  0.00  0.00    +0.000 C 
ATOM     14  C   UNL     1       3.601   3.055  17.735  0.00  0.00    +0.000 C 
ENDBRANCH   7  10
ENDBRANCH   4   7
BRANCH   1  15
ATOM     15  S   UNL     1       0.499  10.886  19.281  0.00  0.00    +0.000 S 
BRANCH  15  16
ATOM     16  C   UNL     1      -1.240  10.370  18.997  0.00  0.00    +0.000 C 
BRANCH  16  17
ATOM     17  C   UNL     1      -1.905  11.291  17.988  0.00  0.00    +0.000 C 
ATOM     18  O   UNL     1      -1.465  12.428  17.801  0.00  0.00    +0.000 OA
BRANCH  17  20
ATOM     19  C   UNL     1      -3.529   9.388  17.727  0.00  0.00    +0.000 C 
ATOM     20  C   UNL     1      -3.091  10.749  17.156  0.00  0.00    +0.000 C 
ATOM     21  C   UNL     1      -2.659  10.549  15.700  0.00  0.00    +0.000 C 
ATOM     22  C   UNL     1      -4.282  11.714  17.239  0.00  0.00    +0.000 C 
ENDBRANCH  17  20
ENDBRANCH  16  17
ENDBRANCH  15  16
ENDBRANCH   1  15
TORSDOF 6
ENDMDL
MODEL 3
REMARK VINA RESULT:      -6.7      1.045      1.340
REMARK  Name = 
REMARK  9 active torsions:
REMARK  status: ('A' for Active; 'I' for Inactive)
REMARK    1  A    between atoms: C_1  and  C_2
REMARK    2  A    between atoms: C_2  and  C_3
REMARK    3  A    between atoms: C_2  and  C_4
REMARK    4  A    between atoms: C_2  and  C_5
REMARK    5  A    between atoms: C_5  and  C_7
REMARK    6  A    between atoms: C_7  and  S_8
REMARK    7  A    between atoms: S_8  and  C_9
REMARK    8  A    between atoms: C_12  and  S_13
REMARK    9  A    between atoms: S_13  and  N_16
REMARK                            x       y       z     vdW  Elec       q    Type
REMARK                         _______ _______ _______ _____ _____    ______ ____
ROOT
ATOM      1  C   UNL     1       2.629   8.051  18.271  0.00  0.00    +0.000 A 
ATOM      2  C   UNL     1       2.297   7.286  19.390  0.00  0.00    +0.000 A 
ATOM      3  C   UNL     1       2.859   6.033  19.566  0.00  0.00    +0.000 A 
ATOM      4  C   UNL     1       3.722   5.531  18.605  0.00  0.00    +0.000 A 
ATOM      5  C   UNL     1       3.999   6.324  17.505  0.00  0.00    +0.000 A 
ATOM      6  N   UNL     1       3.493   7.587  17.331  0.00  0.00    +0.000 NA
ENDROOT
BRANCH   4   7
ATOM      7  S   UNL     1       4.231   3.840  18.658  0.00  0.00    +0.000 S 
ATOM      8  O   UNL     1       4.216   3.355  17.300  0.00  0.00    +0.000 OA
ATOM      9  O   UNL     1       5.441   3.790  19.459  0.00  0.00    +0.000 OA
BRANCH   7  10
ATOM     10  N   UNL     1       3.043   3.044  19.501  0.00  0.00    +0.000 NA
ATOM     11  C   UNL     1       1.748   2.695  18.935  0.00  0.00    +0.000 C 
ATOM     12  C   UNL     1       0.794   2.940  20.091  0.00  0.00    +0.000 C 
ATOM     13  C   UNL     1       1.601   2.483  21.297  0.00  0.00    +0.000 C 
ATOM     14  C   UNL     1       3.051   2.842  20.951  0.00  0.00    +0.000 C 
ENDBRANCH   7  10
ENDBRANCH   4   7
BRANCH   1  15
ATOM     15  S   UNL     1       1.877   9.656  18.004  0.00  0.00    +0.000 S 
BRANCH  15  16
ATOM     16  C   UNL     1       0.691   9.760  19.402  0.00  0.00    +0.000 C 
BRANCH  16  17
ATOM     17  C   UNL     1       0.364  11.212  19.710  0.00  0.00    +0.000 C 
ATOM     18  O   UNL     1       1.160  11.904  20.348  0.00  0.00    +0.000 OA
BRANCH  17  20
ATOM     19  C   UNL     1      -1.819  12.303  20.316  0.00  0.00    +0.000 C 
ATOM     20  C   UNL     1      -0.943  11.814  19.147  0.00  0.00    +0.000 C 
ATOM     21  C   UNL     1      -1.720  10.745  18.373  0.00  0.00    +0.000 C 
ATOM     22  C   UNL     1      -0.629  13.014  18.243  0.00  0.00    +0.000 C 
ENDBRANCH  17  20
ENDBRANCH  16  17
ENDBRANCH  15  16
ENDBRANCH   1  15
TORSDOF 6
ENDMDL
MODEL 4
REMARK VINA RESULT:      -6.6      0.479      1.088
REMARK  Name = 
REMARK  9 active torsions:
REMARK  status: ('A' for Active; 'I' for Inactive)
REMARK    1  A    between atoms: C_1  and  C_2
REMARK    2  A    between atoms: C_2  and  C_3
REMARK    3  A    between atoms: C_2  and  C_4
REMARK    4  A    between atoms: C_2  and  C_5
REMARK    5  A    between atoms: C_5  and  C_7
REMARK    6  A    between atoms: C_7  and  S_8
REMARK    7  A    between atoms: S_8  and  C_9
REMARK    8  A    between atoms: C_12  and  S_13
REMARK    9  A    between atoms: S_13  and  N_16
REMARK                            x       y       z     vdW  Elec       q    Type
REMARK                         _______ _______ _______ _____ _____    ______ ____
ROOT
ATOM      1  C   UNL     1       2.613   8.051  18.254  0.00  0.00    +0.000 A 
ATOM      2  C   UNL     1       2.295   7.323  19.401  0.00  0.00    +0.000 A 
ATOM      3  C   UNL     1       2.833   6.061  19.593  0.00  0.00    +0.000 A 
ATOM      4  C   UNL     1       3.656   5.515  18.621  0.00  0.00    +0.000 A 
ATOM      5  C   UNL     1       3.920   6.274  17.495  0.00  0.00    +0.000 A 
ATOM      6  N   UNL     1       3.439   7.544  17.303  0.00  0.00    +0.000 NA
ENDROOT
BRANCH   4   7
ATOM      7  S   UNL     1       4.127   3.813  18.703  0.00  0.00    +0.000 S 
ATOM      8  O   UNL     1       4.044   3.291  17.362  0.00  0.00    +0.000 OA
ATOM      9  O   UNL     1       5.366   3.756  19.456  0.00  0.00    +0.000 OA
BRANCH   7  10
ATOM     10  N   UNL     1       2.955   3.072  19.616  0.00  0.00    +0.000 NA
ATOM     11  C   UNL     1       1.603   2.818  19.143  0.00  0.00    +0.000 C 
ATOM     12  C   UNL     1       0.754   3.092  20.372  0.00  0.00    +0.000 C 
ATOM     13  C   UNL     1       1.617   2.556  21.503  0.00  0.00    +0.000 C 
ATOM     14  C   UNL     1       3.058   2.834  21.058  0.00  0.00    +0.000 C 
ENDBRANCH   7  10
ENDBRANCH   4   7
BRANCH   1  15
ATOM     15  S   UNL     1       1.891   9.667  17.967  0.00  0.00    +0.000 S 
BRANCH  15  16
ATOM     16  C   UNL     1       0.643   9.772  19.310  0.00  0.00    +0.000 C 
BRANCH  16  17
ATOM     17  C   UNL     1      -0.558  10.582  18.851  0.00  0.00    +0.000 C 
ATOM     18  O   UNL     1      -1.379  10.088  18.075  0.00  0.00    +0.000 OA
BRANCH  17  20
ATOM     19  C   UNL     1       0.063  12.142  20.724  0.00  0.00    +0.000 C 
ATOM     20  C   UNL     1      -0.763  12.000  19.432  0.00  0.00    +0.000 C 
ATOM     21  C   UNL     1      -2.241  12.215  19.774  0.00  0.00    +0.000 C 
ATOM     22  C   UNL     1      -0.281  13.059  18.431  0.00  0.00    +0.000 C 
ENDBRANCH  17  20
ENDBRANCH  16  17
ENDBRANCH  15  16
ENDBRANCH   1  15
TORSDOF 6
ENDMDL
MODEL 5
REMARK VINA RESULT:      -6.6      2.290      7.909
REMARK  Name = 
REMARK  9 active torsions:
REMARK  status: ('A' for Active; 'I' for Inactive)
REMARK    1  A    between atoms: C_1  and  C_2
REMARK    2  A    between atoms: C_2  and  C_3
REMARK    3  A    between atoms: C_2  and  C_4
REMARK    4  A    between atoms: C_2  and  C_5
REMARK    5  A    between atoms: C_5  and  C_7
REMARK    6  A    between atoms: C_7  and  S_8
REMARK    7  A    between atoms: S_8  and  C_9
REMARK    8  A    between atoms: C_12  and  S_13
REMARK    9  A    between atoms: S_13  and  N_16
REMARK                            x       y       z     vdW  Elec       q    Type
REMARK                         _______ _______ _______ _____ _____    ______ ____
ROOT
ATOM      1  C   UNL     1       2.460   7.692  18.589  0.00  0.00    +0.000 A 
ATOM      2  C   UNL     1       2.388   8.722  17.649  0.00  0.00    +0.000 A 
ATOM      3  C   UNL     1       1.696   9.884  17.945  0.00  0.00    +0.000 A 
ATOM      4  C   UNL     1       1.047  10.001  19.164  0.00  0.00    +0.000 A 
ATOM      5  C   UNL     1       1.135   8.941  20.049  0.00  0.00    +0.000 A 
ATOM      6  N   UNL     1       1.853   7.799  19.799  0.00  0.00    +0.000 NA
ENDROOT
BRANCH   4   7
ATOM      7  S   UNL     1      -0.067  11.341  19.458  0.00  0.00    +0.000 S 
ATOM      8  O   UNL     1      -0.364  11.337  20.869  0.00  0.00    +0.000 OA
ATOM      9  O   UNL     1       0.502  12.510  18.813  0.00  0.00    +0.000 OA
BRANCH   7  10
ATOM     10  N   UNL     1      -1.458  10.950  18.640  0.00  0.00    +0.000 NA
ATOM     11  C   UNL     1      -1.508   9.998  17.540  0.00  0.00    +0.000 C 
ATOM     12  C   UNL     1      -2.499  10.635  16.582  0.00  0.00    +0.000 C 
ATOM     13  C   UNL     1      -3.526  11.251  17.521  0.00  0.00    +0.000 C 
ATOM     14  C   UNL     1      -2.716  11.693  18.745  0.00  0.00    +0.000 C 
ENDBRANCH   7  10
ENDBRANCH   4   7
BRANCH   1  15
ATOM     15  S   UNL     1       3.313   6.163  18.206  0.00  0.00    +0.000 S 
BRANCH  15  16
ATOM     16  C   UNL     1       3.432   5.368  19.857  0.00  0.00    +0.000 C 
BRANCH  16  17
ATOM     17  C   UNL     1       3.337   3.857  19.723  0.00  0.00    +0.000 C 
ATOM     18  O   UNL     1       4.280   3.215  19.257  0.00  0.00    +0.000 OA
BRANCH  17  20
ATOM     19  C   UNL     1       0.919   4.162  20.344  0.00  0.00    +0.000 C 
ATOM     20  C   UNL     1       2.070   3.144  20.248  0.00  0.00    +0.000 C 
ATOM     21  C   UNL     1       2.332   2.574  21.646  0.00  0.00    +0.000 C 
ATOM     22  C   UNL     1       1.649   2.028  19.281  0.00  0.00    +0.000 C 
ENDBRANCH  17  20
ENDBRANCH  16  17
ENDBRANCH  15  16
ENDBRANCH   1  15
TORSDOF 6
ENDMDL
MODEL 6
REMARK VINA RESULT:      -6.6      1.504      2.089
REMARK  Name = 
REMARK  9 active torsions:
REMARK  status: ('A' for Active; 'I' for Inactive)
REMARK    1  A    between atoms: C_1  and  C_2
REMARK    2  A    between atoms: C_2  and  C_3
REMARK    3  A    between atoms: C_2  and  C_4
REMARK    4  A    between atoms: C_2  and  C_5
REMARK    5  A    between atoms: C_5  and  C_7
REMARK    6  A    between atoms: C_7  and  S_8
REMARK    7  A    between atoms: S_8  and  C_9
REMARK    8  A    between atoms: C_12  and  S_13
REMARK    9  A    between atoms: S_13  and  N_16
REMARK                            x       y       z     vdW  Elec       q    Type
REMARK                         _______ _______ _______ _____ _____    ______ ____
ROOT
ATOM      1  C   UNL     1       2.467   8.187  18.313  0.00  0.00    +0.000 A 
ATOM      2  C   UNL     1       2.156   7.378  19.407  0.00  0.00    +0.000 A 
ATOM      3  C   UNL     1       2.786   6.155  19.565  0.00  0.00    +0.000 A 
ATOM      4  C   UNL     1       3.696   5.726  18.612  0.00  0.00    +0.000 A 
ATOM      5  C   UNL     1       3.949   6.561  17.538  0.00  0.00    +0.000 A 
ATOM      6  N   UNL     1       3.375   7.797  17.382  0.00  0.00    +0.000 NA
ENDROOT
BRANCH   4   7
ATOM      7  S   UNL     1       4.300   4.066  18.636  0.00  0.00    +0.000 S 
ATOM      8  O   UNL     1       4.388   3.632  17.264  0.00  0.00    +0.000 OA
ATOM      9  O   UNL     1       5.464   4.055  19.503  0.00  0.00    +0.000 OA
BRANCH   7  10
ATOM     10  N   UNL     1       3.116   3.173  19.382  0.00  0.00    +0.000 NA
ATOM     11  C   UNL     1       1.867   2.792  18.740  0.00  0.00    +0.000 C 
ATOM     12  C   UNL     1       0.851   2.933  19.860  0.00  0.00    +0.000 C 
ATOM     13  C   UNL     1       1.625   2.453  21.078  0.00  0.00    +0.000 C 
ATOM     14  C   UNL     1       3.069   2.898  20.820  0.00  0.00    +0.000 C 
ENDBRANCH   7  10
ENDBRANCH   4   7
BRANCH   1  15
ATOM     15  S   UNL     1       1.629   9.753  18.068  0.00  0.00    +0.000 S 
BRANCH  15  16
ATOM     16  C   UNL     1       1.571  10.428  19.774  0.00  0.00    +0.000 C 
BRANCH  16  17
ATOM     17  C   UNL     1       0.206  10.179  20.394  0.00  0.00    +0.000 C 
ATOM     18  O   UNL     1      -0.819  10.417  19.751  0.00  0.00    +0.000 OA
BRANCH  17  20
ATOM     19  C   UNL     1      -0.630  10.515  22.742  0.00  0.00    +0.000 C 
ATOM     20  C   UNL     1       0.134   9.559  21.808  0.00  0.00    +0.000 C 
ATOM     21  C   UNL     1       1.548   9.362  22.365  0.00  0.00    +0.000 C 
ATOM     22  C   UNL     1      -0.619   8.222  21.763  0.00  0.00    +0.000 C 
ENDBRANCH  17  20
ENDBRANCH  16  17
ENDBRANCH  15  16
ENDBRANCH   1  15
TORSDOF 6
ENDMDL
MODEL 7
REMARK VINA RESULT:      -6.5      2.195      7.758
REMARK  Name = 
REMARK  9 active torsions:
REMARK  status: ('A' for Active; 'I' for Inactive)
REMARK    1  A    between atoms: C_1  and  C_2
REMARK    2  A    between atoms: C_2  and  C_3
REMARK    3  A    between atoms: C_2  and  C_4
REMARK    4  A    between atoms: C_2  and  C_5
REMARK    5  A    between atoms: C_5  and  C_7
REMARK    6  A    between atoms: C_7  and  S_8
REMARK    7  A    between atoms: S_8  and  C_9
REMARK    8  A    between atoms: C_12  and  S_13
REMARK    9  A    between atoms: S_13  and  N_16
REMARK                            x       y       z     vdW  Elec       q    Type
REMARK                         _______ _______ _______ _____ _____    ______ ____
ROOT
ATOM      1  C   UNL     1       2.643   7.564  18.486  0.00  0.00    +0.000 A 
ATOM      2  C   UNL     1       2.036   7.681  19.738  0.00  0.00    +0.000 A 
ATOM      3  C   UNL     1       1.219   8.764  20.014  0.00  0.00    +0.000 A 
ATOM      4  C   UNL     1       1.040   9.747  19.053  0.00  0.00    +0.000 A 
ATOM      5  C   UNL     1       1.683   9.588  17.838  0.00  0.00    +0.000 A 
ATOM      6  N   UNL     1       2.458   8.502  17.522  0.00  0.00    +0.000 NA
ENDROOT
BRANCH   4   7
ATOM      7  S   UNL     1       0.239  11.266  19.468  0.00  0.00    +0.000 S 
ATOM      8  O   UNL     1       0.298  11.392  20.903  0.00  0.00    +0.000 OA
ATOM      9  O   UNL     1       0.799  12.287  18.601  0.00  0.00    +0.000 OA
BRANCH   7  10
ATOM     10  N   UNL     1      -1.351  11.063  19.036  0.00  0.00    +0.000 NA
ATOM     11  C   UNL     1      -1.801  10.095  18.047  0.00  0.00    +0.000 C 
ATOM     12  C   UNL     1      -2.901  10.842  17.314  0.00  0.00    +0.000 C 
ATOM     13  C   UNL     1      -3.569  11.635  18.427  0.00  0.00    +0.000 C 
ATOM     14  C   UNL     1      -2.429  11.989  19.389  0.00  0.00    +0.000 C 
ENDBRANCH   7  10
ENDBRANCH   4   7
BRANCH   1  15
ATOM     15  S   UNL     1       3.739   6.192  18.126  0.00  0.00    +0.000 S 
BRANCH  15  16
ATOM     16  C   UNL     1       3.639   5.206  19.672  0.00  0.00    +0.000 C 
BRANCH  16  17
ATOM     17  C   UNL     1       3.235   3.775  19.360  0.00  0.00    +0.000 C 
ATOM     18  O   UNL     1       3.897   3.103  18.566  0.00  0.00    +0.000 OA
BRANCH  17  20
ATOM     19  C   UNL     1       1.497   1.957  19.314  0.00  0.00    +0.000 C 
ATOM     20  C   UNL     1       2.029   3.163  20.110  0.00  0.00    +0.000 C 
ATOM     21  C   UNL     1       0.907   4.200  20.228  0.00  0.00    +0.000 C 
ATOM     22  C   UNL     1       2.460   2.674  21.499  0.00  0.00    +0.000 C 
ENDBRANCH  17  20
ENDBRANCH  16  17
ENDBRANCH  15  16
ENDBRANCH   1  15
TORSDOF 6
ENDMDL
MODEL 8
REMARK VINA RESULT:      -6.5      2.356      8.238
REMARK  Name = 
REMARK  9 active torsions:
REMARK  status: ('A' for Active; 'I' for Inactive)
REMARK    1  A    between atoms: C_1  and  C_2
REMARK    2  A    between atoms: C_2  and  C_3
REMARK    3  A    between atoms: C_2  and  C_4
REMARK    4  A    between atoms: C_2  and  C_5
REMARK    5  A    between atoms: C_5  and  C_7
REMARK    6  A    between atoms: C_7  and  S_8
REMARK    7  A    between atoms: S_8  and  C_9
REMARK    8  A    between atoms: C_12  and  S_13
REMARK    9  A    between atoms: S_13  and  N_16
REMARK                            x       y       z     vdW  Elec       q    Type
REMARK                         _______ _______ _______ _____ _____    ______ ____
ROOT
ATOM      1  C   UNL     1       2.446   7.629  18.657  0.00  0.00    +0.000 A 
ATOM      2  C   UNL     1       2.045   8.584  17.721  0.00  0.00    +0.000 A 
ATOM      3  C   UNL     1       1.226   9.632  18.107  0.00  0.00    +0.000 A 
ATOM      4  C   UNL     1       0.778   9.702  19.416  0.00  0.00    +0.000 A 
ATOM      5  C   UNL     1       1.191   8.716  20.295  0.00  0.00    +0.000 A 
ATOM      6  N   UNL     1       2.040   7.696  19.951  0.00  0.00    +0.000 NA
ENDROOT
BRANCH   4   7
ATOM      7  S   UNL     1      -0.482  10.856  19.869  0.00  0.00    +0.000 S 
ATOM      8  O   UNL     1      -1.601  10.617  18.993  0.00  0.00    +0.000 OA
ATOM      9  O   UNL     1      -0.626  10.776  21.311  0.00  0.00    +0.000 OA
BRANCH   7  10
ATOM     10  N   UNL     1       0.139  12.354  19.513  0.00  0.00    +0.000 NA
ATOM     11  C   UNL     1       1.092  13.055  20.360  0.00  0.00    +0.000 C 
ATOM     12  C   UNL     1       0.633  14.500  20.266  0.00  0.00    +0.000 C 
ATOM     13  C   UNL     1       0.190  14.618  18.815  0.00  0.00    +0.000 C 
ATOM     14  C   UNL     1      -0.386  13.240  18.472  0.00  0.00    +0.000 C 
ENDBRANCH   7  10
ENDBRANCH   4   7
BRANCH   1  15
ATOM     15  S   UNL     1       3.470   6.242  18.166  0.00  0.00    +0.000 S 
BRANCH  15  16
ATOM     16  C   UNL     1       3.609   5.296  19.733  0.00  0.00    +0.000 C 
BRANCH  16  17
ATOM     17  C   UNL     1       3.310   3.825  19.490  0.00  0.00    +0.000 C 
ATOM     18  O   UNL     1       4.089   3.136  18.828  0.00  0.00    +0.000 OA
BRANCH  17  20
ATOM     19  C   UNL     1       0.966   4.283  20.279  0.00  0.00    +0.000 C 
ATOM     20  C   UNL     1       2.057   3.204  20.147  0.00  0.00    +0.000 C 
ATOM     21  C   UNL     1       2.402   2.688  21.547  0.00  0.00    +0.000 C 
ATOM     22  C   UNL     1       1.508   2.067  19.273  0.00  0.00    +0.000 C 
ENDBRANCH  17  20
ENDBRANCH  16  17
ENDBRANCH  15  16
ENDBRANCH   1  15
TORSDOF 6
ENDMDL
MODEL 9
REMARK VINA RESULT:      -6.5      1.496      1.892
REMARK  Name = 
REMARK  9 active torsions:
REMARK  status: ('A' for Active; 'I' for Inactive)
REMARK    1  A    between atoms: C_1  and  C_2
REMARK    2  A    between atoms: C_2  and  C_3
REMARK    3  A    between atoms: C_2  and  C_4
REMARK    4  A    between atoms: C_2  and  C_5
REMARK    5  A    between atoms: C_5  and  C_7
REMARK    6  A    between atoms: C_7  and  S_8
REMARK    7  A    between atoms: S_8  and  C_9
REMARK    8  A    between atoms: C_12  and  S_13
REMARK    9  A    between atoms: S_13  and  N_16
REMARK                            x       y       z     vdW  Elec       q    Type
REMARK                         _______ _______ _______ _____ _____    ______ ____
ROOT
ATOM      1  C   UNL     1       2.176   8.395  18.697  0.00  0.00    +0.000 A 
ATOM      2  C   UNL     1       2.039   7.518  19.774  0.00  0.00    +0.000 A 
ATOM      3  C   UNL     1       2.717   6.311  19.776  0.00  0.00    +0.000 A 
ATOM      4  C   UNL     1       3.501   5.965  18.686  0.00  0.00    +0.000 A 
ATOM      5  C   UNL     1       3.583   6.864  17.638  0.00  0.00    +0.000 A 
ATOM      6  N   UNL     1       2.960   8.086  17.632  0.00  0.00    +0.000 NA
ENDROOT
BRANCH   4   7
ATOM      7  S   UNL     1       4.147   4.328  18.534  0.00  0.00    +0.000 S 
ATOM      8  O   UNL     1       4.168   4.015  17.127  0.00  0.00    +0.000 OA
ATOM      9  O   UNL     1       5.358   4.279  19.333  0.00  0.00    +0.000 OA
BRANCH   7  10
ATOM     10  N   UNL     1       3.030   3.339  19.263  0.00  0.00    +0.000 NA
ATOM     11  C   UNL     1       1.743   3.003  18.674  0.00  0.00    +0.000 C 
ATOM     12  C   UNL     1       0.808   3.007  19.870  0.00  0.00    +0.000 C 
ATOM     13  C   UNL     1       1.673   2.419  20.975  0.00  0.00    +0.000 C 
ATOM     14  C   UNL     1       3.090   2.917  20.664  0.00  0.00    +0.000 C 
ENDBRANCH   7  10
ENDBRANCH   4   7
BRANCH   1  15
ATOM     15  S   UNL     1       1.271   9.942  18.656  0.00  0.00    +0.000 S 
BRANCH  15  16
ATOM     16  C   UNL     1       0.016   9.685  19.971  0.00  0.00    +0.000 C 
BRANCH  16  17
ATOM     17  C   UNL     1       0.327  10.559  21.175  0.00  0.00    +0.000 C 
ATOM     18  O   UNL     1       1.219  10.235  21.962  0.00  0.00    +0.000 OA
BRANCH  17  20
ATOM     19  C   UNL     1      -1.056  11.938  22.760  0.00  0.00    +0.000 C 
ATOM     20  C   UNL     1      -0.445  11.887  21.348  0.00  0.00    +0.000 C 
ATOM     21  C   UNL     1      -1.581  11.968  20.323  0.00  0.00    +0.000 C 
ATOM     22  C   UNL     1       0.509  13.080  21.191  0.00  0.00    +0.000 C 
ENDBRANCH  17  20
ENDBRANCH  16  17
ENDBRANCH  15  16
ENDBRANCH   1  15
TORSDOF 6
ENDMDL
