MODEL 1
REMARK VINA RESULT:      -6.2      0.000      0.000
REMARK  Name = 
REMARK  12 active torsions:
REMARK  status: ('A' for Active; 'I' for Inactive)
REMARK    1  A    between atoms: C_2  and  C_3
REMARK    2  A    between atoms: C_3  and  C_4
REMARK    3  A    between atoms: C_7  and  O_8
REMARK    4  A    between atoms: O_8  and  P_9
REMARK    5  A    between atoms: P_9  and  O_11
REMARK    6  A    between atoms: P_9  and  O_14
REMARK    7  A    between atoms: O_11  and  C_12
REMARK    8  A    between atoms: C_12  and  C_13
REMARK    9  A    between atoms: O_14  and  C_15
REMARK   10  A    between atoms: C_15  and  C_16
REMARK   11  A    between atoms: C_17  and  O_18
REMARK   12  A    between atoms: O_18  and  C_19
REMARK                            x       y       z     vdW  Elec       q    Type
REMARK                         _______ _______ _______ _____ _____    ______ ____
ROOT
ATOM      1  C   UNL     1       2.277   3.685  18.730  0.00  0.00    +0.000 A 
ATOM      2  C   UNL     1       3.516   3.097  18.492  0.00  0.00    +0.000 A 
ATOM      3  C   UNL     1       4.609   3.885  18.130  0.00  0.00    +0.000 A 
ATOM      4  C   UNL     1       4.498   5.284  18.019  0.00  0.00    +0.000 A 
ATOM      5  C   UNL     1       3.246   5.884  18.213  0.00  0.00    +0.000 A 
ATOM      6  C   UNL     1       2.140   5.072  18.545  0.00  0.00    +0.000 A 
ENDROOT
BRANCH   5   7
ATOM      7  O   UNL     1       3.187   7.248  18.094  0.00  0.00    +0.000 OA
ATOM      8  C   UNL     1       2.275   7.918  18.958  0.00  0.00    +0.000 C 
ENDBRANCH   5   7
BRANCH   1   9
ATOM      9  C   UNL     1       1.112   2.840  19.197  0.00  0.00    +0.000 C 
BRANCH   9  11
ATOM     10  C   UNL     1       1.909   3.191  21.550  0.00  0.00    +0.000 C 
ATOM     11  C   UNL     1       0.968   2.781  20.690  0.00  0.00    +0.000 C 
ENDBRANCH   9  11
ENDBRANCH   1   9
BRANCH   4  12
ATOM     12  O   UNL     1       5.623   6.082  17.761  0.00  0.00    +0.000 OA
BRANCH  12  13
ATOM     13  P   UNL     1       6.584   5.502  16.444  0.00  0.00    +0.000 P 
ATOM     14  S   UNL     1       5.235   6.584  15.265  0.00  0.00    +0.000 S 
BRANCH  13  15
ATOM     15  O   UNL     1       7.789   6.623  16.798  0.00  0.00    +0.000 OA
BRANCH  15  16
ATOM     16  C   UNL     1       7.751   7.409  17.993  0.00  0.00    +0.000 C 
ATOM     17  C   UNL     1       7.968   8.887  17.733  0.00  0.00    +0.000 C 
ENDBRANCH  15  16
ENDBRANCH  13  15
BRANCH  13  18
ATOM     18  O   UNL     1       7.546   4.923  15.128  0.00  0.00    +0.000 OA
BRANCH  18  19
ATOM     19  C   UNL     1       7.078   4.882  13.780  0.00  0.00    +0.000 C 
ATOM     20  C   UNL     1       6.213   3.668  13.510  0.00  0.00    +0.000 C 
ENDBRANCH  18  19
ENDBRANCH  13  18
ENDBRANCH  12  13
ENDBRANCH   4  12
TORSDOF 9
ENDMDL
MODEL 2
REMARK VINA RESULT:      -6.0      0.793      1.179
REMARK  Name = 
REMARK  12 active torsions:
REMARK  status: ('A' for Active; 'I' for Inactive)
REMARK    1  A    between atoms: C_2  and  C_3
REMARK    2  A    between atoms: C_3  and  C_4
REMARK    3  A    between atoms: C_7  and  O_8
REMARK    4  A    between atoms: O_8  and  P_9
REMARK    5  A    between atoms: P_9  and  O_11
REMARK    6  A    between atoms: P_9  and  O_14
REMARK    7  A    between atoms: O_11  and  C_12
REMARK    8  A    between atoms: C_12  and  C_13
REMARK    9  A    between atoms: O_14  and  C_15
REMARK   10  A    between atoms: C_15  and  C_16
REMARK   11  A    between atoms: C_17  and  O_18
REMARK   12  A    between atoms: O_18  and  C_19
REMARK                            x       y       z     vdW  Elec       q    Type
REMARK                         _______ _______ _______ _____ _____    ______ ____
ROOT
ATOM      1  C   UNL     1       2.765   4.124  19.981  0.00  0.00    +0.000 A 
ATOM      2  C   UNL     1       4.038   3.625  19.715  0.00  0.00    +0.000 A 
ATOM      3  C   UNL     1       4.964   4.402  19.019  0.00  0.00    +0.000 A 
ATOM      4  C   UNL     1       4.653   5.705  18.591  0.00  0.00    +0.000 A 
ATOM      5  C   UNL     1       3.361   6.203  18.814  0.00  0.00    +0.000 A 
ATOM      6  C   UNL     1       2.421   5.395  19.489  0.00  0.00    +0.000 A 
ENDROOT
BRANCH   5   7
ATOM      7  O   UNL     1       3.104   7.477  18.379  0.00  0.00    +0.000 OA
ATOM      8  C   UNL     1       1.997   8.139  18.983  0.00  0.00    +0.000 C 
ENDBRANCH   5   7
BRANCH   1   9
ATOM      9  C   UNL     1       1.788   3.312  20.802  0.00  0.00    +0.000 C 
BRANCH   9  11
ATOM     10  C   UNL     1       0.770   2.300  18.744  0.00  0.00    +0.000 C 
ATOM     11  C   UNL     1       0.651   2.745  20.001  0.00  0.00    +0.000 C 
ENDBRANCH   9  11
ENDBRANCH   1   9
BRANCH   4  12
ATOM     12  O   UNL     1       5.622   6.521  17.987  0.00  0.00    +0.000 OA
BRANCH  12  13
ATOM     13  P   UNL     1       6.535   5.707  16.764  0.00  0.00    +0.000 P 
ATOM     14  S   UNL     1       5.115   6.527  15.462  0.00  0.00    +0.000 S 
BRANCH  13  15
ATOM     15  O   UNL     1       7.733   6.887  16.839  0.00  0.00    +0.000 OA
BRANCH  15  16
ATOM     16  C   UNL     1       8.034   7.570  18.059  0.00  0.00    +0.000 C 
ATOM     17  C   UNL     1       8.186   9.068  17.873  0.00  0.00    +0.000 C 
ENDBRANCH  15  16
ENDBRANCH  13  15
BRANCH  13  18
ATOM     18  O   UNL     1       7.449   4.893  15.541  0.00  0.00    +0.000 OA
BRANCH  18  19
ATOM     19  C   UNL     1       6.952   4.659  14.224  0.00  0.00    +0.000 C 
ATOM     20  C   UNL     1       7.874   5.213  13.157  0.00  0.00    +0.000 C 
ENDBRANCH  18  19
ENDBRANCH  13  18
ENDBRANCH  12  13
ENDBRANCH   4  12
TORSDOF 9
ENDMDL
MODEL 3
REMARK VINA RESULT:      -5.9      2.796      6.189
REMARK  Name = 
REMARK  12 active torsions:
REMARK  status: ('A' for Active; 'I' for Inactive)
REMARK    1  A    between atoms: C_2  and  C_3
REMARK    2  A    between atoms: C_3  and  C_4
REMARK    3  A    between atoms: C_7  and  O_8
REMARK    4  A    between atoms: O_8  and  P_9
REMARK    5  A    between atoms: P_9  and  O_11
REMARK    6  A    between atoms: P_9  and  O_14
REMARK    7  A    between atoms: O_11  and  C_12
REMARK    8  A    between atoms: C_12  and  C_13
REMARK    9  A    between atoms: O_14  and  C_15
REMARK   10  A    between atoms: C_15  and  C_16
REMARK   11  A    between atoms: C_17  and  O_18
REMARK   12  A    between atoms: O_18  and  C_19
REMARK                            x       y       z     vdW  Elec       q    Type
REMARK                         _______ _______ _______ _____ _____    ______ ____
ROOT
ATOM      1  C   UNL     1       6.419   4.470  15.029  0.00  0.00    +0.000 A 
ATOM      2  C   UNL     1       5.101   4.113  15.306  0.00  0.00    +0.000 A 
ATOM      3  C   UNL     1       4.681   3.954  16.627  0.00  0.00    +0.000 A 
ATOM      4  C   UNL     1       5.558   4.171  17.706  0.00  0.00    +0.000 A 
ATOM      5  C   UNL     1       6.898   4.488  17.440  0.00  0.00    +0.000 A 
ATOM      6  C   UNL     1       7.320   4.611  16.099  0.00  0.00    +0.000 A 
ENDROOT
BRANCH   5   7
ATOM      7  O   UNL     1       7.714   4.689  18.523  0.00  0.00    +0.000 OA
ATOM      8  C   UNL     1       7.913   6.042  18.920  0.00  0.00    +0.000 C 
ENDBRANCH   5   7
BRANCH   1   9
ATOM      9  C   UNL     1       6.855   4.716  13.602  0.00  0.00    +0.000 C 
BRANCH   9  11
ATOM     10  C   UNL     1       5.362   3.399  12.076  0.00  0.00    +0.000 C 
ATOM     11  C   UNL     1       6.547   3.579  12.671  0.00  0.00    +0.000 C 
ENDBRANCH   9  11
ENDBRANCH   1   9
BRANCH   4  12
ATOM     12  O   UNL     1       5.103   4.116  19.033  0.00  0.00    +0.000 OA
BRANCH  12  13
ATOM     13  P   UNL     1       3.593   3.288  19.204  0.00  0.00    +0.000 P 
ATOM     14  S   UNL     1       4.666   2.051  20.508  0.00  0.00    +0.000 S 
BRANCH  13  15
ATOM     15  O   UNL     1       3.010   4.508  20.204  0.00  0.00    +0.000 OA
BRANCH  15  16
ATOM     16  C   UNL     1       3.401   5.873  20.026  0.00  0.00    +0.000 C 
ATOM     17  C   UNL     1       2.389   6.677  19.232  0.00  0.00    +0.000 C 
ENDBRANCH  15  16
ENDBRANCH  13  15
BRANCH  13  18
ATOM     18  O   UNL     1       2.083   2.461  19.374  0.00  0.00    +0.000 OA
BRANCH  18  19
ATOM     19  C   UNL     1       0.923   2.792  18.613  0.00  0.00    +0.000 C 
ATOM     20  C   UNL     1       1.213   3.835  17.552  0.00  0.00    +0.000 C 
ENDBRANCH  18  19
ENDBRANCH  13  18
ENDBRANCH  12  13
ENDBRANCH   4  12
TORSDOF 9
ENDMDL
MODEL 4
REMARK VINA RESULT:      -5.9      2.393      6.236
REMARK  Name = 
REMARK  12 active torsions:
REMARK  status: ('A' for Active; 'I' for Inactive)
REMARK    1  A    between atoms: C_2  and  C_3
REMARK    2  A    between atoms: C_3  and  C_4
REMARK    3  A    between atoms: C_7  and  O_8
REMARK    4  A    between atoms: O_8  and  P_9
REMARK    5  A    between atoms: P_9  and  O_11
REMARK    6  A    between atoms: P_9  and  O_14
REMARK    7  A    between atoms: O_11  and  C_12
REMARK    8  A    between atoms: C_12  and  C_13
REMARK    9  A    between atoms: O_14  and  C_15
REMARK   10  A    between atoms: C_15  and  C_16
REMARK   11  A    between atoms: C_17  and  O_18
REMARK   12  A    between atoms: O_18  and  C_19
REMARK                            x       y       z     vdW  Elec       q    Type
REMARK                         _______ _______ _______ _____ _____    ______ ____
ROOT
ATOM      1  C   UNL     1       7.306   6.507  18.129  0.00  0.00    +0.000 A 
ATOM      2  C   UNL     1       6.886   5.537  19.036  0.00  0.00    +0.000 A 
ATOM      3  C   UNL     1       6.024   4.519  18.626  0.00  0.00    +0.000 A 
ATOM      4  C   UNL     1       5.579   4.429  17.294  0.00  0.00    +0.000 A 
ATOM      5  C   UNL     1       5.959   5.424  16.382  0.00  0.00    +0.000 A 
ATOM      6  C   UNL     1       6.802   6.468  16.817  0.00  0.00    +0.000 A 
ENDROOT
BRANCH   5   7
ATOM      7  O   UNL     1       5.500   5.294  15.097  0.00  0.00    +0.000 OA
ATOM      8  C   UNL     1       6.395   4.697  14.164  0.00  0.00    +0.000 C 
ENDBRANCH   5   7
BRANCH   1   9
ATOM      9  C   UNL     1       8.299   7.565  18.555  0.00  0.00    +0.000 C 
BRANCH   9  11
ATOM     10  C   UNL     1       8.778  10.001  18.195  0.00  0.00    +0.000 C 
ATOM     11  C   UNL     1       8.084   8.896  17.895  0.00  0.00    +0.000 C 
ENDBRANCH   9  11
ENDBRANCH   1   9
BRANCH   4  12
ATOM     12  O   UNL     1       4.800   3.344  16.861  0.00  0.00    +0.000 OA
BRANCH  12  13
ATOM     13  P   UNL     1       3.136   3.471  17.319  0.00  0.00    +0.000 P 
ATOM     14  S   UNL     1       3.586   1.869  18.588  0.00  0.00    +0.000 S 
BRANCH  13  15
ATOM     15  O   UNL     1       3.473   4.827  18.257  0.00  0.00    +0.000 OA
BRANCH  15  16
ATOM     16  C   UNL     1       2.613   5.971  18.255  0.00  0.00    +0.000 C 
ATOM     17  C   UNL     1       2.470   6.603  19.626  0.00  0.00    +0.000 C 
ENDBRANCH  15  16
ENDBRANCH  13  15
BRANCH  13  18
ATOM     18  O   UNL     1       1.473   3.599  17.776  0.00  0.00    +0.000 OA
BRANCH  18  19
ATOM     19  C   UNL     1       0.854   2.723  18.716  0.00  0.00    +0.000 C 
ATOM     20  C   UNL     1       0.719   3.355  20.086  0.00  0.00    +0.000 C 
ENDBRANCH  18  19
ENDBRANCH  13  18
ENDBRANCH  12  13
ENDBRANCH   4  12
TORSDOF 9
ENDMDL
MODEL 5
REMARK VINA RESULT:      -5.9      3.849      6.447
REMARK  Name = 
REMARK  12 active torsions:
REMARK  status: ('A' for Active; 'I' for Inactive)
REMARK    1  A    between atoms: C_2  and  C_3
REMARK    2  A    between atoms: C_3  and  C_4
REMARK    3  A    between atoms: C_7  and  O_8
REMARK    4  A    between atoms: O_8  and  P_9
REMARK    5  A    between atoms: P_9  and  O_11
REMARK    6  A    between atoms: P_9  and  O_14
REMARK    7  A    between atoms: O_11  and  C_12
REMARK    8  A    between atoms: C_12  and  C_13
REMARK    9  A    between atoms: O_14  and  C_15
REMARK   10  A    between atoms: C_15  and  C_16
REMARK   11  A    between atoms: C_17  and  O_18
REMARK   12  A    between atoms: O_18  and  C_19
REMARK                            x       y       z     vdW  Elec       q    Type
REMARK                         _______ _______ _______ _____ _____    ______ ____
ROOT
ATOM      1  C   UNL     1       0.045  10.127  18.665  0.00  0.00    +0.000 A 
ATOM      2  C   UNL     1       0.915   9.596  17.716  0.00  0.00    +0.000 A 
ATOM      3  C   UNL     1       1.859   8.638  18.089  0.00  0.00    +0.000 A 
ATOM      4  C   UNL     1       1.942   8.169  19.413  0.00  0.00    +0.000 A 
ATOM      5  C   UNL     1       1.101   8.728  20.386  0.00  0.00    +0.000 A 
ATOM      6  C   UNL     1       0.174   9.721  20.004  0.00  0.00    +0.000 A 
ENDROOT
BRANCH   5   7
ATOM      7  O   UNL     1       1.219   8.239  21.662  0.00  0.00    +0.000 OA
ATOM      8  C   UNL     1       1.200   9.202  22.711  0.00  0.00    +0.000 C 
ENDBRANCH   5   7
BRANCH   1   9
ATOM      9  C   UNL     1      -1.028  11.108  18.245  0.00  0.00    +0.000 C 
BRANCH   9  11
ATOM     10  C   UNL     1      -2.578   9.922  16.670  0.00  0.00    +0.000 C 
ATOM     11  C   UNL     1      -2.328  10.458  17.871  0.00  0.00    +0.000 C 
ENDBRANCH   9  11
ENDBRANCH   1   9
BRANCH   4  12
ATOM     12  O   UNL     1       2.819   7.129  19.760  0.00  0.00    +0.000 OA
BRANCH  12  13
ATOM     13  P   UNL     1       2.417   5.619  19.017  0.00  0.00    +0.000 P 
ATOM     14  S   UNL     1       4.445   5.186  19.301  0.00  0.00    +0.000 S 
BRANCH  13  15
ATOM     15  O   UNL     1       1.693   5.084  20.438  0.00  0.00    +0.000 OA
BRANCH  15  16
ATOM     16  C   UNL     1       1.080   3.795  20.527  0.00  0.00    +0.000 C 
ATOM     17  C   UNL     1       1.750   2.892  21.545  0.00  0.00    +0.000 C 
ENDBRANCH  15  16
ENDBRANCH  13  15
BRANCH  13  18
ATOM     18  O   UNL     1       2.015   4.110  18.274  0.00  0.00    +0.000 OA
BRANCH  18  19
ATOM     19  C   UNL     1       2.921   3.384  17.445  0.00  0.00    +0.000 C 
ATOM     20  C   UNL     1       3.107   1.955  17.914  0.00  0.00    +0.000 C 
ENDBRANCH  18  19
ENDBRANCH  13  18
ENDBRANCH  12  13
ENDBRANCH   4  12
TORSDOF 9
ENDMDL
MODEL 6
REMARK VINA RESULT:      -5.8      2.454      6.289
REMARK  Name = 
REMARK  12 active torsions:
REMARK  status: ('A' for Active; 'I' for Inactive)
REMARK    1  A    between atoms: C_2  and  C_3
REMARK    2  A    between atoms: C_3  and  C_4
REMARK    3  A    between atoms: C_7  and  O_8
REMARK    4  A    between atoms: O_8  and  P_9
REMARK    5  A    between atoms: P_9  and  O_11
REMARK    6  A    between atoms: P_9  and  O_14
REMARK    7  A    between atoms: O_11  and  C_12
REMARK    8  A    between atoms: C_12  and  C_13
REMARK    9  A    between atoms: O_14  and  C_15
REMARK   10  A    between atoms: C_15  and  C_16
REMARK   11  A    between atoms: C_17  and  O_18
REMARK   12  A    between atoms: O_18  and  C_19
REMARK                            x       y       z     vdW  Elec       q    Type
REMARK                         _______ _______ _______ _____ _____    ______ ____
ROOT
ATOM      1  C   UNL     1       6.398   4.373  15.026  0.00  0.00    +0.000 A 
ATOM      2  C   UNL     1       5.239   3.692  15.393  0.00  0.00    +0.000 A 
ATOM      3  C   UNL     1       4.808   3.707  16.720  0.00  0.00    +0.000 A 
ATOM      4  C   UNL     1       5.509   4.421  17.710  0.00  0.00    +0.000 A 
ATOM      5  C   UNL     1       6.700   5.074  17.362  0.00  0.00    +0.000 A 
ATOM      6  C   UNL     1       7.145   5.022  16.023  0.00  0.00    +0.000 A 
ENDROOT
BRANCH   5   7
ATOM      7  O   UNL     1       7.348   5.755  18.360  0.00  0.00    +0.000 OA
ATOM      8  C   UNL     1       7.782   7.074  18.044  0.00  0.00    +0.000 C 
ENDBRANCH   5   7
BRANCH   1   9
ATOM      9  C   UNL     1       6.823   4.419  13.575  0.00  0.00    +0.000 C 
BRANCH   9  11
ATOM     10  C   UNL     1       6.497   2.702  11.775  0.00  0.00    +0.000 C 
ATOM     11  C   UNL     1       5.989   3.556  12.673  0.00  0.00    +0.000 C 
ENDBRANCH   9  11
ENDBRANCH   1   9
BRANCH   4  12
ATOM     12  O   UNL     1       5.013   4.522  19.019  0.00  0.00    +0.000 OA
BRANCH  12  13
ATOM     13  P   UNL     1       3.286   4.447  19.103  0.00  0.00    +0.000 P 
ATOM     14  S   UNL     1       3.637   2.968  20.542  0.00  0.00    +0.000 S 
BRANCH  13  15
ATOM     15  O   UNL     1       3.244   5.870  19.999  0.00  0.00    +0.000 OA
BRANCH  15  16
ATOM     16  C   UNL     1       2.418   6.973  19.614  0.00  0.00    +0.000 C 
ATOM     17  C   UNL     1       1.558   7.491  20.750  0.00  0.00    +0.000 C 
ENDBRANCH  15  16
ENDBRANCH  13  15
BRANCH  13  18
ATOM     18  O   UNL     1       1.560   4.372  19.188  0.00  0.00    +0.000 OA
BRANCH  18  19
ATOM     19  C   UNL     1       0.856   3.276  19.770  0.00  0.00    +0.000 C 
ATOM     20  C   UNL     1       0.598   2.165  18.771  0.00  0.00    +0.000 C 
ENDBRANCH  18  19
ENDBRANCH  13  18
ENDBRANCH  12  13
ENDBRANCH   4  12
TORSDOF 9
ENDMDL
MODEL 7
REMARK VINA RESULT:      -5.8      1.821      2.176
REMARK  Name = 
REMARK  12 active torsions:
REMARK  status: ('A' for Active; 'I' for Inactive)
REMARK    1  A    between atoms: C_2  and  C_3
REMARK    2  A    between atoms: C_3  and  C_4
REMARK    3  A    between atoms: C_7  and  O_8
REMARK    4  A    between atoms: O_8  and  P_9
REMARK    5  A    between atoms: P_9  and  O_11
REMARK    6  A    between atoms: P_9  and  O_14
REMARK    7  A    between atoms: O_11  and  C_12
REMARK    8  A    between atoms: C_12  and  C_13
REMARK    9  A    between atoms: O_14  and  C_15
REMARK   10  A    between atoms: C_15  and  C_16
REMARK   11  A    between atoms: C_17  and  O_18
REMARK   12  A    between atoms: O_18  and  C_19
REMARK                            x       y       z     vdW  Elec       q    Type
REMARK                         _______ _______ _______ _____ _____    ______ ____
ROOT
ATOM      1  C   UNL     1       1.881   3.804  18.629  0.00  0.00    +0.000 A 
ATOM      2  C   UNL     1       2.557   3.071  17.657  0.00  0.00    +0.000 A 
ATOM      3  C   UNL     1       3.478   3.700  16.819  0.00  0.00    +0.000 A 
ATOM      4  C   UNL     1       3.766   5.072  16.945  0.00  0.00    +0.000 A 
ATOM      5  C   UNL     1       3.060   5.830  17.890  0.00  0.00    +0.000 A 
ATOM      6  C   UNL     1       2.105   5.190  18.709  0.00  0.00    +0.000 A 
ENDROOT
BRANCH   5   7
ATOM      7  O   UNL     1       3.374   7.162  17.975  0.00  0.00    +0.000 OA
ATOM      8  C   UNL     1       2.278   8.060  18.116  0.00  0.00    +0.000 C 
ENDBRANCH   5   7
BRANCH   1   9
ATOM      9  C   UNL     1       0.940   3.108  19.587  0.00  0.00    +0.000 C 
BRANCH   9  11
ATOM     10  C   UNL     1       1.408   2.397  21.947  0.00  0.00    +0.000 C 
ATOM     11  C   UNL     1       1.251   3.363  21.033  0.00  0.00    +0.000 C 
ENDBRANCH   9  11
ENDBRANCH   1   9
BRANCH   4  12
ATOM     12  O   UNL     1       4.770   5.676  16.173  0.00  0.00    +0.000 OA
BRANCH  12  13
ATOM     13  P   UNL     1       6.370   5.289  16.708  0.00  0.00    +0.000 P 
ATOM     14  S   UNL     1       6.530   4.344  14.847  0.00  0.00    +0.000 S 
BRANCH  13  15
ATOM     15  O   UNL     1       6.880   6.862  16.399  0.00  0.00    +0.000 OA
BRANCH  15  16
ATOM     16  C   UNL     1       6.746   7.897  17.378  0.00  0.00    +0.000 C 
ATOM     17  C   UNL     1       8.065   8.572  17.706  0.00  0.00    +0.000 C 
ENDBRANCH  15  16
ENDBRANCH  13  15
BRANCH  13  18
ATOM     18  O   UNL     1       7.968   4.902  17.242  0.00  0.00    +0.000 OA
BRANCH  18  19
ATOM     19  C   UNL     1       8.277   4.562  18.593  0.00  0.00    +0.000 C 
ATOM     20  C   UNL     1       7.729   5.575  19.578  0.00  0.00    +0.000 C 
ENDBRANCH  18  19
ENDBRANCH  13  18
ENDBRANCH  12  13
ENDBRANCH   4  12
TORSDOF 9
ENDMDL
MODEL 8
REMARK VINA RESULT:      -5.7      2.276      4.537
REMARK  Name = 
REMARK  12 active torsions:
REMARK  status: ('A' for Active; 'I' for Inactive)
REMARK    1  A    between atoms: C_2  and  C_3
REMARK    2  A    between atoms: C_3  and  C_4
REMARK    3  A    between atoms: C_7  and  O_8
REMARK    4  A    between atoms: O_8  and  P_9
REMARK    5  A    between atoms: P_9  and  O_11
REMARK    6  A    between atoms: P_9  and  O_14
REMARK    7  A    between atoms: O_11  and  C_12
REMARK    8  A    between atoms: C_12  and  C_13
REMARK    9  A    between atoms: O_14  and  C_15
REMARK   10  A    between atoms: C_15  and  C_16
REMARK   11  A    between atoms: C_17  and  O_18
REMARK   12  A    between atoms: O_18  and  C_19
REMARK                            x       y       z     vdW  Elec       q    Type
REMARK                         _______ _______ _______ _____ _____    ______ ____
ROOT
ATOM      1  C   UNL     1       1.510   7.263  20.474  0.00  0.00    +0.000 A 
ATOM      2  C   UNL     1       2.179   7.819  19.385  0.00  0.00    +0.000 A 
ATOM      3  C   UNL     1       2.847   6.996  18.478  0.00  0.00    +0.000 A 
ATOM      4  C   UNL     1       2.845   5.596  18.620  0.00  0.00    +0.000 A 
ATOM      5  C   UNL     1       2.213   5.027  19.735  0.00  0.00    +0.000 A 
ATOM      6  C   UNL     1       1.570   5.872  20.665  0.00  0.00    +0.000 A 
ENDROOT
BRANCH   5   7
ATOM      7  O   UNL     1       2.238   3.660  19.830  0.00  0.00    +0.000 OA
ATOM      8  C   UNL     1       2.519   3.123  21.119  0.00  0.00    +0.000 C 
ENDBRANCH   5   7
BRANCH   1   9
ATOM      9  C   UNL     1       0.723   8.149  21.414  0.00  0.00    +0.000 C 
BRANCH   9  11
ATOM     10  C   UNL     1      -0.440  10.122  20.390  0.00  0.00    +0.000 C 
ATOM     11  C   UNL     1       0.640   9.580  20.969  0.00  0.00    +0.000 C 
ENDBRANCH   9  11
ENDBRANCH   1   9
BRANCH   4  12
ATOM     12  O   UNL     1       3.425   4.768  17.647  0.00  0.00    +0.000 OA
BRANCH  12  13
ATOM     13  P   UNL     1       4.973   5.326  17.109  0.00  0.00    +0.000 P 
ATOM     14  S   UNL     1       5.634   4.610  18.961  0.00  0.00    +0.000 S 
BRANCH  13  15
ATOM     15  O   UNL     1       5.126   3.995  16.091  0.00  0.00    +0.000 OA
BRANCH  15  16
ATOM     16  C   UNL     1       6.201   3.890  15.154  0.00  0.00    +0.000 C 
ATOM     17  C   UNL     1       5.735   3.960  13.712  0.00  0.00    +0.000 C 
ENDBRANCH  15  16
ENDBRANCH  13  15
BRANCH  13  18
ATOM     18  O   UNL     1       6.519   5.884  16.571  0.00  0.00    +0.000 OA
BRANCH  18  19
ATOM     19  C   UNL     1       7.543   6.321  17.464  0.00  0.00    +0.000 C 
ATOM     20  C   UNL     1       7.644   7.831  17.524  0.00  0.00    +0.000 C 
ENDBRANCH  18  19
ENDBRANCH  13  18
ENDBRANCH  12  13
ENDBRANCH   4  12
TORSDOF 9
ENDMDL
MODEL 9
REMARK VINA RESULT:      -5.7      2.961      6.286
REMARK  Name = 
REMARK  12 active torsions:
REMARK  status: ('A' for Active; 'I' for Inactive)
REMARK    1  A    between atoms: C_2  and  C_3
REMARK    2  A    between atoms: C_3  and  C_4
REMARK    3  A    between atoms: C_7  and  O_8
REMARK    4  A    between atoms: O_8  and  P_9
REMARK    5  A    between atoms: P_9  and  O_11
REMARK    6  A    between atoms: P_9  and  O_14
REMARK    7  A    between atoms: O_11  and  C_12
REMARK    8  A    between atoms: C_12  and  C_13
REMARK    9  A    between atoms: O_14  and  C_15
REMARK   10  A    between atoms: C_15  and  C_16
REMARK   11  A    between atoms: C_17  and  O_18
REMARK   12  A    between atoms: O_18  and  C_19
REMARK                            x       y       z     vdW  Elec       q    Type
REMARK                         _______ _______ _______ _____ _____    ______ ____
ROOT
ATOM      1  C   UNL     1       6.160   4.471  15.864  0.00  0.00    +0.000 A 
ATOM      2  C   UNL     1       4.773   4.355  15.910  0.00  0.00    +0.000 A 
ATOM      3  C   UNL     1       4.100   4.459  17.129  0.00  0.00    +0.000 A 
ATOM      4  C   UNL     1       4.793   4.706  18.328  0.00  0.00    +0.000 A 
ATOM      5  C   UNL     1       6.193   4.782  18.302  0.00  0.00    +0.000 A 
ATOM      6  C   UNL     1       6.865   4.640  17.069  0.00  0.00    +0.000 A 
ENDROOT
BRANCH   5   7
ATOM      7  O   UNL     1       6.823   5.023  19.495  0.00  0.00    +0.000 OA
ATOM      8  C   UNL     1       8.017   5.797  19.433  0.00  0.00    +0.000 C 
ENDBRANCH   5   7
BRANCH   1   9
ATOM      9  C   UNL     1       6.881   4.434  14.535  0.00  0.00    +0.000 C 
BRANCH   9  11
ATOM     10  C   UNL     1       6.566   3.544  12.211  0.00  0.00    +0.000 C 
ATOM     11  C   UNL     1       6.079   3.811  13.430  0.00  0.00    +0.000 C 
ENDBRANCH   9  11
ENDBRANCH   1   9
BRANCH   4  12
ATOM     12  O   UNL     1       4.104   4.918  19.533  0.00  0.00    +0.000 OA
BRANCH  12  13
ATOM     13  P   UNL     1       2.460   4.380  19.483  0.00  0.00    +0.000 P 
ATOM     14  S   UNL     1       2.779   3.911  21.498  0.00  0.00    +0.000 S 
BRANCH  13  15
ATOM     15  O   UNL     1       1.913   5.971  19.527  0.00  0.00    +0.000 OA
BRANCH  15  16
ATOM     16  C   UNL     1       1.723   6.663  20.765  0.00  0.00    +0.000 C 
ATOM     17  C   UNL     1       1.486   8.150  20.579  0.00  0.00    +0.000 C 
ENDBRANCH  15  16
ENDBRANCH  13  15
BRANCH  13  18
ATOM     18  O   UNL     1       0.816   3.844  19.433  0.00  0.00    +0.000 OA
BRANCH  18  19
ATOM     19  C   UNL     1       0.429   2.565  18.932  0.00  0.00    +0.000 C 
ATOM     20  C   UNL     1       1.624   1.711  18.557  0.00  0.00    +0.000 C 
ENDBRANCH  18  19
ENDBRANCH  13  18
ENDBRANCH  12  13
ENDBRANCH   4  12
TORSDOF 9
ENDMDL
