MODEL 1
REMARK VINA RESULT:      -6.6      0.000      0.000
REMARK  Name = 
REMARK  3 active torsions:
REMARK  status: ('A' for Active; 'I' for Inactive)
REMARK    1  A    between atoms: C_2  and  C_3
REMARK    2  A    between atoms: C_12  and  N_13
REMARK    3  A    between atoms: C_20  and  C_21
REMARK                            x       y       z     vdW  Elec       q    Type
REMARK                         _______ _______ _______ _____ _____    ______ ____
ROOT
ATOM      1  O   UNL     1       1.221   9.795  22.183  0.00  0.00    +0.000 OA
ATOM      2  C   UNL     1       0.646   9.697  21.097  0.00  0.00    +0.000 C 
ATOM      3  N   UNL     1      -0.551  10.360  20.841  0.00  0.00    +0.000 N 
ATOM      4  C   UNL     1      -1.397  10.227  19.659  0.00  0.00    +0.000 C 
ATOM      5  C   UNL     1      -1.262  11.513  18.821  0.00  0.00    +0.000 C 
ATOM      6  C   UNL     1      -1.736  12.739  19.642  0.00  0.00    +0.000 C 
ATOM      7  C   UNL     1      -0.857  12.780  20.924  0.00  0.00    +0.000 C 
ATOM      8  C   UNL     1      -0.945  11.470  21.711  0.00  0.00    +0.000 C 
ENDROOT
BRANCH   6   9
ATOM      9  N   UNL     1      -3.134  12.505  19.974  0.00  0.00    +0.000 NA
ATOM     10  C   UNL     1      -3.982  12.445  18.762  0.00  0.00    +0.000 C 
ATOM     11  C   UNL     1      -5.173  12.783  19.701  0.00  0.00    +0.000 C 
ATOM     12  C   UNL     1      -6.275  13.233  18.718  0.00  0.00    +0.000 C 
ATOM     13  C   UNL     1      -7.500  12.373  19.042  0.00  0.00    +0.000 C 
ATOM     14  C   UNL     1      -6.980  11.121  19.721  0.00  0.00    +0.000 C 
ATOM     15  C   UNL     1      -5.722  11.553  20.451  0.00  0.00    +0.000 C 
ATOM     16  C   UNL     1      -3.981  13.664  20.416  0.00  0.00    +0.000 C 
BRANCH  16  17
ATOM     17  C   UNL     1      -3.821  13.870  22.013  0.00  0.00    +0.000 A 
ATOM     18  C   UNL     1      -4.075  12.866  22.972  0.00  0.00    +0.000 A 
ATOM     19  C   UNL     1      -3.887  13.049  24.351  0.00  0.00    +0.000 A 
ATOM     20  C   UNL     1      -3.425  14.265  24.841  0.00  0.00    +0.000 A 
ATOM     21  C   UNL     1      -3.105  15.263  23.934  0.00  0.00    +0.000 A 
ATOM     22  C   UNL     1      -3.302  15.070  22.553  0.00  0.00    +0.000 A 
ENDBRANCH  16  17
ENDBRANCH   6   9
BRANCH   2  23
ATOM     23  C   UNL     1       1.312   8.856  20.055  0.00  0.00    +0.000 A 
ATOM     24  C   UNL     1       1.800   7.599  20.430  0.00  0.00    +0.000 A 
ATOM     25  C   UNL     1       2.484   6.798  19.512  0.00  0.00    +0.000 A 
ATOM     26  C   UNL     1       2.671   7.241  18.198  0.00  0.00    +0.000 A 
ATOM     27  C   UNL     1       2.211   8.494  17.818  0.00  0.00    +0.000 A 
ATOM     28  C   UNL     1       1.575   9.303  18.758  0.00  0.00    +0.000 A 
ENDBRANCH   2  23
TORSDOF 3
ENDMDL
MODEL 2
REMARK VINA RESULT:      -6.6      4.347      7.189
REMARK  Name = 
REMARK  3 active torsions:
REMARK  status: ('A' for Active; 'I' for Inactive)
REMARK    1  A    between atoms: C_2  and  C_3
REMARK    2  A    between atoms: C_12  and  N_13
REMARK    3  A    between atoms: C_20  and  C_21
REMARK                            x       y       z     vdW  Elec       q    Type
REMARK                         _______ _______ _______ _____ _____    ______ ____
ROOT
ATOM      1  O   UNL     1       1.062  17.467  18.804  0.00  0.00    +0.000 OA
ATOM      2  C   UNL     1       1.767  16.606  19.336  0.00  0.00    +0.000 C 
ATOM      3  N   UNL     1       1.296  15.317  19.572  0.00  0.00    +0.000 N 
ATOM      4  C   UNL     1       1.971  14.252  20.307  0.00  0.00    +0.000 C 
ATOM      5  C   UNL     1       2.445  13.192  19.295  0.00  0.00    +0.000 C 
ATOM      6  C   UNL     1       1.231  12.591  18.541  0.00  0.00    +0.000 C 
ATOM      7  C   UNL     1       0.506  13.780  17.850  0.00  0.00    +0.000 C 
ATOM      8  C   UNL     1       0.103  14.859  18.856  0.00  0.00    +0.000 C 
ENDROOT
BRANCH   6   9
ATOM      9  N   UNL     1       0.379  11.974  19.548  0.00  0.00    +0.000 NA
ATOM     10  C   UNL     1       1.171  11.394  20.655  0.00  0.00    +0.000 C 
ATOM     11  C   UNL     1      -0.071  10.505  20.945  0.00  0.00    +0.000 C 
ATOM     12  C   UNL     1       0.502   9.391  21.847  0.00  0.00    +0.000 C 
ATOM     13  C   UNL     1      -0.381   9.374  23.099  0.00  0.00    +0.000 C 
ATOM     14  C   UNL     1      -1.014  10.748  23.198  0.00  0.00    +0.000 C 
ATOM     15  C   UNL     1      -1.156  11.229  21.767  0.00  0.00    +0.000 C 
ATOM     16  C   UNL     1      -0.151  10.589  19.303  0.00  0.00    +0.000 C 
BRANCH  16  17
ATOM     17  C   UNL     1      -1.523  10.680  18.453  0.00  0.00    +0.000 A 
ATOM     18  C   UNL     1      -2.593  11.548  18.762  0.00  0.00    +0.000 A 
ATOM     19  C   UNL     1      -3.759  11.646  17.985  0.00  0.00    +0.000 A 
ATOM     20  C   UNL     1      -3.909  10.868  16.844  0.00  0.00    +0.000 A 
ATOM     21  C   UNL     1      -2.861  10.042  16.465  0.00  0.00    +0.000 A 
ATOM     22  C   UNL     1      -1.697   9.949  17.253  0.00  0.00    +0.000 A 
ENDBRANCH  16  17
ENDBRANCH   6   9
BRANCH   2  23
ATOM     23  C   UNL     1       3.164  17.004  19.690  0.00  0.00    +0.000 A 
ATOM     24  C   UNL     1       4.196  16.653  18.813  0.00  0.00    +0.000 A 
ATOM     25  C   UNL     1       5.527  16.947  19.125  0.00  0.00    +0.000 A 
ATOM     26  C   UNL     1       5.837  17.615  20.313  0.00  0.00    +0.000 A 
ATOM     27  C   UNL     1       4.826  17.951  21.202  0.00  0.00    +0.000 A 
ATOM     28  C   UNL     1       3.509  17.606  20.903  0.00  0.00    +0.000 A 
ENDBRANCH   2  23
TORSDOF 3
ENDMDL
MODEL 3
REMARK VINA RESULT:      -6.2      2.674      9.452
REMARK  Name = 
REMARK  3 active torsions:
REMARK  status: ('A' for Active; 'I' for Inactive)
REMARK    1  A    between atoms: C_2  and  C_3
REMARK    2  A    between atoms: C_12  and  N_13
REMARK    3  A    between atoms: C_20  and  C_21
REMARK                            x       y       z     vdW  Elec       q    Type
REMARK                         _______ _______ _______ _____ _____    ______ ____
ROOT
ATOM      1  O   UNL     1      -1.144  11.099  17.841  0.00  0.00    +0.000 OA
ATOM      2  C   UNL     1      -0.814  10.636  18.935  0.00  0.00    +0.000 C 
ATOM      3  N   UNL     1      -0.073   9.462  19.040  0.00  0.00    +0.000 N 
ATOM      4  C   UNL     1       0.267   8.741  20.262  0.00  0.00    +0.000 C 
ATOM      5  C   UNL     1       1.768   8.944  20.542  0.00  0.00    +0.000 C 
ATOM      6  C   UNL     1       2.613   8.376  19.373  0.00  0.00    +0.000 C 
ATOM      7  C   UNL     1       2.149   9.122  18.089  0.00  0.00    +0.000 C 
ATOM      8  C   UNL     1       0.644   8.971  17.860  0.00  0.00    +0.000 C 
ENDROOT
BRANCH   6   9
ATOM      9  N   UNL     1       2.309   6.955  19.290  0.00  0.00    +0.000 NA
ATOM     10  C   UNL     1       1.817   6.424  20.580  0.00  0.00    +0.000 C 
ATOM     11  C   UNL     1       2.251   5.026  20.056  0.00  0.00    +0.000 C 
ATOM     12  C   UNL     1       2.276   4.166  21.338  0.00  0.00    +0.000 C 
ATOM     13  C   UNL     1       1.394   2.949  21.040  0.00  0.00    +0.000 C 
ATOM     14  C   UNL     1       0.450   3.363  19.930  0.00  0.00    +0.000 C 
ATOM     15  C   UNL     1       1.215   4.385  19.111  0.00  0.00    +0.000 C 
ATOM     16  C   UNL     1       3.433   5.963  19.397  0.00  0.00    +0.000 C 
BRANCH  16  17
ATOM     17  C   UNL     1       4.084   5.728  17.936  0.00  0.00    +0.000 A 
ATOM     18  C   UNL     1       4.602   6.759  17.121  0.00  0.00    +0.000 A 
ATOM     19  C   UNL     1       5.205   6.530  15.874  0.00  0.00    +0.000 A 
ATOM     20  C   UNL     1       5.323   5.237  15.378  0.00  0.00    +0.000 A 
ATOM     21  C   UNL     1       4.883   4.185  16.167  0.00  0.00    +0.000 A 
ATOM     22  C   UNL     1       4.275   4.426  17.415  0.00  0.00    +0.000 A 
ENDBRANCH  16  17
ENDBRANCH   6   9
BRANCH   2  23
ATOM     23  C   UNL     1      -1.224  11.412  20.145  0.00  0.00    +0.000 A 
ATOM     24  C   UNL     1      -2.511  11.962  20.176  0.00  0.00    +0.000 A 
ATOM     25  C   UNL     1      -2.924  12.748  21.256  0.00  0.00    +0.000 A 
ATOM     26  C   UNL     1      -2.057  12.975  22.329  0.00  0.00    +0.000 A 
ATOM     27  C   UNL     1      -0.771  12.453  22.303  0.00  0.00    +0.000 A 
ATOM     28  C   UNL     1      -0.355  11.715  21.197  0.00  0.00    +0.000 A 
ENDBRANCH   2  23
TORSDOF 3
ENDMDL
MODEL 4
REMARK VINA RESULT:      -6.2      4.169      5.462
REMARK  Name = 
REMARK  3 active torsions:
REMARK  status: ('A' for Active; 'I' for Inactive)
REMARK    1  A    between atoms: C_2  and  C_3
REMARK    2  A    between atoms: C_12  and  N_13
REMARK    3  A    between atoms: C_20  and  C_21
REMARK                            x       y       z     vdW  Elec       q    Type
REMARK                         _______ _______ _______ _____ _____    ______ ____
ROOT
ATOM      1  O   UNL     1       3.426  15.014  22.860  0.00  0.00    +0.000 OA
ATOM      2  C   UNL     1       3.372  14.887  21.635  0.00  0.00    +0.000 C 
ATOM      3  N   UNL     1       2.297  14.260  21.011  0.00  0.00    +0.000 N 
ATOM      4  C   UNL     1       2.170  13.927  19.596  0.00  0.00    +0.000 C 
ATOM      5  C   UNL     1       1.138  14.881  18.965  0.00  0.00    +0.000 C 
ATOM      6  C   UNL     1      -0.242  14.705  19.647  0.00  0.00    +0.000 C 
ATOM      7  C   UNL     1      -0.027  14.990  21.161  0.00  0.00    +0.000 C 
ATOM      8  C   UNL     1       1.050  14.084  21.760  0.00  0.00    +0.000 C 
ENDROOT
BRANCH   6   9
ATOM      9  N   UNL     1      -0.642  13.323  19.428  0.00  0.00    +0.000 NA
ATOM     10  C   UNL     1      -0.700  12.991  17.987  0.00  0.00    +0.000 C 
ATOM     11  C   UNL     1      -1.646  11.827  18.395  0.00  0.00    +0.000 C 
ATOM     12  C   UNL     1      -2.305  11.428  17.057  0.00  0.00    +0.000 C 
ATOM     13  C   UNL     1      -2.072   9.921  16.910  0.00  0.00    +0.000 C 
ATOM     14  C   UNL     1      -0.864   9.587  17.764  0.00  0.00    +0.000 C 
ATOM     15  C   UNL     1      -0.892  10.584  18.907  0.00  0.00    +0.000 C 
ATOM     16  C   UNL     1      -2.101  12.969  19.490  0.00  0.00    +0.000 C 
BRANCH  16  17
ATOM     17  C   UNL     1      -2.516  12.660  21.022  0.00  0.00    +0.000 A 
ATOM     18  C   UNL     1      -1.735  11.898  21.918  0.00  0.00    +0.000 A 
ATOM     19  C   UNL     1      -2.090  11.678  23.259  0.00  0.00    +0.000 A 
ATOM     20  C   UNL     1      -3.261  12.222  23.773  0.00  0.00    +0.000 A 
ATOM     21  C   UNL     1      -4.033  13.026  22.949  0.00  0.00    +0.000 A 
ATOM     22  C   UNL     1      -3.669  13.238  21.604  0.00  0.00    +0.000 A 
ENDBRANCH  16  17
ENDBRANCH   6   9
BRANCH   2  23
ATOM     23  C   UNL     1       4.504  15.465  20.847  0.00  0.00    +0.000 A 
ATOM     24  C   UNL     1       5.759  14.852  20.942  0.00  0.00    +0.000 A 
ATOM     25  C   UNL     1       6.864  15.388  20.274  0.00  0.00    +0.000 A 
ATOM     26  C   UNL     1       6.720  16.534  19.487  0.00  0.00    +0.000 A 
ATOM     27  C   UNL     1       5.486  17.164  19.400  0.00  0.00    +0.000 A 
ATOM     28  C   UNL     1       4.404  16.649  20.112  0.00  0.00    +0.000 A 
ENDBRANCH   2  23
TORSDOF 3
ENDMDL
MODEL 5
REMARK VINA RESULT:      -6.2      5.669      9.378
REMARK  Name = 
REMARK  3 active torsions:
REMARK  status: ('A' for Active; 'I' for Inactive)
REMARK    1  A    between atoms: C_2  and  C_3
REMARK    2  A    between atoms: C_12  and  N_13
REMARK    3  A    between atoms: C_20  and  C_21
REMARK                            x       y       z     vdW  Elec       q    Type
REMARK                         _______ _______ _______ _____ _____    ______ ____
ROOT
ATOM      1  O   UNL     1       8.205   4.125  16.580  0.00  0.00    +0.000 OA
ATOM      2  C   UNL     1       7.114   4.442  16.102  0.00  0.00    +0.000 C 
ATOM      3  N   UNL     1       6.038   4.803  16.909  0.00  0.00    +0.000 N 
ATOM      4  C   UNL     1       4.667   5.067  16.484  0.00  0.00    +0.000 C 
ATOM      5  C   UNL     1       4.413   6.583  16.589  0.00  0.00    +0.000 C 
ATOM      6  C   UNL     1       4.583   7.054  18.055  0.00  0.00    +0.000 C 
ATOM      7  C   UNL     1       6.030   6.672  18.478  0.00  0.00    +0.000 C 
ATOM      8  C   UNL     1       6.293   5.175  18.302  0.00  0.00    +0.000 C 
ENDROOT
BRANCH   6   9
ATOM      9  N   UNL     1       3.600   6.328  18.845  0.00  0.00    +0.000 NA
ATOM     10  C   UNL     1       3.391   4.956  18.333  0.00  0.00    +0.000 C 
ATOM     11  C   UNL     1       2.023   4.997  19.068  0.00  0.00    +0.000 C 
ATOM     12  C   UNL     1       1.248   3.824  18.428  0.00  0.00    +0.000 C 
ATOM     13  C   UNL     1       0.772   2.953  19.595  0.00  0.00    +0.000 C 
ATOM     14  C   UNL     1       1.702   3.244  20.756  0.00  0.00    +0.000 C 
ATOM     15  C   UNL     1       2.134   4.686  20.574  0.00  0.00    +0.000 C 
ATOM     16  C   UNL     1       2.139   6.565  18.584  0.00  0.00    +0.000 C 
BRANCH  16  17
ATOM     17  C   UNL     1       1.636   7.834  19.452  0.00  0.00    +0.000 A 
ATOM     18  C   UNL     1       1.505   7.834  20.857  0.00  0.00    +0.000 A 
ATOM     19  C   UNL     1       1.110   8.960  21.598  0.00  0.00    +0.000 A 
ATOM     20  C   UNL     1       0.827  10.159  20.954  0.00  0.00    +0.000 A 
ATOM     21  C   UNL     1       0.998  10.227  19.580  0.00  0.00    +0.000 A 
ATOM     22  C   UNL     1       1.391   9.090  18.846  0.00  0.00    +0.000 A 
ENDBRANCH  16  17
ENDBRANCH   6   9
BRANCH   2  23
ATOM     23  C   UNL     1       7.009   4.449  14.610  0.00  0.00    +0.000 A 
ATOM     24  C   UNL     1       6.165   3.514  14.000  0.00  0.00    +0.000 A 
ATOM     25  C   UNL     1       6.076   3.437  12.607  0.00  0.00    +0.000 A 
ATOM     26  C   UNL     1       6.819   4.312  11.808  0.00  0.00    +0.000 A 
ATOM     27  C   UNL     1       7.675   5.231  12.399  0.00  0.00    +0.000 A 
ATOM     28  C   UNL     1       7.793   5.262  13.787  0.00  0.00    +0.000 A 
ENDBRANCH   2  23
TORSDOF 3
ENDMDL
MODEL 6
REMARK VINA RESULT:      -6.2      5.645      9.412
REMARK  Name = 
REMARK  3 active torsions:
REMARK  status: ('A' for Active; 'I' for Inactive)
REMARK    1  A    between atoms: C_2  and  C_3
REMARK    2  A    between atoms: C_12  and  N_13
REMARK    3  A    between atoms: C_20  and  C_21
REMARK                            x       y       z     vdW  Elec       q    Type
REMARK                         _______ _______ _______ _____ _____    ______ ____
ROOT
ATOM      1  O   UNL     1       8.231   4.113  16.602  0.00  0.00    +0.000 OA
ATOM      2  C   UNL     1       7.127   4.383  16.125  0.00  0.00    +0.000 C 
ATOM      3  N   UNL     1       6.058   4.771  16.929  0.00  0.00    +0.000 N 
ATOM      4  C   UNL     1       4.676   4.989  16.514  0.00  0.00    +0.000 C 
ATOM      5  C   UNL     1       4.397   6.503  16.536  0.00  0.00    +0.000 C 
ATOM      6  C   UNL     1       4.583   7.061  17.970  0.00  0.00    +0.000 C 
ATOM      7  C   UNL     1       6.043   6.727  18.388  0.00  0.00    +0.000 C 
ATOM      8  C   UNL     1       6.330   5.227  18.294  0.00  0.00    +0.000 C 
ENDROOT
BRANCH   6   9
ATOM      9  N   UNL     1       3.626   6.365  18.816  0.00  0.00    +0.000 NA
ATOM     10  C   UNL     1       3.382   4.983  18.348  0.00  0.00    +0.000 C 
ATOM     11  C   UNL     1       2.046   5.057  19.137  0.00  0.00    +0.000 C 
ATOM     12  C   UNL     1       1.234   3.877  18.559  0.00  0.00    +0.000 C 
ATOM     13  C   UNL     1       0.798   3.040  19.765  0.00  0.00    +0.000 C 
ATOM     14  C   UNL     1       1.777   3.349  20.880  0.00  0.00    +0.000 C 
ATOM     15  C   UNL     1       2.216   4.782  20.645  0.00  0.00    +0.000 C 
ATOM     16  C   UNL     1       2.158   6.612  18.610  0.00  0.00    +0.000 C 
BRANCH  16  17
ATOM     17  C   UNL     1       1.704   7.907  19.466  0.00  0.00    +0.000 A 
ATOM     18  C   UNL     1       1.381   9.160  18.900  0.00  0.00    +0.000 A 
ATOM     19  C   UNL     1       0.944  10.260  19.655  0.00  0.00    +0.000 A 
ATOM     20  C   UNL     1       0.808  10.155  21.034  0.00  0.00    +0.000 A 
ATOM     21  C   UNL     1       1.057   8.928  21.631  0.00  0.00    +0.000 A 
ATOM     22  C   UNL     1       1.497   7.831  20.864  0.00  0.00    +0.000 A 
ENDBRANCH  16  17
ENDBRANCH   6   9
BRANCH   2  23
ATOM     23  C   UNL     1       6.997   4.303  14.638  0.00  0.00    +0.000 A 
ATOM     24  C   UNL     1       7.753   5.186  13.858  0.00  0.00    +0.000 A 
ATOM     25  C   UNL     1       7.624   5.194  12.466  0.00  0.00    +0.000 A 
ATOM     26  C   UNL     1       6.749   4.303  11.837  0.00  0.00    +0.000 A 
ATOM     27  C   UNL     1       5.979   3.436  12.599  0.00  0.00    +0.000 A 
ATOM     28  C   UNL     1       6.079   3.473  13.989  0.00  0.00    +0.000 A 
ENDBRANCH   2  23
TORSDOF 3
ENDMDL
MODEL 7
REMARK VINA RESULT:      -6.1      8.946     12.702
REMARK  Name = 
REMARK  3 active torsions:
REMARK  status: ('A' for Active; 'I' for Inactive)
REMARK    1  A    between atoms: C_2  and  C_3
REMARK    2  A    between atoms: C_12  and  N_13
REMARK    3  A    between atoms: C_20  and  C_21
REMARK                            x       y       z     vdW  Elec       q    Type
REMARK                         _______ _______ _______ _____ _____    ______ ____
ROOT
ATOM      1  O   UNL     1       3.860  13.801  17.822  0.00  0.00    +0.000 OA
ATOM      2  C   UNL     1       4.195  14.891  18.292  0.00  0.00    +0.000 C 
ATOM      3  N   UNL     1       5.469  15.104  18.810  0.00  0.00    +0.000 N 
ATOM      4  C   UNL     1       5.949  16.291  19.510  0.00  0.00    +0.000 C 
ATOM      5  C   UNL     1       6.913  17.047  18.576  0.00  0.00    +0.000 C 
ATOM      6  C   UNL     1       8.125  16.151  18.218  0.00  0.00    +0.000 C 
ATOM      7  C   UNL     1       7.548  14.870  17.553  0.00  0.00    +0.000 C 
ATOM      8  C   UNL     1       6.539  14.165  18.463  0.00  0.00    +0.000 C 
ENDROOT
BRANCH   6   9
ATOM      9  N   UNL     1       8.794  15.833  19.471  0.00  0.00    +0.000 NA
ATOM     10  C   UNL     1       9.360  17.041  20.112  0.00  0.00    +0.000 C 
ATOM     11  C   UNL     1      10.303  16.071  20.877  0.00  0.00    +0.000 C 
ATOM     12  C   UNL     1      11.409  17.008  21.409  0.00  0.00    +0.000 C 
ATOM     13  C   UNL     1      11.484  16.750  22.917  0.00  0.00    +0.000 C 
ATOM     14  C   UNL     1      10.139  16.181  23.324  0.00  0.00    +0.000 C 
ATOM     15  C   UNL     1       9.638  15.424  22.108  0.00  0.00    +0.000 C 
ATOM     16  C   UNL     1      10.195  15.290  19.432  0.00  0.00    +0.000 C 
BRANCH  16  17
ATOM     17  C   UNL     1      10.145  13.684  19.256  0.00  0.00    +0.000 A 
ATOM     18  C   UNL     1       9.602  12.797  20.211  0.00  0.00    +0.000 A 
ATOM     19  C   UNL     1       9.526  11.407  20.021  0.00  0.00    +0.000 A 
ATOM     20  C   UNL     1       9.996  10.833  18.845  0.00  0.00    +0.000 A 
ATOM     21  C   UNL     1      10.485  11.668  17.852  0.00  0.00    +0.000 A 
ATOM     22  C   UNL     1      10.560  13.060  18.055  0.00  0.00    +0.000 A 
ENDBRANCH  16  17
ENDBRANCH   6   9
BRANCH   2  23
ATOM     23  C   UNL     1       3.175  15.983  18.252  0.00  0.00    +0.000 A 
ATOM     24  C   UNL     1       2.328  16.140  19.355  0.00  0.00    +0.000 A 
ATOM     25  C   UNL     1       1.317  17.106  19.345  0.00  0.00    +0.000 A 
ATOM     26  C   UNL     1       1.156  17.940  18.235  0.00  0.00    +0.000 A 
ATOM     27  C   UNL     1       1.976  17.783  17.126  0.00  0.00    +0.000 A 
ATOM     28  C   UNL     1       2.946  16.782  17.129  0.00  0.00    +0.000 A 
ENDBRANCH   2  23
TORSDOF 3
ENDMDL
MODEL 8
REMARK VINA RESULT:      -6.1      2.730      4.209
REMARK  Name = 
REMARK  3 active torsions:
REMARK  status: ('A' for Active; 'I' for Inactive)
REMARK    1  A    between atoms: C_2  and  C_3
REMARK    2  A    between atoms: C_12  and  N_13
REMARK    3  A    between atoms: C_20  and  C_21
REMARK                            x       y       z     vdW  Elec       q    Type
REMARK                         _______ _______ _______ _____ _____    ______ ____
ROOT
ATOM      1  O   UNL     1       3.023   5.580  20.125  0.00  0.00    +0.000 OA
ATOM      2  C   UNL     1       2.852   6.226  19.088  0.00  0.00    +0.000 C 
ATOM      3  N   UNL     1       1.906   7.244  19.008  0.00  0.00    +0.000 N 
ATOM      4  C   UNL     1       1.512   7.990  17.817  0.00  0.00    +0.000 C 
ATOM      5  C   UNL     1       2.082   9.417  17.931  0.00  0.00    +0.000 C 
ATOM      6  C   UNL     1       1.503  10.126  19.181  0.00  0.00    +0.000 C 
ATOM      7  C   UNL     1       1.882   9.245  20.405  0.00  0.00    +0.000 C 
ATOM      8  C   UNL     1       1.371   7.811  20.248  0.00  0.00    +0.000 C 
ENDROOT
BRANCH   6   9
ATOM      9  N   UNL     1       0.060  10.179  19.001  0.00  0.00    +0.000 NA
ATOM     10  C   UNL     1      -0.317  10.113  17.572  0.00  0.00    +0.000 C 
ATOM     11  C   UNL     1      -1.661  10.766  17.999  0.00  0.00    +0.000 C 
ATOM     12  C   UNL     1      -2.244  11.270  16.661  0.00  0.00    +0.000 C 
ATOM     13  C   UNL     1      -3.655  10.680  16.572  0.00  0.00    +0.000 C 
ATOM     14  C   UNL     1      -3.666   9.454  17.463  0.00  0.00    +0.000 C 
ATOM     15  C   UNL     1      -2.673   9.752  18.570  0.00  0.00    +0.000 C 
ATOM     16  C   UNL     1      -0.631  11.513  19.043  0.00  0.00    +0.000 C 
BRANCH  16  17
ATOM     17  C   UNL     1      -0.987  11.887  20.575  0.00  0.00    +0.000 A 
ATOM     18  C   UNL     1      -0.963  10.965  21.645  0.00  0.00    +0.000 A 
ATOM     19  C   UNL     1      -1.230  11.319  22.977  0.00  0.00    +0.000 A 
ATOM     20  C   UNL     1      -1.538  12.634  23.306  0.00  0.00    +0.000 A 
ATOM     21  C   UNL     1      -1.517  13.588  22.300  0.00  0.00    +0.000 A 
ATOM     22  C   UNL     1      -1.251  13.222  20.966  0.00  0.00    +0.000 A 
ENDBRANCH  16  17
ENDBRANCH   6   9
BRANCH   2  23
ATOM     23  C   UNL     1       3.732   5.884  17.929  0.00  0.00    +0.000 A 
ATOM     24  C   UNL     1       3.752   4.558  17.480  0.00  0.00    +0.000 A 
ATOM     25  C   UNL     1       4.602   4.172  16.440  0.00  0.00    +0.000 A 
ATOM     26  C   UNL     1       5.429   5.115  15.823  0.00  0.00    +0.000 A 
ATOM     27  C   UNL     1       5.434   6.429  16.271  0.00  0.00    +0.000 A 
ATOM     28  C   UNL     1       4.620   6.789  17.342  0.00  0.00    +0.000 A 
ENDBRANCH   2  23
TORSDOF 3
ENDMDL
MODEL 9
REMARK VINA RESULT:      -6.0      8.536     12.353
REMARK  Name = 
REMARK  3 active torsions:
REMARK  status: ('A' for Active; 'I' for Inactive)
REMARK    1  A    between atoms: C_2  and  C_3
REMARK    2  A    between atoms: C_12  and  N_13
REMARK    3  A    between atoms: C_20  and  C_21
REMARK                            x       y       z     vdW  Elec       q    Type
REMARK                         _______ _______ _______ _____ _____    ______ ____
ROOT
ATOM      1  O   UNL     1       3.279  13.961  17.774  0.00  0.00    +0.000 OA
ATOM      2  C   UNL     1       3.673  15.022  18.264  0.00  0.00    +0.000 C 
ATOM      3  N   UNL     1       4.941  15.143  18.826  0.00  0.00    +0.000 N 
ATOM      4  C   UNL     1       5.478  16.289  19.551  0.00  0.00    +0.000 C 
ATOM      5  C   UNL     1       6.524  16.981  18.656  0.00  0.00    +0.000 C 
ATOM      6  C   UNL     1       7.682  16.003  18.333  0.00  0.00    +0.000 C 
ATOM      7  C   UNL     1       7.039  14.769  17.639  0.00  0.00    +0.000 C 
ATOM      8  C   UNL     1       5.953  14.133  18.509  0.00  0.00    +0.000 C 
ENDROOT
BRANCH   6   9
ATOM      9  N   UNL     1       8.283  15.633  19.605  0.00  0.00    +0.000 NA
ATOM     10  C   UNL     1       8.839  16.808  20.312  0.00  0.00    +0.000 C 
ATOM     11  C   UNL     1       9.727  15.796  21.089  0.00  0.00    +0.000 C 
ATOM     12  C   UNL     1      10.822  16.694  21.704  0.00  0.00    +0.000 C 
ATOM     13  C   UNL     1      10.818  16.387  23.205  0.00  0.00    +0.000 C 
ATOM     14  C   UNL     1       9.445  15.832  23.527  0.00  0.00    +0.000 C 
ATOM     15  C   UNL     1       8.991  15.124  22.265  0.00  0.00    +0.000 C 
ATOM     16  C   UNL     1       9.674  15.064  19.616  0.00  0.00    +0.000 C 
BRANCH  16  17
ATOM     17  C   UNL     1       9.604  13.465  19.386  0.00  0.00    +0.000 A 
ATOM     18  C   UNL     1       9.898  12.824  18.162  0.00  0.00    +0.000 A 
ATOM     19  C   UNL     1       9.875  11.430  17.994  0.00  0.00    +0.000 A 
ATOM     20  C   UNL     1       9.554  10.600  19.061  0.00  0.00    +0.000 A 
ATOM     21  C   UNL     1       9.315  11.178  20.299  0.00  0.00    +0.000 A 
ATOM     22  C   UNL     1       9.336  12.577  20.456  0.00  0.00    +0.000 A 
ENDBRANCH  16  17
ENDBRANCH   6   9
BRANCH   2  23
ATOM     23  C   UNL     1       2.734  16.184  18.197  0.00  0.00    +0.000 A 
ATOM     24  C   UNL     1       1.847  16.382  19.262  0.00  0.00    +0.000 A 
ATOM     25  C   UNL     1       0.907  17.416  19.222  0.00  0.00    +0.000 A 
ATOM     26  C   UNL     1       0.859  18.278  18.123  0.00  0.00    +0.000 A 
ATOM     27  C   UNL     1       1.719  18.082  17.051  0.00  0.00    +0.000 A 
ATOM     28  C   UNL     1       2.616  17.016  17.080  0.00  0.00    +0.000 A 
ENDBRANCH   2  23
TORSDOF 3
ENDMDL
