MODEL 1
REMARK VINA RESULT:      -6.4      0.000      0.000
REMARK  Name = 
REMARK  14 active torsions:
REMARK  status: ('A' for Active; 'I' for Inactive)
REMARK    1  A    between atoms: C_1  and  O_2
REMARK    2  A    between atoms: O_2  and  C_3
REMARK    3  A    between atoms: C_3  and  C_5
REMARK    4  A    between atoms: C_5  and  N_6
REMARK    5  A    between atoms: C_5  and  C_31
REMARK    6  A    between atoms: C_7  and  O_9
REMARK    7  A    between atoms: O_9  and  C_10
REMARK    8  A    between atoms: C_15  and  O_16
REMARK    9  A    between atoms: O_16  and  C_17
REMARK   10  A    between atoms: C_22  and  C_23
REMARK   11  A    between atoms: C_27  and  O_28
REMARK   12  A    between atoms: O_28  and  C_29
REMARK   13  A    between atoms: C_31  and  C_32
REMARK   14  A    between atoms: C_31  and  C_33
REMARK                            x       y       z     vdW  Elec       q    Type
REMARK                         _______ _______ _______ _____ _____    ______ ____
ROOT
ATOM      1  C   UNL     1       1.670   9.582  19.223  0.00  0.00    +0.000 C 
ATOM      2  C   UNL     1       2.249   8.557  18.256  0.00  0.00    +0.000 C 
ATOM      3  O   UNL     1       2.495   8.771  17.073  0.00  0.00    +0.000 OA
ATOM      4  C   UNL     1       2.516   7.226  18.831  0.00  0.00    +0.000 A 
ATOM      5  C   UNL     1       3.394   6.338  18.197  0.00  0.00    +0.000 A 
ATOM      6  C   UNL     1       3.637   5.085  18.760  0.00  0.00    +0.000 A 
ATOM      7  C   UNL     1       2.991   4.729  19.948  0.00  0.00    +0.000 A 
ATOM      8  C   UNL     1       2.119   5.620  20.578  0.00  0.00    +0.000 A 
ATOM      9  C   UNL     1       1.882   6.872  20.018  0.00  0.00    +0.000 A 
ATOM     10  O   UNL     1       1.042   7.691  20.709  0.00  0.00    +0.000 OA
ATOM     11  C   UNL     1       0.567   8.848  19.999  0.00  0.00    +0.000 C 
ENDROOT
BRANCH  11  12
ATOM     12  C   UNL     1      -0.061   9.722  21.071  0.00  0.00    +0.000 A 
ATOM     13  C   UNL     1       0.099   9.418  22.433  0.00  0.00    +0.000 A 
ATOM     14  C   UNL     1      -0.524  10.196  23.406  0.00  0.00    +0.000 A 
ATOM     15  C   UNL     1      -1.315  11.278  23.023  0.00  0.00    +0.000 A 
ATOM     16  C   UNL     1      -1.488  11.594  21.676  0.00  0.00    +0.000 A 
ATOM     17  C   UNL     1      -0.855  10.820  20.705  0.00  0.00    +0.000 A 
BRANCH  16  18
ATOM     18  O   UNL     1      -2.303  12.668  21.437  0.00  0.00    +0.000 OA
ATOM     19  C   UNL     1      -2.385  13.649  22.464  0.00  0.00    +0.000 C 
ENDBRANCH  16  18
ENDBRANCH  11  12
BRANCH   6  20
ATOM     20  O   UNL     1       4.483   4.133  18.262  0.00  0.00    +0.000 OA
ATOM     21  C   UNL     1       4.734   4.172  16.862  0.00  0.00    +0.000 C 
ENDBRANCH   6  20
BRANCH   1  22
ATOM     22  O   UNL     1       1.116  10.715  18.531  0.00  0.00    +0.000 OA
BRANCH  22  24
ATOM     23  N   UNL     1       1.531  12.732  19.394  0.00  0.00    +0.000 N 
ATOM     24  C   UNL     1       1.936  11.796  18.492  0.00  0.00    +0.000 C 
ATOM     25  O   UNL     1       2.895  11.915  17.743  0.00  0.00    +0.000 OA
ATOM     26  H   UNL     1       0.761  12.500  20.007  0.00  0.00    +0.000 HD
BRANCH  23  27
ATOM     27  C   UNL     1       2.072  14.090  19.399  0.00  0.00    +0.000 C 
BRANCH  27  28
ATOM     28  C   UNL     1       0.969  15.166  19.556  0.00  0.00    +0.000 C 
ATOM     29  C   UNL     1       1.219  16.382  18.657  0.00  0.00    +0.000 C 
ATOM     30  C   UNL     1      -0.444  14.630  19.297  0.00  0.00    +0.000 C 
ENDBRANCH  27  28
BRANCH  27  31
ATOM     31  C   UNL     1       3.135  14.240  20.498  0.00  0.00    +0.000 C 
ATOM     32  O   UNL     1       3.077  13.707  21.600  0.00  0.00    +0.000 OA
BRANCH  31  34
ATOM     33  C   UNL     1       4.689  14.809  18.818  0.00  0.00    +0.000 C 
ATOM     34  O   UNL     1       4.114  15.103  20.094  0.00  0.00    +0.000 OA
ENDBRANCH  31  34
ENDBRANCH  27  31
ENDBRANCH  23  27
ENDBRANCH  22  24
ENDBRANCH   1  22
TORSDOF 9
ENDMDL
MODEL 2
REMARK VINA RESULT:      -6.4      2.880      8.446
REMARK  Name = 
REMARK  14 active torsions:
REMARK  status: ('A' for Active; 'I' for Inactive)
REMARK    1  A    between atoms: C_1  and  O_2
REMARK    2  A    between atoms: O_2  and  C_3
REMARK    3  A    between atoms: C_3  and  C_5
REMARK    4  A    between atoms: C_5  and  N_6
REMARK    5  A    between atoms: C_5  and  C_31
REMARK    6  A    between atoms: C_7  and  O_9
REMARK    7  A    between atoms: O_9  and  C_10
REMARK    8  A    between atoms: C_15  and  O_16
REMARK    9  A    between atoms: O_16  and  C_17
REMARK   10  A    between atoms: C_22  and  C_23
REMARK   11  A    between atoms: C_27  and  O_28
REMARK   12  A    between atoms: O_28  and  C_29
REMARK   13  A    between atoms: C_31  and  C_32
REMARK   14  A    between atoms: C_31  and  C_33
REMARK                            x       y       z     vdW  Elec       q    Type
REMARK                         _______ _______ _______ _____ _____    ______ ____
ROOT
ATOM      1  C   UNL     1       1.897   6.949  18.335  0.00  0.00    +0.000 C 
ATOM      2  C   UNL     1       1.854   8.466  18.204  0.00  0.00    +0.000 C 
ATOM      3  O   UNL     1       2.206   9.095  17.211  0.00  0.00    +0.000 OA
ATOM      4  C   UNL     1       1.343   9.188  19.385  0.00  0.00    +0.000 A 
ATOM      5  C   UNL     1       0.877  10.504  19.271  0.00  0.00    +0.000 A 
ATOM      6  C   UNL     1       0.394  11.167  20.398  0.00  0.00    +0.000 A 
ATOM      7  C   UNL     1       0.391  10.510  21.633  0.00  0.00    +0.000 A 
ATOM      8  C   UNL     1       0.853   9.196  21.741  0.00  0.00    +0.000 A 
ATOM      9  C   UNL     1       1.330   8.534  20.613  0.00  0.00    +0.000 A 
ATOM     10  O   UNL     1       1.735   7.247  20.797  0.00  0.00    +0.000 OA
ATOM     11  C   UNL     1       2.492   6.666  19.721  0.00  0.00    +0.000 C 
ENDROOT
BRANCH  11  12
ATOM     12  C   UNL     1       2.528   5.182  20.039  0.00  0.00    +0.000 A 
ATOM     13  C   UNL     1       1.434   4.549  20.652  0.00  0.00    +0.000 A 
ATOM     14  C   UNL     1       1.498   3.198  20.985  0.00  0.00    +0.000 A 
ATOM     15  C   UNL     1       2.658   2.474  20.714  0.00  0.00    +0.000 A 
ATOM     16  C   UNL     1       3.755   3.084  20.110  0.00  0.00    +0.000 A 
ATOM     17  C   UNL     1       3.685   4.433  19.767  0.00  0.00    +0.000 A 
BRANCH  16  18
ATOM     18  O   UNL     1       4.835   2.264  19.917  0.00  0.00    +0.000 OA
ATOM     19  C   UNL     1       5.128   1.338  20.956  0.00  0.00    +0.000 C 
ENDBRANCH  16  18
ENDBRANCH  11  12
BRANCH   6  20
ATOM     20  O   UNL     1      -0.109  12.438  20.427  0.00  0.00    +0.000 OA
ATOM     21  C   UNL     1      -0.705  12.861  21.647  0.00  0.00    +0.000 C 
ENDBRANCH   6  20
BRANCH   1  22
ATOM     22  O   UNL     1       2.715   6.349  17.314  0.00  0.00    +0.000 OA
BRANCH  22  24
ATOM     23  N   UNL     1       4.752   6.043  16.454  0.00  0.00    +0.000 N 
ATOM     24  C   UNL     1       3.995   6.802  17.293  0.00  0.00    +0.000 C 
ATOM     25  O   UNL     1       4.409   7.749  17.945  0.00  0.00    +0.000 OA
ATOM     26  H   UNL     1       4.290   5.322  15.916  0.00  0.00    +0.000 HD
BRANCH  23  27
ATOM     27  C   UNL     1       6.210   6.142  16.421  0.00  0.00    +0.000 C 
BRANCH  27  28
ATOM     28  C   UNL     1       6.859   5.784  17.782  0.00  0.00    +0.000 C 
ATOM     29  C   UNL     1       7.616   4.453  17.726  0.00  0.00    +0.000 C 
ATOM     30  C   UNL     1       7.797   6.875  18.312  0.00  0.00    +0.000 C 
ENDBRANCH  27  28
BRANCH  27  31
ATOM     31  C   UNL     1       6.783   5.261  15.300  0.00  0.00    +0.000 C 
ATOM     32  O   UNL     1       7.856   5.457  14.742  0.00  0.00    +0.000 OA
BRANCH  31  34
ATOM     33  C   UNL     1       5.978   3.814  13.622  0.00  0.00    +0.000 C 
ATOM     34  O   UNL     1       5.896   4.276  14.972  0.00  0.00    +0.000 OA
ENDBRANCH  31  34
ENDBRANCH  27  31
ENDBRANCH  23  27
ENDBRANCH  22  24
ENDBRANCH   1  22
TORSDOF 9
ENDMDL
MODEL 3
REMARK VINA RESULT:      -6.3      1.932      5.129
REMARK  Name = 
REMARK  14 active torsions:
REMARK  status: ('A' for Active; 'I' for Inactive)
REMARK    1  A    between atoms: C_1  and  O_2
REMARK    2  A    between atoms: O_2  and  C_3
REMARK    3  A    between atoms: C_3  and  C_5
REMARK    4  A    between atoms: C_5  and  N_6
REMARK    5  A    between atoms: C_5  and  C_31
REMARK    6  A    between atoms: C_7  and  O_9
REMARK    7  A    between atoms: O_9  and  C_10
REMARK    8  A    between atoms: C_15  and  O_16
REMARK    9  A    between atoms: O_16  and  C_17
REMARK   10  A    between atoms: C_22  and  C_23
REMARK   11  A    between atoms: C_27  and  O_28
REMARK   12  A    between atoms: O_28  and  C_29
REMARK   13  A    between atoms: C_31  and  C_32
REMARK   14  A    between atoms: C_31  and  C_33
REMARK                            x       y       z     vdW  Elec       q    Type
REMARK                         _______ _______ _______ _____ _____    ______ ____
ROOT
ATOM      1  C   UNL     1       0.534  10.390  21.041  0.00  0.00    +0.000 C 
ATOM      2  C   UNL     1       1.195   9.048  21.328  0.00  0.00    +0.000 C 
ATOM      3  O   UNL     1       1.370   8.577  22.448  0.00  0.00    +0.000 OA
ATOM      4  C   UNL     1       1.641   8.296  20.140  0.00  0.00    +0.000 A 
ATOM      5  C   UNL     1       1.884   6.919  20.217  0.00  0.00    +0.000 A 
ATOM      6  C   UNL     1       2.300   6.226  19.081  0.00  0.00    +0.000 A 
ATOM      7  C   UNL     1       2.478   6.919  17.879  0.00  0.00    +0.000 A 
ATOM      8  C   UNL     1       2.230   8.291  17.807  0.00  0.00    +0.000 A 
ATOM      9  C   UNL     1       1.809   8.981  18.941  0.00  0.00    +0.000 A 
ATOM     10  O   UNL     1       1.561  10.310  18.779  0.00  0.00    +0.000 OA
ATOM     11  C   UNL     1       1.418  11.075  19.989  0.00  0.00    +0.000 C 
ENDROOT
BRANCH  11  12
ATOM     12  C   UNL     1       0.844  12.405  19.533  0.00  0.00    +0.000 A 
ATOM     13  C   UNL     1      -0.462  12.489  19.022  0.00  0.00    +0.000 A 
ATOM     14  C   UNL     1      -0.960  13.705  18.559  0.00  0.00    +0.000 A 
ATOM     15  C   UNL     1      -0.154  14.841  18.599  0.00  0.00    +0.000 A 
ATOM     16  C   UNL     1       1.145  14.778  19.100  0.00  0.00    +0.000 A 
ATOM     17  C   UNL     1       1.638  13.563  19.572  0.00  0.00    +0.000 A 
BRANCH  16  18
ATOM     18  O   UNL     1       1.834  15.961  19.065  0.00  0.00    +0.000 OA
ATOM     19  C   UNL     1       2.976  16.060  19.907  0.00  0.00    +0.000 C 
ENDBRANCH  16  18
ENDBRANCH  11  12
BRANCH   6  20
ATOM     20  O   UNL     1       2.552   4.884  19.008  0.00  0.00    +0.000 OA
ATOM     21  C   UNL     1       2.183   4.230  17.800  0.00  0.00    +0.000 C 
ENDBRANCH   6  20
BRANCH   1  22
ATOM     22  O   UNL     1       0.451  11.207  22.223  0.00  0.00    +0.000 OA
BRANCH  22  24
ATOM     23  N   UNL     1      -1.320  12.515  22.591  0.00  0.00    +0.000 N 
ATOM     24  C   UNL     1      -0.792  11.272  22.764  0.00  0.00    +0.000 C 
ATOM     25  O   UNL     1      -1.351  10.348  23.338  0.00  0.00    +0.000 OA
ATOM     26  H   UNL     1      -0.794  13.184  22.045  0.00  0.00    +0.000 HD
BRANCH  23  27
ATOM     27  C   UNL     1      -2.534  12.946  23.283  0.00  0.00    +0.000 C 
BRANCH  27  28
ATOM     28  C   UNL     1      -2.485  14.440  23.690  0.00  0.00    +0.000 C 
ATOM     29  C   UNL     1      -3.139  14.686  25.054  0.00  0.00    +0.000 C 
ATOM     30  C   UNL     1      -1.066  15.020  23.699  0.00  0.00    +0.000 C 
ENDBRANCH  27  28
BRANCH  27  31
ATOM     31  C   UNL     1      -3.773  12.659  22.422  0.00  0.00    +0.000 C 
ATOM     32  O   UNL     1      -4.877  12.365  22.868  0.00  0.00    +0.000 OA
BRANCH  31  34
ATOM     33  C   UNL     1      -4.533  13.056  20.225  0.00  0.00    +0.000 C 
ATOM     34  O   UNL     1      -3.452  12.713  21.096  0.00  0.00    +0.000 OA
ENDBRANCH  31  34
ENDBRANCH  27  31
ENDBRANCH  23  27
ENDBRANCH  22  24
ENDBRANCH   1  22
TORSDOF 9
ENDMDL
MODEL 4
REMARK VINA RESULT:      -6.3      2.577      7.871
REMARK  Name = 
REMARK  14 active torsions:
REMARK  status: ('A' for Active; 'I' for Inactive)
REMARK    1  A    between atoms: C_1  and  O_2
REMARK    2  A    between atoms: O_2  and  C_3
REMARK    3  A    between atoms: C_3  and  C_5
REMARK    4  A    between atoms: C_5  and  N_6
REMARK    5  A    between atoms: C_5  and  C_31
REMARK    6  A    between atoms: C_7  and  O_9
REMARK    7  A    between atoms: O_9  and  C_10
REMARK    8  A    between atoms: C_15  and  O_16
REMARK    9  A    between atoms: O_16  and  C_17
REMARK   10  A    between atoms: C_22  and  C_23
REMARK   11  A    between atoms: C_27  and  O_28
REMARK   12  A    between atoms: O_28  and  C_29
REMARK   13  A    between atoms: C_31  and  C_32
REMARK   14  A    between atoms: C_31  and  C_33
REMARK                            x       y       z     vdW  Elec       q    Type
REMARK                         _______ _______ _______ _____ _____    ______ ____
ROOT
ATOM      1  C   UNL     1      -0.690  13.522  21.704  0.00  0.00    +0.000 C 
ATOM      2  C   UNL     1      -1.303  14.200  22.922  0.00  0.00    +0.000 C 
ATOM      3  O   UNL     1      -0.664  14.689  23.849  0.00  0.00    +0.000 OA
ATOM      4  C   UNL     1      -2.777  14.247  22.945  0.00  0.00    +0.000 A 
ATOM      5  C   UNL     1      -3.449  15.163  23.764  0.00  0.00    +0.000 A 
ATOM      6  C   UNL     1      -4.844  15.195  23.766  0.00  0.00    +0.000 A 
ATOM      7  C   UNL     1      -5.553  14.303  22.956  0.00  0.00    +0.000 A 
ATOM      8  C   UNL     1      -4.878  13.395  22.138  0.00  0.00    +0.000 A 
ATOM      9  C   UNL     1      -3.486  13.368  22.132  0.00  0.00    +0.000 A 
ATOM     10  O   UNL     1      -2.905  12.473  21.285  0.00  0.00    +0.000 OA
ATOM     11  C   UNL     1      -1.501  12.236  21.489  0.00  0.00    +0.000 C 
ENDROOT
BRANCH  11  12
ATOM     12  C   UNL     1      -1.059  11.478  20.249  0.00  0.00    +0.000 A 
ATOM     13  C   UNL     1      -1.808  11.539  19.062  0.00  0.00    +0.000 A 
ATOM     14  C   UNL     1      -1.422  10.799  17.947  0.00  0.00    +0.000 A 
ATOM     15  C   UNL     1      -0.289   9.990  18.014  0.00  0.00    +0.000 A 
ATOM     16  C   UNL     1       0.466   9.913  19.183  0.00  0.00    +0.000 A 
ATOM     17  C   UNL     1       0.083  10.663  20.295  0.00  0.00    +0.000 A 
BRANCH  16  18
ATOM     18  O   UNL     1       1.541   9.068  19.120  0.00  0.00    +0.000 OA
ATOM     19  C   UNL     1       2.078   8.813  17.828  0.00  0.00    +0.000 C 
ENDBRANCH  16  18
ENDBRANCH  11  12
BRANCH   6  20
ATOM     20  O   UNL     1      -5.624  16.047  24.497  0.00  0.00    +0.000 OA
ATOM     21  C   UNL     1      -5.011  17.252  24.942  0.00  0.00    +0.000 C 
ENDBRANCH   6  20
BRANCH   1  22
ATOM     22  O   UNL     1       0.697  13.202  21.913  0.00  0.00    +0.000 OA
BRANCH  22  24
ATOM     23  N   UNL     1       1.370  14.379  20.139  0.00  0.00    +0.000 N 
ATOM     24  C   UNL     1       1.558  14.153  21.468  0.00  0.00    +0.000 C 
ATOM     25  O   UNL     1       2.392  14.716  22.162  0.00  0.00    +0.000 OA
ATOM     26  H   UNL     1       0.607  13.900  19.678  0.00  0.00    +0.000 HD
BRANCH  23  27
ATOM     27  C   UNL     1       2.313  15.163  19.344  0.00  0.00    +0.000 C 
BRANCH  27  28
ATOM     28  C   UNL     1       2.924  14.349  18.176  0.00  0.00    +0.000 C 
ATOM     29  C   UNL     1       4.449  14.480  18.119  0.00  0.00    +0.000 C 
ATOM     30  C   UNL     1       2.547  12.864  18.209  0.00  0.00    +0.000 C 
ENDBRANCH  27  28
BRANCH  27  31
ATOM     31  C   UNL     1       1.640  16.441  18.820  0.00  0.00    +0.000 C 
ATOM     32  O   UNL     1       2.207  17.519  18.683  0.00  0.00    +0.000 OA
BRANCH  31  34
ATOM     33  C   UNL     1      -0.542  17.333  18.866  0.00  0.00    +0.000 C 
ATOM     34  O   UNL     1       0.312  16.219  18.595  0.00  0.00    +0.000 OA
ENDBRANCH  31  34
ENDBRANCH  27  31
ENDBRANCH  23  27
ENDBRANCH  22  24
ENDBRANCH   1  22
TORSDOF 9
ENDMDL
MODEL 5
REMARK VINA RESULT:      -6.2      1.914      5.378
REMARK  Name = 
REMARK  14 active torsions:
REMARK  status: ('A' for Active; 'I' for Inactive)
REMARK    1  A    between atoms: C_1  and  O_2
REMARK    2  A    between atoms: O_2  and  C_3
REMARK    3  A    between atoms: C_3  and  C_5
REMARK    4  A    between atoms: C_5  and  N_6
REMARK    5  A    between atoms: C_5  and  C_31
REMARK    6  A    between atoms: C_7  and  O_9
REMARK    7  A    between atoms: O_9  and  C_10
REMARK    8  A    between atoms: C_15  and  O_16
REMARK    9  A    between atoms: O_16  and  C_17
REMARK   10  A    between atoms: C_22  and  C_23
REMARK   11  A    between atoms: C_27  and  O_28
REMARK   12  A    between atoms: O_28  and  C_29
REMARK   13  A    between atoms: C_31  and  C_32
REMARK   14  A    between atoms: C_31  and  C_33
REMARK                            x       y       z     vdW  Elec       q    Type
REMARK                         _______ _______ _______ _____ _____    ______ ____
ROOT
ATOM      1  C   UNL     1       0.408  10.580  20.947  0.00  0.00    +0.000 C 
ATOM      2  C   UNL     1       1.030   9.220  21.233  0.00  0.00    +0.000 C 
ATOM      3  O   UNL     1       1.093   8.696  22.342  0.00  0.00    +0.000 OA
ATOM      4  C   UNL     1       1.585   8.519  20.060  0.00  0.00    +0.000 A 
ATOM      5  C   UNL     1       1.812   7.138  20.096  0.00  0.00    +0.000 A 
ATOM      6  C   UNL     1       2.332   6.493  18.974  0.00  0.00    +0.000 A 
ATOM      7  C   UNL     1       2.630   7.239  17.829  0.00  0.00    +0.000 A 
ATOM      8  C   UNL     1       2.397   8.616  17.797  0.00  0.00    +0.000 A 
ATOM      9  C   UNL     1       1.872   9.257  18.916  0.00  0.00    +0.000 A 
ATOM     10  O   UNL     1       1.649  10.595  18.794  0.00  0.00    +0.000 OA
ATOM     11  C   UNL     1       1.393  11.303  20.018  0.00  0.00    +0.000 C 
ENDROOT
BRANCH  11  12
ATOM     12  C   UNL     1       0.873  12.659  19.572  0.00  0.00    +0.000 A 
ATOM     13  C   UNL     1      -0.362  12.776  18.912  0.00  0.00    +0.000 A 
ATOM     14  C   UNL     1      -0.805  14.017  18.461  0.00  0.00    +0.000 A 
ATOM     15  C   UNL     1      -0.014  15.147  18.663  0.00  0.00    +0.000 A 
ATOM     16  C   UNL     1       1.214  15.052  19.313  0.00  0.00    +0.000 A 
ATOM     17  C   UNL     1       1.652  13.810  19.772  0.00  0.00    +0.000 A 
BRANCH  16  18
ATOM     18  O   UNL     1       1.898  16.233  19.429  0.00  0.00    +0.000 OA
ATOM     19  C   UNL     1       1.364  17.350  18.729  0.00  0.00    +0.000 C 
ENDBRANCH  16  18
ENDBRANCH  11  12
BRANCH   6  20
ATOM     20  O   UNL     1       2.582   5.153  18.863  0.00  0.00    +0.000 OA
ATOM     21  C   UNL     1       3.406   4.573  19.868  0.00  0.00    +0.000 C 
ENDBRANCH   6  20
BRANCH   1  22
ATOM     22  O   UNL     1       0.214  11.342  22.152  0.00  0.00    +0.000 OA
BRANCH  22  24
ATOM     23  N   UNL     1      -1.777  12.341  22.010  0.00  0.00    +0.000 N 
ATOM     24  C   UNL     1      -1.065  11.346  22.606  0.00  0.00    +0.000 C 
ATOM     25  O   UNL     1      -1.508  10.572  23.442  0.00  0.00    +0.000 OA
ATOM     26  H   UNL     1      -1.325  12.881  21.285  0.00  0.00    +0.000 HD
BRANCH  23  27
ATOM     27  C   UNL     1      -3.102  12.738  22.483  0.00  0.00    +0.000 C 
BRANCH  27  28
ATOM     28  C   UNL     1      -3.120  14.175  23.060  0.00  0.00    +0.000 C 
ATOM     29  C   UNL     1      -3.176  14.180  24.591  0.00  0.00    +0.000 C 
ATOM     30  C   UNL     1      -1.934  15.029  22.597  0.00  0.00    +0.000 C 
ENDBRANCH  27  28
BRANCH  27  31
ATOM     31  C   UNL     1      -4.139  12.593  21.359  0.00  0.00    +0.000 C 
ATOM     32  O   UNL     1      -3.895  12.727  20.165  0.00  0.00    +0.000 OA
BRANCH  31  34
ATOM     33  C   UNL     1      -6.386  12.021  20.930  0.00  0.00    +0.000 C 
ATOM     34  O   UNL     1      -5.378  12.361  21.885  0.00  0.00    +0.000 OA
ENDBRANCH  31  34
ENDBRANCH  27  31
ENDBRANCH  23  27
ENDBRANCH  22  24
ENDBRANCH   1  22
TORSDOF 9
ENDMDL
MODEL 6
REMARK VINA RESULT:      -6.2      3.894      6.960
REMARK  Name = 
REMARK  14 active torsions:
REMARK  status: ('A' for Active; 'I' for Inactive)
REMARK    1  A    between atoms: C_1  and  O_2
REMARK    2  A    between atoms: O_2  and  C_3
REMARK    3  A    between atoms: C_3  and  C_5
REMARK    4  A    between atoms: C_5  and  N_6
REMARK    5  A    between atoms: C_5  and  C_31
REMARK    6  A    between atoms: C_7  and  O_9
REMARK    7  A    between atoms: O_9  and  C_10
REMARK    8  A    between atoms: C_15  and  O_16
REMARK    9  A    between atoms: O_16  and  C_17
REMARK   10  A    between atoms: C_22  and  C_23
REMARK   11  A    between atoms: C_27  and  O_28
REMARK   12  A    between atoms: O_28  and  C_29
REMARK   13  A    between atoms: C_31  and  C_32
REMARK   14  A    between atoms: C_31  and  C_33
REMARK                            x       y       z     vdW  Elec       q    Type
REMARK                         _______ _______ _______ _____ _____    ______ ____
ROOT
ATOM      1  C   UNL     1      -0.264  13.134  20.506  0.00  0.00    +0.000 C 
ATOM      2  C   UNL     1      -0.026  13.675  21.910  0.00  0.00    +0.000 C 
ATOM      3  O   UNL     1       1.063  14.036  22.347  0.00  0.00    +0.000 OA
ATOM      4  C   UNL     1      -1.222  13.752  22.769  0.00  0.00    +0.000 A 
ATOM      5  C   UNL     1      -1.237  14.578  23.900  0.00  0.00    +0.000 A 
ATOM      6  C   UNL     1      -2.380  14.641  24.696  0.00  0.00    +0.000 A 
ATOM      7  C   UNL     1      -3.496  13.867  24.359  0.00  0.00    +0.000 A 
ATOM      8  C   UNL     1      -3.477  13.048  23.228  0.00  0.00    +0.000 A 
ATOM      9  C   UNL     1      -2.337  12.992  22.430  0.00  0.00    +0.000 A 
ATOM     10  O   UNL     1      -2.411  12.191  21.331  0.00  0.00    +0.000 OA
ATOM     11  C   UNL     1      -1.162  11.901  20.681  0.00  0.00    +0.000 C 
ENDROOT
BRANCH  11  12
ATOM     12  C   UNL     1      -1.559  11.286  19.350  0.00  0.00    +0.000 A 
ATOM     13  C   UNL     1      -0.757  10.307  18.740  0.00  0.00    +0.000 A 
ATOM     14  C   UNL     1      -1.103   9.788  17.495  0.00  0.00    +0.000 A 
ATOM     15  C   UNL     1      -2.250  10.248  16.850  0.00  0.00    +0.000 A 
ATOM     16  C   UNL     1      -3.057  11.221  17.436  0.00  0.00    +0.000 A 
ATOM     17  C   UNL     1      -2.714  11.732  18.687  0.00  0.00    +0.000 A 
BRANCH  16  18
ATOM     18  O   UNL     1      -4.141  11.597  16.689  0.00  0.00    +0.000 OA
ATOM     19  C   UNL     1      -5.296  12.016  17.405  0.00  0.00    +0.000 C 
ENDBRANCH  16  18
ENDBRANCH  11  12
BRANCH   6  20
ATOM     20  O   UNL     1      -2.539  15.417  25.810  0.00  0.00    +0.000 OA
ATOM     21  C   UNL     1      -1.486  16.324  26.112  0.00  0.00    +0.000 C 
ENDBRANCH   6  20
BRANCH   1  22
ATOM     22  O   UNL     1       0.968  12.761  19.863  0.00  0.00    +0.000 OA
BRANCH  22  24
ATOM     23  N   UNL     1       1.309  14.910  19.364  0.00  0.00    +0.000 N 
ATOM     24  C   UNL     1       1.377  13.630  18.904  0.00  0.00    +0.000 C 
ATOM     25  O   UNL     1       1.743  13.308  17.783  0.00  0.00    +0.000 OA
ATOM     26  H   UNL     1       1.051  15.055  20.330  0.00  0.00    +0.000 HD
BRANCH  23  27
ATOM     27  C   UNL     1       1.449  16.062  18.476  0.00  0.00    +0.000 C 
BRANCH  27  28
ATOM     28  C   UNL     1       0.478  17.213  18.839  0.00  0.00    +0.000 C 
ATOM     29  C   UNL     1      -0.564  17.455  17.741  0.00  0.00    +0.000 C 
ATOM     30  C   UNL     1      -0.241  17.001  20.176  0.00  0.00    +0.000 C 
ENDBRANCH  27  28
BRANCH  27  31
ATOM     31  C   UNL     1       2.902  16.562  18.470  0.00  0.00    +0.000 C 
ATOM     32  O   UNL     1       3.370  17.329  17.637  0.00  0.00    +0.000 OA
BRANCH  31  34
ATOM     33  C   UNL     1       4.883  15.452  19.104  0.00  0.00    +0.000 C 
ATOM     34  O   UNL     1       3.608  15.976  19.481  0.00  0.00    +0.000 OA
ENDBRANCH  31  34
ENDBRANCH  27  31
ENDBRANCH  23  27
ENDBRANCH  22  24
ENDBRANCH   1  22
TORSDOF 9
ENDMDL
MODEL 7
REMARK VINA RESULT:      -6.2      0.825      1.020
REMARK  Name = 
REMARK  14 active torsions:
REMARK  status: ('A' for Active; 'I' for Inactive)
REMARK    1  A    between atoms: C_1  and  O_2
REMARK    2  A    between atoms: O_2  and  C_3
REMARK    3  A    between atoms: C_3  and  C_5
REMARK    4  A    between atoms: C_5  and  N_6
REMARK    5  A    between atoms: C_5  and  C_31
REMARK    6  A    between atoms: C_7  and  O_9
REMARK    7  A    between atoms: O_9  and  C_10
REMARK    8  A    between atoms: C_15  and  O_16
REMARK    9  A    between atoms: O_16  and  C_17
REMARK   10  A    between atoms: C_22  and  C_23
REMARK   11  A    between atoms: C_27  and  O_28
REMARK   12  A    between atoms: O_28  and  C_29
REMARK   13  A    between atoms: C_31  and  C_32
REMARK   14  A    between atoms: C_31  and  C_33
REMARK                            x       y       z     vdW  Elec       q    Type
REMARK                         _______ _______ _______ _____ _____    ______ ____
ROOT
ATOM      1  C   UNL     1       1.657   9.598  19.278  0.00  0.00    +0.000 C 
ATOM      2  C   UNL     1       2.246   8.567  18.325  0.00  0.00    +0.000 C 
ATOM      3  O   UNL     1       2.515   8.775  17.146  0.00  0.00    +0.000 OA
ATOM      4  C   UNL     1       2.494   7.235  18.909  0.00  0.00    +0.000 A 
ATOM      5  C   UNL     1       3.377   6.340  18.294  0.00  0.00    +0.000 A 
ATOM      6  C   UNL     1       3.602   5.087  18.865  0.00  0.00    +0.000 A 
ATOM      7  C   UNL     1       2.932   4.739  20.042  0.00  0.00    +0.000 A 
ATOM      8  C   UNL     1       2.055   5.637  20.653  0.00  0.00    +0.000 A 
ATOM      9  C   UNL     1       1.837   6.889  20.085  0.00  0.00    +0.000 A 
ATOM     10  O   UNL     1       0.990   7.716  20.759  0.00  0.00    +0.000 OA
ATOM     11  C   UNL     1       0.536   8.874  20.037  0.00  0.00    +0.000 C 
ENDROOT
BRANCH  11  12
ATOM     12  C   UNL     1      -0.106   9.755  21.094  0.00  0.00    +0.000 A 
ATOM     13  C   UNL     1       0.029   9.455  22.460  0.00  0.00    +0.000 A 
ATOM     14  C   UNL     1      -0.607  10.241  23.419  0.00  0.00    +0.000 A 
ATOM     15  C   UNL     1      -1.385  11.326  23.018  0.00  0.00    +0.000 A 
ATOM     16  C   UNL     1      -1.533  11.638  21.668  0.00  0.00    +0.000 A 
ATOM     17  C   UNL     1      -0.888  10.857  20.710  0.00  0.00    +0.000 A 
BRANCH  16  18
ATOM     18  O   UNL     1      -2.337  12.716  21.411  0.00  0.00    +0.000 OA
ATOM     19  C   UNL     1      -3.514  12.837  22.202  0.00  0.00    +0.000 C 
ENDBRANCH  16  18
ENDBRANCH  11  12
BRANCH   6  20
ATOM     20  O   UNL     1       4.450   4.128  18.385  0.00  0.00    +0.000 OA
ATOM     21  C   UNL     1       3.870   3.108  17.581  0.00  0.00    +0.000 C 
ENDBRANCH   6  20
BRANCH   1  22
ATOM     22  O   UNL     1       1.123  10.733  18.573  0.00  0.00    +0.000 OA
BRANCH  22  24
ATOM     23  N   UNL     1       1.636  12.591  19.698  0.00  0.00    +0.000 N 
ATOM     24  C   UNL     1       1.920  11.831  18.605  0.00  0.00    +0.000 C 
ATOM     25  O   UNL     1       2.765  12.103  17.765  0.00  0.00    +0.000 OA
ATOM     26  H   UNL     1       0.960  12.237  20.362  0.00  0.00    +0.000 HD
BRANCH  23  27
ATOM     27  C   UNL     1       2.160  13.946  19.858  0.00  0.00    +0.000 C 
BRANCH  27  28
ATOM     28  C   UNL     1       1.445  14.971  18.942  0.00  0.00    +0.000 C 
ATOM     29  C   UNL     1       0.296  15.684  19.662  0.00  0.00    +0.000 C 
ATOM     30  C   UNL     1       2.394  16.018  18.348  0.00  0.00    +0.000 C 
ENDBRANCH  27  28
BRANCH  27  31
ATOM     31  C   UNL     1       2.076  14.384  21.329  0.00  0.00    +0.000 C 
ATOM     32  O   UNL     1       1.180  14.061  22.100  0.00  0.00    +0.000 OA
BRANCH  31  34
ATOM     33  C   UNL     1       4.406  14.745  21.308  0.00  0.00    +0.000 C 
ATOM     34  O   UNL     1       3.101  15.234  21.628  0.00  0.00    +0.000 OA
ENDBRANCH  31  34
ENDBRANCH  27  31
ENDBRANCH  23  27
ENDBRANCH  22  24
ENDBRANCH   1  22
TORSDOF 9
ENDMDL
MODEL 8
REMARK VINA RESULT:      -6.1      1.881      5.111
REMARK  Name = 
REMARK  14 active torsions:
REMARK  status: ('A' for Active; 'I' for Inactive)
REMARK    1  A    between atoms: C_1  and  O_2
REMARK    2  A    between atoms: O_2  and  C_3
REMARK    3  A    between atoms: C_3  and  C_5
REMARK    4  A    between atoms: C_5  and  N_6
REMARK    5  A    between atoms: C_5  and  C_31
REMARK    6  A    between atoms: C_7  and  O_9
REMARK    7  A    between atoms: O_9  and  C_10
REMARK    8  A    between atoms: C_15  and  O_16
REMARK    9  A    between atoms: O_16  and  C_17
REMARK   10  A    between atoms: C_22  and  C_23
REMARK   11  A    between atoms: C_27  and  O_28
REMARK   12  A    between atoms: O_28  and  C_29
REMARK   13  A    between atoms: C_31  and  C_32
REMARK   14  A    between atoms: C_31  and  C_33
REMARK                            x       y       z     vdW  Elec       q    Type
REMARK                         _______ _______ _______ _____ _____    ______ ____
ROOT
ATOM      1  C   UNL     1       0.423  10.592  21.102  0.00  0.00    +0.000 C 
ATOM      2  C   UNL     1       1.047   9.244  21.440  0.00  0.00    +0.000 C 
ATOM      3  O   UNL     1       1.145   8.781  22.573  0.00  0.00    +0.000 OA
ATOM      4  C   UNL     1       1.557   8.477  20.289  0.00  0.00    +0.000 A 
ATOM      5  C   UNL     1       1.777   7.098  20.392  0.00  0.00    +0.000 A 
ATOM      6  C   UNL     1       2.255   6.389  19.289  0.00  0.00    +0.000 A 
ATOM      7  C   UNL     1       2.517   7.070  18.096  0.00  0.00    +0.000 A 
ATOM      8  C   UNL     1       2.291   8.445  17.998  0.00  0.00    +0.000 A 
ATOM      9  C   UNL     1       1.809   9.149  19.097  0.00  0.00    +0.000 A 
ATOM     10  O   UNL     1       1.589  10.480  18.910  0.00  0.00    +0.000 OA
ATOM     11  C   UNL     1       1.379  11.256  20.102  0.00  0.00    +0.000 C 
ENDROOT
BRANCH  11  12
ATOM     12  C   UNL     1       0.852  12.589  19.601  0.00  0.00    +0.000 A 
ATOM     13  C   UNL     1      -0.335  12.660  18.853  0.00  0.00    +0.000 A 
ATOM     14  C   UNL     1      -0.782  13.881  18.354  0.00  0.00    +0.000 A 
ATOM     15  C   UNL     1      -0.042  15.038  18.596  0.00  0.00    +0.000 A 
ATOM     16  C   UNL     1       1.139  14.989  19.333  0.00  0.00    +0.000 A 
ATOM     17  C   UNL     1       1.580  13.767  19.840  0.00  0.00    +0.000 A 
BRANCH  16  18
ATOM     18  O   UNL     1       1.776  16.192  19.481  0.00  0.00    +0.000 OA
ATOM     19  C   UNL     1       1.447  17.208  18.541  0.00  0.00    +0.000 C 
ENDBRANCH  16  18
ENDBRANCH  11  12
BRANCH   6  20
ATOM     20  O   UNL     1       2.493   5.044  19.243  0.00  0.00    +0.000 OA
ATOM     21  C   UNL     1       2.314   4.322  20.457  0.00  0.00    +0.000 C 
ENDBRANCH   6  20
BRANCH   1  22
ATOM     22  O   UNL     1       0.275  11.419  22.270  0.00  0.00    +0.000 OA
BRANCH  22  24
ATOM     23  N   UNL     1      -1.542  12.713  22.202  0.00  0.00    +0.000 N 
ATOM     24  C   UNL     1      -1.007  11.561  22.690  0.00  0.00    +0.000 C 
ATOM     25  O   UNL     1      -1.593  10.770  23.416  0.00  0.00    +0.000 OA
ATOM     26  H   UNL     1      -0.987  13.261  21.559  0.00  0.00    +0.000 HD
BRANCH  23  27
ATOM     27  C   UNL     1      -2.814  13.246  22.688  0.00  0.00    +0.000 C 
BRANCH  27  28
ATOM     28  C   UNL     1      -2.807  14.791  22.797  0.00  0.00    +0.000 C 
ATOM     29  C   UNL     1      -1.829  15.433  21.807  0.00  0.00    +0.000 C 
ATOM     30  C   UNL     1      -4.194  15.418  22.613  0.00  0.00    +0.000 C 
ENDBRANCH  27  28
BRANCH  27  31
ATOM     31  C   UNL     1      -3.971  12.771  21.797  0.00  0.00    +0.000 C 
ATOM     32  O   UNL     1      -5.046  12.357  22.214  0.00  0.00    +0.000 OA
BRANCH  31  34
ATOM     33  C   UNL     1      -4.612  12.395  19.559  0.00  0.00    +0.000 C 
ATOM     34  O   UNL     1      -3.603  12.813  20.482  0.00  0.00    +0.000 OA
ENDBRANCH  31  34
ENDBRANCH  27  31
ENDBRANCH  23  27
ENDBRANCH  22  24
ENDBRANCH   1  22
TORSDOF 9
ENDMDL
MODEL 9
REMARK VINA RESULT:      -6.1      0.941      1.113
REMARK  Name = 
REMARK  14 active torsions:
REMARK  status: ('A' for Active; 'I' for Inactive)
REMARK    1  A    between atoms: C_1  and  O_2
REMARK    2  A    between atoms: O_2  and  C_3
REMARK    3  A    between atoms: C_3  and  C_5
REMARK    4  A    between atoms: C_5  and  N_6
REMARK    5  A    between atoms: C_5  and  C_31
REMARK    6  A    between atoms: C_7  and  O_9
REMARK    7  A    between atoms: O_9  and  C_10
REMARK    8  A    between atoms: C_15  and  O_16
REMARK    9  A    between atoms: O_16  and  C_17
REMARK   10  A    between atoms: C_22  and  C_23
REMARK   11  A    between atoms: C_27  and  O_28
REMARK   12  A    between atoms: O_28  and  C_29
REMARK   13  A    between atoms: C_31  and  C_32
REMARK   14  A    between atoms: C_31  and  C_33
REMARK                            x       y       z     vdW  Elec       q    Type
REMARK                         _______ _______ _______ _____ _____    ______ ____
ROOT
ATOM      1  C   UNL     1       1.505  10.015  19.277  0.00  0.00    +0.000 C 
ATOM      2  C   UNL     1       2.132   8.898  18.453  0.00  0.00    +0.000 C 
ATOM      3  O   UNL     1       2.526   9.016  17.296  0.00  0.00    +0.000 OA
ATOM      4  C   UNL     1       2.255   7.598  19.138  0.00  0.00    +0.000 A 
ATOM      5  C   UNL     1       3.148   6.626  18.671  0.00  0.00    +0.000 A 
ATOM      6  C   UNL     1       3.252   5.405  19.337  0.00  0.00    +0.000 A 
ATOM      7  C   UNL     1       2.453   5.164  20.459  0.00  0.00    +0.000 A 
ATOM      8  C   UNL     1       1.566   6.138  20.923  0.00  0.00    +0.000 A 
ATOM      9  C   UNL     1       1.468   7.359  20.261  0.00  0.00    +0.000 A 
ATOM     10  O   UNL     1       0.602   8.264  20.794  0.00  0.00    +0.000 OA
ATOM     11  C   UNL     1       0.280   9.391  19.960  0.00  0.00    +0.000 C 
ENDROOT
BRANCH  11  12
ATOM     12  C   UNL     1      -0.417  10.367  20.892  0.00  0.00    +0.000 A 
ATOM     13  C   UNL     1      -0.261  10.270  22.285  0.00  0.00    +0.000 A 
ATOM     14  C   UNL     1      -0.946  11.138  23.133  0.00  0.00    +0.000 A 
ATOM     15  C   UNL     1      -1.795  12.103  22.593  0.00  0.00    +0.000 A 
ATOM     16  C   UNL     1      -1.965  12.214  21.215  0.00  0.00    +0.000 A 
ATOM     17  C   UNL     1      -1.271  11.351  20.367  0.00  0.00    +0.000 A 
BRANCH  16  18
ATOM     18  O   UNL     1      -2.840  13.190  20.819  0.00  0.00    +0.000 OA
ATOM     19  C   UNL     1      -3.167  14.184  21.783  0.00  0.00    +0.000 C 
ENDBRANCH  16  18
ENDBRANCH  11  12
BRANCH   6  20
ATOM     20  O   UNL     1       4.094   4.380  19.004  0.00  0.00    +0.000 OA
ATOM     21  C   UNL     1       5.463   4.715  18.814  0.00  0.00    +0.000 C 
ENDBRANCH   6  20
BRANCH   1  22
ATOM     22  O   UNL     1       1.101  11.123  18.454  0.00  0.00    +0.000 OA
BRANCH  22  24
ATOM     23  N   UNL     1       1.478  12.999  19.603  0.00  0.00    +0.000 N 
ATOM     24  C   UNL     1       1.895  12.217  18.569  0.00  0.00    +0.000 C 
ATOM     25  O   UNL     1       2.843  12.470  17.840  0.00  0.00    +0.000 OA
ATOM     26  H   UNL     1       0.720  12.660  20.180  0.00  0.00    +0.000 HD
BRANCH  23  27
ATOM     27  C   UNL     1       1.986  14.354  19.806  0.00  0.00    +0.000 C 
BRANCH  27  28
ATOM     28  C   UNL     1       0.881  15.340  20.262  0.00  0.00    +0.000 C 
ATOM     29  C   UNL     1      -0.343  15.298  19.342  0.00  0.00    +0.000 C 
ATOM     30  C   UNL     1       0.431  15.118  21.711  0.00  0.00    +0.000 C 
ENDBRANCH  27  28
BRANCH  27  31
ATOM     31  C   UNL     1       3.152  14.347  20.807  0.00  0.00    +0.000 C 
ATOM     32  O   UNL     1       3.384  13.439  21.596  0.00  0.00    +0.000 OA
BRANCH  31  34
ATOM     33  C   UNL     1       4.701  15.787  21.848  0.00  0.00    +0.000 C 
ATOM     34  O   UNL     1       3.845  15.520  20.734  0.00  0.00    +0.000 OA
ENDBRANCH  31  34
ENDBRANCH  27  31
ENDBRANCH  23  27
ENDBRANCH  22  24
ENDBRANCH   1  22
TORSDOF 9
ENDMDL
