MODEL 1
REMARK VINA RESULT:      -7.4      0.000      0.000
REMARK  Name = 
REMARK  6 active torsions:
REMARK  status: ('A' for Active; 'I' for Inactive)
REMARK    1  A    between atoms: C_1  and  C_2
REMARK    2  A    between atoms: C_4  and  N_5
REMARK    3  A    between atoms: C_6  and  C_7
REMARK    4  A    between atoms: C_7  and  C_9
REMARK    5  A    between atoms: C_11  and  C_12
REMARK    6  A    between atoms: C_21  and  C_22
REMARK                            x       y       z     vdW  Elec       q    Type
REMARK                         _______ _______ _______ _____ _____    ______ ____
ROOT
ATOM      1  C   UNL     1       3.472   6.679  17.967  0.00  0.00    +0.000 C 
ATOM      2  O   UNL     1       4.192   7.088  17.057  0.00  0.00    +0.000 OA
ENDROOT
BRANCH   1   3
ATOM      3  C   UNL     1       2.575   7.662  18.632  0.00  0.00    +0.000 A 
ATOM      4  C   UNL     1       2.329   8.882  17.990  0.00  0.00    +0.000 A 
ATOM      5  C   UNL     1       1.564   9.885  18.609  0.00  0.00    +0.000 A 
ATOM      6  C   UNL     1       1.393  11.201  17.894  0.00  0.00    +0.000 C 
ATOM      7  C   UNL     1       1.016   9.655  19.900  0.00  0.00    +0.000 A 
ATOM      8  C   UNL     1       0.245  10.612  20.595  0.00  0.00    +0.000 A 
ATOM      9  C   UNL     1      -0.230  10.358  21.882  0.00  0.00    +0.000 A 
ATOM     10 CL   UNL     1      -1.128  11.568  22.715  0.00  0.00    +0.000 Cl
ATOM     11  C   UNL     1       0.028   9.144  22.503  0.00  0.00    +0.000 A 
ATOM     12  C   UNL     1       0.769   8.174  21.832  0.00  0.00    +0.000 A 
ATOM     13  C   UNL     1       1.274   8.416  20.544  0.00  0.00    +0.000 A 
ATOM     14  C   UNL     1       2.057   7.442  19.910  0.00  0.00    +0.000 A 
ENDBRANCH   1   3
BRANCH   1  19
ATOM     15  C   UNL     1       2.135   1.765  18.915  0.00  0.00    +0.000 C 
ATOM     16  C   UNL     1       2.900   3.043  18.823  0.00  0.00    +0.000 A 
ATOM     17  S   UNL     1       4.466   3.134  19.472  0.00  0.00    +0.000 S 
ATOM     18  C   UNL     1       4.637   4.771  19.048  0.00  0.00    +0.000 A 
ATOM     19  C   UNL     1       3.510   5.277  18.412  0.00  0.00    +0.000 A 
ATOM     20  C   UNL     1       2.492   4.245  18.249  0.00  0.00    +0.000 A 
ATOM     21  C   UNL     1       1.175   4.401  17.553  0.00  0.00    +0.000 C 
BRANCH  18  22
ATOM     22  N   UNL     1       5.780   5.431  19.346  0.00  0.00    +0.000 N 
ATOM     23  H   UNL     1       6.086   6.169  18.715  0.00  0.00    +0.000 HD
ATOM     24  H   UNL     1       5.949   5.654  20.332  0.00  0.00    +0.000 HD
ENDBRANCH  18  22
ENDBRANCH   1  19
TORSDOF 3
ENDMDL
MODEL 2
REMARK VINA RESULT:      -7.0      2.104      2.687
REMARK  Name = 
REMARK  6 active torsions:
REMARK  status: ('A' for Active; 'I' for Inactive)
REMARK    1  A    between atoms: C_1  and  C_2
REMARK    2  A    between atoms: C_4  and  N_5
REMARK    3  A    between atoms: C_6  and  C_7
REMARK    4  A    between atoms: C_7  and  C_9
REMARK    5  A    between atoms: C_11  and  C_12
REMARK    6  A    between atoms: C_21  and  C_22
REMARK                            x       y       z     vdW  Elec       q    Type
REMARK                         _______ _______ _______ _____ _____    ______ ____
ROOT
ATOM      1  C   UNL     1       2.382   5.263  20.315  0.00  0.00    +0.000 C 
ATOM      2  O   UNL     1       2.383   4.701  21.409  0.00  0.00    +0.000 OA
ENDROOT
BRANCH   1   3
ATOM      3  C   UNL     1       1.836   6.646  20.250  0.00  0.00    +0.000 A 
ATOM      4  C   UNL     1       2.090   7.411  19.104  0.00  0.00    +0.000 A 
ATOM      5  C   UNL     1       1.677   8.751  19.022  0.00  0.00    +0.000 A 
ATOM      6  C   UNL     1       2.041   9.540  17.790  0.00  0.00    +0.000 C 
ATOM      7  C   UNL     1       0.977   9.339  20.109  0.00  0.00    +0.000 A 
ATOM      8  C   UNL     1       0.536  10.680  20.112  0.00  0.00    +0.000 A 
ATOM      9  C   UNL     1      -0.105  11.227  21.224  0.00  0.00    +0.000 A 
ATOM     10 CL   UNL     1      -0.587  12.879  21.205  0.00  0.00    +0.000 Cl
ATOM     11  C   UNL     1      -0.344  10.453  22.351  0.00  0.00    +0.000 A 
ATOM     12  C   UNL     1       0.062   9.121  22.368  0.00  0.00    +0.000 A 
ATOM     13  C   UNL     1       0.726   8.556  21.268  0.00  0.00    +0.000 A 
ATOM     14  C   UNL     1       1.167   7.228  21.329  0.00  0.00    +0.000 A 
ENDBRANCH   1   3
BRANCH   1  19
ATOM     15  C   UNL     1       5.340   3.867  16.297  0.00  0.00    +0.000 C 
ATOM     16  C   UNL     1       4.226   3.952  17.289  0.00  0.00    +0.000 A 
ATOM     17  S   UNL     1       2.849   2.980  17.092  0.00  0.00    +0.000 S 
ATOM     18  C   UNL     1       2.094   3.626  18.470  0.00  0.00    +0.000 A 
ATOM     19  C   UNL     1       2.870   4.591  19.100  0.00  0.00    +0.000 A 
ATOM     20  C   UNL     1       4.148   4.763  18.420  0.00  0.00    +0.000 A 
ATOM     21  C   UNL     1       5.265   5.665  18.845  0.00  0.00    +0.000 C 
BRANCH  18  22
ATOM     22  N   UNL     1       0.865   3.192  18.834  0.00  0.00    +0.000 N 
ATOM     23  H   UNL     1       0.070   3.805  18.664  0.00  0.00    +0.000 HD
ATOM     24  H   UNL     1       0.649   2.204  18.668  0.00  0.00    +0.000 HD
ENDBRANCH  18  22
ENDBRANCH   1  19
TORSDOF 3
ENDMDL
MODEL 3
REMARK VINA RESULT:      -6.9      0.957      2.240
REMARK  Name = 
REMARK  6 active torsions:
REMARK  status: ('A' for Active; 'I' for Inactive)
REMARK    1  A    between atoms: C_1  and  C_2
REMARK    2  A    between atoms: C_4  and  N_5
REMARK    3  A    between atoms: C_6  and  C_7
REMARK    4  A    between atoms: C_7  and  C_9
REMARK    5  A    between atoms: C_11  and  C_12
REMARK    6  A    between atoms: C_21  and  C_22
REMARK                            x       y       z     vdW  Elec       q    Type
REMARK                         _______ _______ _______ _____ _____    ______ ____
ROOT
ATOM      1  C   UNL     1       3.392   6.781  17.957  0.00  0.00    +0.000 C 
ATOM      2  O   UNL     1       4.127   7.203  17.065  0.00  0.00    +0.000 OA
ENDROOT
BRANCH   1   3
ATOM      3  C   UNL     1       2.458   7.747  18.596  0.00  0.00    +0.000 A 
ATOM      4  C   UNL     1       2.227   7.640  19.973  0.00  0.00    +0.000 A 
ATOM      5  C   UNL     1       1.289   8.465  20.616  0.00  0.00    +0.000 A 
ATOM      6  C   UNL     1       1.037   8.253  22.088  0.00  0.00    +0.000 C 
ATOM      7  C   UNL     1       0.574   9.435  19.865  0.00  0.00    +0.000 A 
ATOM      8  C   UNL     1      -0.391  10.296  20.431  0.00  0.00    +0.000 A 
ATOM      9  C   UNL     1      -1.103  11.199  19.643  0.00  0.00    +0.000 A 
ATOM     10 CL   UNL     1      -2.305  12.200  20.363  0.00  0.00    +0.000 Cl
ATOM     11  C   UNL     1      -0.862  11.288  18.279  0.00  0.00    +0.000 A 
ATOM     12  C   UNL     1       0.099  10.464  17.696  0.00  0.00    +0.000 A 
ATOM     13  C   UNL     1       0.813   9.534  18.468  0.00  0.00    +0.000 A 
ATOM     14  C   UNL     1       1.741   8.685  17.851  0.00  0.00    +0.000 A 
ENDBRANCH   1   3
BRANCH   1  19
ATOM     15  C   UNL     1       2.117   1.856  18.931  0.00  0.00    +0.000 C 
ATOM     16  C   UNL     1       2.867   3.143  18.830  0.00  0.00    +0.000 A 
ATOM     17  S   UNL     1       4.435   3.254  19.470  0.00  0.00    +0.000 S 
ATOM     18  C   UNL     1       4.585   4.891  19.039  0.00  0.00    +0.000 A 
ATOM     19  C   UNL     1       3.448   5.381  18.407  0.00  0.00    +0.000 A 
ATOM     20  C   UNL     1       2.442   4.338  18.253  0.00  0.00    +0.000 A 
ATOM     21  C   UNL     1       1.119   4.475  17.565  0.00  0.00    +0.000 C 
BRANCH  18  22
ATOM     22  N   UNL     1       5.722   5.565  19.328  0.00  0.00    +0.000 N 
ATOM     23  H   UNL     1       5.997   6.327  18.711  0.00  0.00    +0.000 HD
ATOM     24  H   UNL     1       5.912   5.762  20.315  0.00  0.00    +0.000 HD
ENDBRANCH  18  22
ENDBRANCH   1  19
TORSDOF 3
ENDMDL
MODEL 4
REMARK VINA RESULT:      -6.9      2.030      2.863
REMARK  Name = 
REMARK  6 active torsions:
REMARK  status: ('A' for Active; 'I' for Inactive)
REMARK    1  A    between atoms: C_1  and  C_2
REMARK    2  A    between atoms: C_4  and  N_5
REMARK    3  A    between atoms: C_6  and  C_7
REMARK    4  A    between atoms: C_7  and  C_9
REMARK    5  A    between atoms: C_11  and  C_12
REMARK    6  A    between atoms: C_21  and  C_22
REMARK                            x       y       z     vdW  Elec       q    Type
REMARK                         _______ _______ _______ _____ _____    ______ ____
ROOT
ATOM      1  C   UNL     1       3.139   4.958  19.664  0.00  0.00    +0.000 C 
ATOM      2  O   UNL     1       2.919   4.147  20.562  0.00  0.00    +0.000 OA
ENDROOT
BRANCH   1   3
ATOM      3  C   UNL     1       2.440   6.270  19.733  0.00  0.00    +0.000 A 
ATOM      4  C   UNL     1       2.564   7.150  18.651  0.00  0.00    +0.000 A 
ATOM      5  C   UNL     1       2.001   8.436  18.696  0.00  0.00    +0.000 A 
ATOM      6  C   UNL     1       2.228   9.361  17.526  0.00  0.00    +0.000 C 
ATOM      7  C   UNL     1       1.280   8.849  19.848  0.00  0.00    +0.000 A 
ATOM      8  C   UNL     1       0.692  10.126  19.978  0.00  0.00    +0.000 A 
ATOM      9  C   UNL     1       0.036  10.502  21.150  0.00  0.00    +0.000 A 
ATOM     10 CL   UNL     1      -0.628  12.084  21.287  0.00  0.00    +0.000 Cl
ATOM     11  C   UNL     1      -0.073   9.617  22.213  0.00  0.00    +0.000 A 
ATOM     12  C   UNL     1       0.480   8.343  22.105  0.00  0.00    +0.000 A 
ATOM     13  C   UNL     1       1.162   7.950  20.942  0.00  0.00    +0.000 A 
ATOM     14  C   UNL     1       1.751   6.680  20.876  0.00  0.00    +0.000 A 
ENDBRANCH   1   3
BRANCH   1  19
ATOM     15  C   UNL     1       7.336   4.604  16.648  0.00  0.00    +0.000 C 
ATOM     16  C   UNL     1       5.949   4.473  17.185  0.00  0.00    +0.000 A 
ATOM     17  S   UNL     1       4.755   3.709  16.251  0.00  0.00    +0.000 S 
ATOM     18  C   UNL     1       3.553   3.970  17.424  0.00  0.00    +0.000 A 
ATOM     19  C   UNL     1       4.035   4.644  18.540  0.00  0.00    +0.000 A 
ATOM     20  C   UNL     1       5.462   4.914  18.414  0.00  0.00    +0.000 A 
ATOM     21  C   UNL     1       6.337   5.562  19.442  0.00  0.00    +0.000 C 
BRANCH  18  22
ATOM     22  N   UNL     1       2.288   3.541  17.204  0.00  0.00    +0.000 N 
ATOM     23  H   UNL     1       1.712   3.313  18.012  0.00  0.00    +0.000 HD
ATOM     24  H   UNL     1       1.761   4.000  16.455  0.00  0.00    +0.000 HD
ENDBRANCH  18  22
ENDBRANCH   1  19
TORSDOF 3
ENDMDL
MODEL 5
REMARK VINA RESULT:      -6.9      5.059      7.822
REMARK  Name = 
REMARK  6 active torsions:
REMARK  status: ('A' for Active; 'I' for Inactive)
REMARK    1  A    between atoms: C_1  and  C_2
REMARK    2  A    between atoms: C_4  and  N_5
REMARK    3  A    between atoms: C_6  and  C_7
REMARK    4  A    between atoms: C_7  and  C_9
REMARK    5  A    between atoms: C_11  and  C_12
REMARK    6  A    between atoms: C_21  and  C_22
REMARK                            x       y       z     vdW  Elec       q    Type
REMARK                         _______ _______ _______ _____ _____    ______ ____
ROOT
ATOM      1  C   UNL     1      -1.095  12.010  18.803  0.00  0.00    +0.000 C 
ATOM      2  O   UNL     1      -0.465  13.059  18.680  0.00  0.00    +0.000 OA
ENDROOT
BRANCH   1   3
ATOM      3  C   UNL     1      -0.330  10.783  19.155  0.00  0.00    +0.000 A 
ATOM      4  C   UNL     1      -0.378  10.322  20.476  0.00  0.00    +0.000 A 
ATOM      5  C   UNL     1       0.392   9.222  20.888  0.00  0.00    +0.000 A 
ATOM      6  C   UNL     1       0.348   8.818  22.341  0.00  0.00    +0.000 C 
ATOM      7  C   UNL     1       1.223   8.554  19.949  0.00  0.00    +0.000 A 
ATOM      8  C   UNL     1       2.035   7.448  20.283  0.00  0.00    +0.000 A 
ATOM      9  C   UNL     1       2.871   6.856  19.336  0.00  0.00    +0.000 A 
ATOM     10 CL   UNL     1       3.881   5.539  19.793  0.00  0.00    +0.000 Cl
ATOM     11  C   UNL     1       2.908   7.330  18.032  0.00  0.00    +0.000 A 
ATOM     12  C   UNL     1       2.102   8.407  17.670  0.00  0.00    +0.000 A 
ATOM     13  C   UNL     1       1.268   9.030  18.612  0.00  0.00    +0.000 A 
ATOM     14  C   UNL     1       0.502  10.142  18.235  0.00  0.00    +0.000 A 
ENDBRANCH   1   3
BRANCH   1  19
ATOM     15  C   UNL     1      -6.215  12.237  19.555  0.00  0.00    +0.000 C 
ATOM     16  C   UNL     1      -4.870  12.072  18.927  0.00  0.00    +0.000 A 
ATOM     17  S   UNL     1      -4.754  11.586  17.305  0.00  0.00    +0.000 S 
ATOM     18  C   UNL     1      -3.055  11.586  17.339  0.00  0.00    +0.000 A 
ATOM     19  C   UNL     1      -2.548  11.950  18.581  0.00  0.00    +0.000 A 
ATOM     20  C   UNL     1      -3.622  12.270  19.513  0.00  0.00    +0.000 A 
ATOM     21  C   UNL     1      -3.460  12.762  20.919  0.00  0.00    +0.000 C 
BRANCH  18  22
ATOM     22  N   UNL     1      -2.356  11.246  16.232  0.00  0.00    +0.000 N 
ATOM     23  H   UNL     1      -2.105  11.985  15.578  0.00  0.00    +0.000 HD
ATOM     24  H   UNL     1      -1.619  10.543  16.340  0.00  0.00    +0.000 HD
ENDBRANCH  18  22
ENDBRANCH   1  19
TORSDOF 3
ENDMDL
MODEL 6
REMARK VINA RESULT:      -6.8      3.996      6.687
REMARK  Name = 
REMARK  6 active torsions:
REMARK  status: ('A' for Active; 'I' for Inactive)
REMARK    1  A    between atoms: C_1  and  C_2
REMARK    2  A    between atoms: C_4  and  N_5
REMARK    3  A    between atoms: C_6  and  C_7
REMARK    4  A    between atoms: C_7  and  C_9
REMARK    5  A    between atoms: C_11  and  C_12
REMARK    6  A    between atoms: C_21  and  C_22
REMARK                            x       y       z     vdW  Elec       q    Type
REMARK                         _______ _______ _______ _____ _____    ______ ____
ROOT
ATOM      1  C   UNL     1       1.848   8.961  18.191  0.00  0.00    +0.000 C 
ATOM      2  O   UNL     1       2.107   9.681  17.228  0.00  0.00    +0.000 OA
ENDROOT
BRANCH   1   3
ATOM      3  C   UNL     1       2.434   7.593  18.206  0.00  0.00    +0.000 A 
ATOM      4  C   UNL     1       3.810   7.454  17.988  0.00  0.00    +0.000 A 
ATOM      5  C   UNL     1       4.405   6.184  17.903  0.00  0.00    +0.000 A 
ATOM      6  C   UNL     1       5.879   6.101  17.598  0.00  0.00    +0.000 C 
ATOM      7  C   UNL     1       3.604   5.021  18.057  0.00  0.00    +0.000 A 
ATOM      8  C   UNL     1       4.121   3.709  17.976  0.00  0.00    +0.000 A 
ATOM      9  C   UNL     1       3.286   2.597  18.085  0.00  0.00    +0.000 A 
ATOM     10 CL   UNL     1       3.946   1.015  17.936  0.00  0.00    +0.000 Cl
ATOM     11  C   UNL     1       1.923   2.756  18.298  0.00  0.00    +0.000 A 
ATOM     12  C   UNL     1       1.390   4.039  18.402  0.00  0.00    +0.000 A 
ATOM     13  C   UNL     1       2.209   5.172  18.276  0.00  0.00    +0.000 A 
ATOM     14  C   UNL     1       1.641   6.451  18.336  0.00  0.00    +0.000 A 
ENDBRANCH   1   3
BRANCH   1  19
ATOM     15  C   UNL     1      -0.444   9.431  22.812  0.00  0.00    +0.000 C 
ATOM     16  C   UNL     1      -0.058   9.629  21.383  0.00  0.00    +0.000 A 
ATOM     17  S   UNL     1      -0.882  10.777  20.442  0.00  0.00    +0.000 S 
ATOM     18  C   UNL     1       0.026  10.411  19.053  0.00  0.00    +0.000 A 
ATOM     19  C   UNL     1       0.965   9.411  19.278  0.00  0.00    +0.000 A 
ATOM     20  C   UNL     1       0.938   8.970  20.667  0.00  0.00    +0.000 A 
ATOM     21  C   UNL     1       1.846   7.957  21.294  0.00  0.00    +0.000 C 
BRANCH  18  22
ATOM     22  N   UNL     1      -0.215  11.069  17.895  0.00  0.00    +0.000 N 
ATOM     23  H   UNL     1       0.411  11.829  17.636  0.00  0.00    +0.000 HD
ATOM     24  H   UNL     1      -0.515  10.508  17.091  0.00  0.00    +0.000 HD
ENDBRANCH  18  22
ENDBRANCH   1  19
TORSDOF 3
ENDMDL
MODEL 7
REMARK VINA RESULT:      -6.8      2.279      3.506
REMARK  Name = 
REMARK  6 active torsions:
REMARK  status: ('A' for Active; 'I' for Inactive)
REMARK    1  A    between atoms: C_1  and  C_2
REMARK    2  A    between atoms: C_4  and  N_5
REMARK    3  A    between atoms: C_6  and  C_7
REMARK    4  A    between atoms: C_7  and  C_9
REMARK    5  A    between atoms: C_11  and  C_12
REMARK    6  A    between atoms: C_21  and  C_22
REMARK                            x       y       z     vdW  Elec       q    Type
REMARK                         _______ _______ _______ _____ _____    ______ ____
ROOT
ATOM      1  C   UNL     1       2.382   5.209  20.306  0.00  0.00    +0.000 C 
ATOM      2  O   UNL     1       2.273   4.628  21.385  0.00  0.00    +0.000 OA
ENDROOT
BRANCH   1   3
ATOM      3  C   UNL     1       1.963   6.635  20.244  0.00  0.00    +0.000 A 
ATOM      4  C   UNL     1       1.171   7.144  21.281  0.00  0.00    +0.000 A 
ATOM      5  C   UNL     1       0.671   8.456  21.233  0.00  0.00    +0.000 A 
ATOM      6  C   UNL     1      -0.232   8.921  22.348  0.00  0.00    +0.000 C 
ATOM      7  C   UNL     1       0.985   9.288  20.126  0.00  0.00    +0.000 A 
ATOM      8  C   UNL     1       0.516  10.614  19.996  0.00  0.00    +0.000 A 
ATOM      9  C   UNL     1       0.810  11.375  18.865  0.00  0.00    +0.000 A 
ATOM     10 CL   UNL     1       0.182  12.972  18.723  0.00  0.00    +0.000 Cl
ATOM     11  C   UNL     1       1.594  10.852  17.846  0.00  0.00    +0.000 A 
ATOM     12  C   UNL     1       2.087   9.554  17.957  0.00  0.00    +0.000 A 
ATOM     13  C   UNL     1       1.786   8.763  19.078  0.00  0.00    +0.000 A 
ATOM     14  C   UNL     1       2.255   7.444  19.143  0.00  0.00    +0.000 A 
ENDBRANCH   1   3
BRANCH   1  19
ATOM     15  C   UNL     1       5.364   3.755  16.327  0.00  0.00    +0.000 C 
ATOM     16  C   UNL     1       4.245   3.855  17.310  0.00  0.00    +0.000 A 
ATOM     17  S   UNL     1       2.869   2.879  17.119  0.00  0.00    +0.000 S 
ATOM     18  C   UNL     1       2.105   3.545  18.483  0.00  0.00    +0.000 A 
ATOM     19  C   UNL     1       2.878   4.520  19.104  0.00  0.00    +0.000 A 
ATOM     20  C   UNL     1       4.160   4.681  18.429  0.00  0.00    +0.000 A 
ATOM     21  C   UNL     1       5.274   5.589  18.848  0.00  0.00    +0.000 C 
BRANCH  18  22
ATOM     22  N   UNL     1       0.874   3.116  18.845  0.00  0.00    +0.000 N 
ATOM     23  H   UNL     1       0.079   3.408  18.280  0.00  0.00    +0.000 HD
ATOM     24  H   UNL     1       0.793   2.150  19.178  0.00  0.00    +0.000 HD
ENDBRANCH  18  22
ENDBRANCH   1  19
TORSDOF 3
ENDMDL
MODEL 8
REMARK VINA RESULT:      -6.8      5.269      7.733
REMARK  Name = 
REMARK  6 active torsions:
REMARK  status: ('A' for Active; 'I' for Inactive)
REMARK    1  A    between atoms: C_1  and  C_2
REMARK    2  A    between atoms: C_4  and  N_5
REMARK    3  A    between atoms: C_6  and  C_7
REMARK    4  A    between atoms: C_7  and  C_9
REMARK    5  A    between atoms: C_11  and  C_12
REMARK    6  A    between atoms: C_21  and  C_22
REMARK                            x       y       z     vdW  Elec       q    Type
REMARK                         _______ _______ _______ _____ _____    ______ ____
ROOT
ATOM      1  C   UNL     1      -1.071  12.003  18.832  0.00  0.00    +0.000 C 
ATOM      2  O   UNL     1      -0.433  12.971  18.420  0.00  0.00    +0.000 OA
ENDROOT
BRANCH   1   3
ATOM      3  C   UNL     1      -0.312  10.767  19.163  0.00  0.00    +0.000 A 
ATOM      4  C   UNL     1      -0.374  10.277  20.474  0.00  0.00    +0.000 A 
ATOM      5  C   UNL     1       0.391   9.167  20.869  0.00  0.00    +0.000 A 
ATOM      6  C   UNL     1       0.333   8.731  22.311  0.00  0.00    +0.000 C 
ATOM      7  C   UNL     1       1.228   8.517  19.923  0.00  0.00    +0.000 A 
ATOM      8  C   UNL     1       2.034   7.402  20.239  0.00  0.00    +0.000 A 
ATOM      9  C   UNL     1       2.877   6.829  19.287  0.00  0.00    +0.000 A 
ATOM     10 CL   UNL     1       3.880   5.499  19.724  0.00  0.00    +0.000 Cl
ATOM     11  C   UNL     1       2.927   7.331  17.994  0.00  0.00    +0.000 A 
ATOM     12  C   UNL     1       2.126   8.417  17.649  0.00  0.00    +0.000 A 
ATOM     13  C   UNL     1       1.285   9.022  18.596  0.00  0.00    +0.000 A 
ATOM     14  C   UNL     1       0.526  10.144  18.236  0.00  0.00    +0.000 A 
ENDBRANCH   1   3
BRANCH   1  19
ATOM     15  C   UNL     1      -6.124  11.204  18.018  0.00  0.00    +0.000 C 
ATOM     16  C   UNL     1      -4.826  11.662  18.599  0.00  0.00    +0.000 A 
ATOM     17  S   UNL     1      -4.825  12.685  19.953  0.00  0.00    +0.000 S 
ATOM     18  C   UNL     1      -3.129  12.781  19.983  0.00  0.00    +0.000 A 
ATOM     19  C   UNL     1      -2.536  12.043  18.965  0.00  0.00    +0.000 A 
ATOM     20  C   UNL     1      -3.539  11.353  18.164  0.00  0.00    +0.000 A 
ATOM     21  C   UNL     1      -3.275  10.417  17.026  0.00  0.00    +0.000 C 
BRANCH  18  22
ATOM     22  N   UNL     1      -2.511  13.527  20.927  0.00  0.00    +0.000 N 
ATOM     23  H   UNL     1      -1.578  13.248  21.223  0.00  0.00    +0.000 HD
ATOM     24  H   UNL     1      -2.623  14.544  20.869  0.00  0.00    +0.000 HD
ENDBRANCH  18  22
ENDBRANCH   1  19
TORSDOF 3
ENDMDL
MODEL 9
REMARK VINA RESULT:      -6.6      7.434     10.005
REMARK  Name = 
REMARK  6 active torsions:
REMARK  status: ('A' for Active; 'I' for Inactive)
REMARK    1  A    between atoms: C_1  and  C_2
REMARK    2  A    between atoms: C_4  and  N_5
REMARK    3  A    between atoms: C_6  and  C_7
REMARK    4  A    between atoms: C_7  and  C_9
REMARK    5  A    between atoms: C_11  and  C_12
REMARK    6  A    between atoms: C_21  and  C_22
REMARK                            x       y       z     vdW  Elec       q    Type
REMARK                         _______ _______ _______ _____ _____    ______ ____
ROOT
ATOM      1  C   UNL     1      -5.993  12.562  18.354  0.00  0.00    +0.000 C 
ATOM      2  O   UNL     1      -6.759  12.736  17.408  0.00  0.00    +0.000 OA
ENDROOT
BRANCH   1   3
ATOM      3  C   UNL     1      -4.667  11.953  18.066  0.00  0.00    +0.000 A 
ATOM      4  C   UNL     1      -4.493  11.275  16.853  0.00  0.00    +0.000 A 
ATOM      5  C   UNL     1      -3.294  10.604  16.563  0.00  0.00    +0.000 A 
ATOM      6  C   UNL     1      -3.195   9.835  15.270  0.00  0.00    +0.000 C 
ATOM      7  C   UNL     1      -2.232  10.625  17.506  0.00  0.00    +0.000 A 
ATOM      8  C   UNL     1      -0.998   9.969  17.298  0.00  0.00    +0.000 A 
ATOM      9  C   UNL     1      -0.003   9.977  18.275  0.00  0.00    +0.000 A 
ATOM     10 CL   UNL     1       1.469   9.128  18.002  0.00  0.00    +0.000 Cl
ATOM     11  C   UNL     1      -0.195  10.652  19.472  0.00  0.00    +0.000 A 
ATOM     12  C   UNL     1      -1.395  11.324  19.696  0.00  0.00    +0.000 A 
ATOM     13  C   UNL     1      -2.417  11.313  18.735  0.00  0.00    +0.000 A 
ATOM     14  C   UNL     1      -3.632  11.956  19.004  0.00  0.00    +0.000 A 
ENDBRANCH   1   3
BRANCH   1  19
ATOM     15  C   UNL     1      -7.913  12.296  23.159  0.00  0.00    +0.000 C 
ATOM     16  C   UNL     1      -7.235  12.773  21.917  0.00  0.00    +0.000 A 
ATOM     17  S   UNL     1      -6.611  14.350  21.853  0.00  0.00    +0.000 S 
ATOM     18  C   UNL     1      -6.084  14.166  20.247  0.00  0.00    +0.000 A 
ATOM     19  C   UNL     1      -6.376  12.909  19.732  0.00  0.00    +0.000 A 
ATOM     20  C   UNL     1      -7.029  12.071  20.731  0.00  0.00    +0.000 A 
ATOM     21  C   UNL     1      -7.432  10.639  20.561  0.00  0.00    +0.000 C 
BRANCH  18  22
ATOM     22  N   UNL     1      -5.465  15.191  19.617  0.00  0.00    +0.000 N 
ATOM     23  H   UNL     1      -4.518  15.040  19.275  0.00  0.00    +0.000 HD
ATOM     24  H   UNL     1      -6.031  15.763  18.984  0.00  0.00    +0.000 HD
ENDBRANCH  18  22
ENDBRANCH   1  19
TORSDOF 3
ENDMDL
