MODEL 1
REMARK VINA RESULT:      -7.4      0.000      0.000
REMARK  Name = 
REMARK  8 active torsions:
REMARK  status: ('A' for Active; 'I' for Inactive)
REMARK    1  A    between atoms: C_1  and  C_2
REMARK    2  A    between atoms: C_2  and  C_3
REMARK    3  A    between atoms: C_12  and  S_13
REMARK    4  A    between atoms: S_13  and  N_16
REMARK    5  A    between atoms: C_17  and  C_18
REMARK    6  A    between atoms: C_19  and  C_20
REMARK    7  A    between atoms: N_21  and  N_22
REMARK    8  A    between atoms: N_25  and  C_26
REMARK                            x       y       z     vdW  Elec       q    Type
REMARK                         _______ _______ _______ _____ _____    ______ ____
ROOT
ATOM      1  N   UNL     1      -1.485  11.694  20.218  0.00  0.00    +0.000 N 
ATOM      2  C   UNL     1      -0.208  11.160  20.350  0.00  0.00    +0.000 A 
ATOM      3  C   UNL     1       0.746  11.371  21.480  0.00  0.00    +0.000 C 
ATOM      4  C   UNL     1      -0.026  10.311  19.263  0.00  0.00    +0.000 A 
ATOM      5  C   UNL     1      -1.171  10.425  18.417  0.00  0.00    +0.000 A 
ATOM      6  C   UNL     1      -1.560   9.778  17.222  0.00  0.00    +0.000 A 
ATOM      7  C   UNL     1      -2.791  10.075  16.645  0.00  0.00    +0.000 A 
ATOM      8  C   UNL     1      -3.614  11.051  17.192  0.00  0.00    +0.000 A 
ATOM      9  C   UNL     1      -3.242  11.732  18.361  0.00  0.00    +0.000 A 
ATOM     10  C   UNL     1      -2.037  11.361  18.988  0.00  0.00    +0.000 A 
ENDROOT
BRANCH   1  11
ATOM     11  S   UNL     1      -2.314  12.683  21.343  0.00  0.00    +0.000 S 
ATOM     12  O   UNL     1      -2.415  11.799  22.491  0.00  0.00    +0.000 OA
ATOM     13  O   UNL     1      -3.492  13.215  20.682  0.00  0.00    +0.000 OA
BRANCH  11  23
ATOM     14  C   UNL     1      -0.491  14.804  20.840  0.00  0.00    +0.000 A 
ATOM     15  C   UNL     1       0.316  15.859  21.307  0.00  0.00    +0.000 A 
ATOM     16  C   UNL     1       0.238  16.309  22.618  0.00  0.00    +0.000 A 
ATOM     17  C   UNL     1      -0.683  15.757  23.506  0.00  0.00    +0.000 A 
ATOM     18  C   UNL     1      -0.807  16.337  24.780  0.00  0.00    +0.000 A 
ATOM     19  C   UNL     1      -1.740  15.871  25.698  0.00  0.00    +0.000 A 
ATOM     20  C   UNL     1      -2.557  14.811  25.350  0.00  0.00    +0.000 A 
ATOM     21  C   UNL     1      -2.437  14.226  24.085  0.00  0.00    +0.000 A 
ATOM     22  C   UNL     1      -1.493  14.660  23.111  0.00  0.00    +0.000 A 
ATOM     23  C   UNL     1      -1.328  14.135  21.773  0.00  0.00    +0.000 A 
BRANCH  14  25
ATOM     24  C   UNL     1       0.906  14.273  18.815  0.00  0.00    +0.000 C 
ATOM     25  C   UNL     1      -0.482  14.631  19.336  0.00  0.00    +0.000 C 
ENDBRANCH  14  25
ENDBRANCH  11  23
ENDBRANCH   1  11
BRANCH   4  26
ATOM     26  C   UNL     1       1.075   9.395  19.039  0.00  0.00    +0.000 C 
ATOM     27  N   UNL     1       1.399   8.490  19.911  0.00  0.00    +0.000 NA
BRANCH  27  28
ATOM     28  N   UNL     1       2.344   7.653  19.417  0.00  0.00    +0.000 N 
ATOM     29  C   UNL     1       2.284   6.235  19.819  0.00  0.00    +0.000 C 
ATOM     30  C   UNL     1       3.637   5.567  19.498  0.00  0.00    +0.000 C 
ATOM     31  N   UNL     1       3.972   5.638  18.059  0.00  0.00    +0.000 NA
ATOM     32  C   UNL     1       5.303   5.090  17.808  0.00  0.00    +0.000 C 
ATOM     33  C   UNL     1       3.895   7.035  17.594  0.00  0.00    +0.000 C 
ATOM     34  C   UNL     1       2.555   7.698  17.952  0.00  0.00    +0.000 C 
ENDBRANCH  27  28
ENDBRANCH   4  26
TORSDOF 5
ENDMDL
MODEL 2
REMARK VINA RESULT:      -7.4      2.346      3.829
REMARK  Name = 
REMARK  8 active torsions:
REMARK  status: ('A' for Active; 'I' for Inactive)
REMARK    1  A    between atoms: C_1  and  C_2
REMARK    2  A    between atoms: C_2  and  C_3
REMARK    3  A    between atoms: C_12  and  S_13
REMARK    4  A    between atoms: S_13  and  N_16
REMARK    5  A    between atoms: C_17  and  C_18
REMARK    6  A    between atoms: C_19  and  C_20
REMARK    7  A    between atoms: N_21  and  N_22
REMARK    8  A    between atoms: N_25  and  C_26
REMARK                            x       y       z     vdW  Elec       q    Type
REMARK                         _______ _______ _______ _____ _____    ______ ____
ROOT
ATOM      1  N   UNL     1       0.106  11.516  21.120  0.00  0.00    +0.000 N 
ATOM      2  C   UNL     1       0.247  10.133  21.140  0.00  0.00    +0.000 A 
ATOM      3  C   UNL     1      -0.407   9.172  22.078  0.00  0.00    +0.000 C 
ATOM      4  C   UNL     1       1.050   9.806  20.051  0.00  0.00    +0.000 A 
ATOM      5  C   UNL     1       1.479  11.023  19.439  0.00  0.00    +0.000 A 
ATOM      6  C   UNL     1       2.253  11.308  18.290  0.00  0.00    +0.000 A 
ATOM      7  C   UNL     1       2.462  12.630  17.910  0.00  0.00    +0.000 A 
ATOM      8  C   UNL     1       1.977  13.676  18.684  0.00  0.00    +0.000 A 
ATOM      9  C   UNL     1       1.231  13.426  19.845  0.00  0.00    +0.000 A 
ATOM     10  C   UNL     1       0.948  12.086  20.173  0.00  0.00    +0.000 A 
ENDROOT
BRANCH   1  11
ATOM     11  S   UNL     1      -0.898  12.468  22.126  0.00  0.00    +0.000 S 
ATOM     12  O   UNL     1      -0.266  13.771  22.022  0.00  0.00    +0.000 OA
ATOM     13  O   UNL     1      -1.030  11.782  23.399  0.00  0.00    +0.000 OA
BRANCH  11  23
ATOM     14  C   UNL     1      -2.867  12.475  20.078  0.00  0.00    +0.000 A 
ATOM     15  C   UNL     1      -4.201  12.657  19.665  0.00  0.00    +0.000 A 
ATOM     16  C   UNL     1      -5.232  12.810  20.582  0.00  0.00    +0.000 A 
ATOM     17  C   UNL     1      -4.983  12.740  21.951  0.00  0.00    +0.000 A 
ATOM     18  C   UNL     1      -6.081  12.772  22.828  0.00  0.00    +0.000 A 
ATOM     19  C   UNL     1      -5.910  12.656  24.202  0.00  0.00    +0.000 A 
ATOM     20  C   UNL     1      -4.634  12.511  24.713  0.00  0.00    +0.000 A 
ATOM     21  C   UNL     1      -3.535  12.481  23.847  0.00  0.00    +0.000 A 
ATOM     22  C   UNL     1      -3.654  12.605  22.433  0.00  0.00    +0.000 A 
ATOM     23  C   UNL     1      -2.578  12.550  21.467  0.00  0.00    +0.000 A 
BRANCH  14  25
ATOM     24  C   UNL     1      -2.295  10.680  18.409  0.00  0.00    +0.000 C 
ATOM     25  C   UNL     1      -1.925  12.048  18.973  0.00  0.00    +0.000 C 
ENDBRANCH  14  25
ENDBRANCH  11  23
ENDBRANCH   1  11
BRANCH   4  26
ATOM     26  C   UNL     1       1.349   8.480  19.547  0.00  0.00    +0.000 C 
ATOM     27  N   UNL     1       2.204   7.702  20.136  0.00  0.00    +0.000 NA
BRANCH  27  28
ATOM     28  N   UNL     1       2.197   6.464  19.585  0.00  0.00    +0.000 N 
ATOM     29  C   UNL     1       3.379   6.052  18.804  0.00  0.00    +0.000 C 
ATOM     30  C   UNL     1       3.008   4.823  17.947  0.00  0.00    +0.000 C 
ATOM     31  N   UNL     1       2.561   3.678  18.770  0.00  0.00    +0.000 NA
ATOM     32  C   UNL     1       2.121   2.572  17.924  0.00  0.00    +0.000 C 
ATOM     33  C   UNL     1       1.473   4.102  19.671  0.00  0.00    +0.000 C 
ATOM     34  C   UNL     1       1.843   5.347  20.491  0.00  0.00    +0.000 C 
ENDBRANCH  27  28
ENDBRANCH   4  26
TORSDOF 5
ENDMDL
MODEL 3
REMARK VINA RESULT:      -7.2      2.876      4.615
REMARK  Name = 
REMARK  8 active torsions:
REMARK  status: ('A' for Active; 'I' for Inactive)
REMARK    1  A    between atoms: C_1  and  C_2
REMARK    2  A    between atoms: C_2  and  C_3
REMARK    3  A    between atoms: C_12  and  S_13
REMARK    4  A    between atoms: S_13  and  N_16
REMARK    5  A    between atoms: C_17  and  C_18
REMARK    6  A    between atoms: C_19  and  C_20
REMARK    7  A    between atoms: N_21  and  N_22
REMARK    8  A    between atoms: N_25  and  C_26
REMARK                            x       y       z     vdW  Elec       q    Type
REMARK                         _______ _______ _______ _____ _____    ______ ____
ROOT
ATOM      1  N   UNL     1      -0.459  11.034  19.699  0.00  0.00    +0.000 N 
ATOM      2  C   UNL     1       0.384  10.216  18.957  0.00  0.00    +0.000 A 
ATOM      3  C   UNL     1       0.666  10.300  17.493  0.00  0.00    +0.000 C 
ATOM      4  C   UNL     1       0.992   9.355  19.867  0.00  0.00    +0.000 A 
ATOM      5  C   UNL     1       0.420   9.597  21.152  0.00  0.00    +0.000 A 
ATOM      6  C   UNL     1       0.673   9.069  22.440  0.00  0.00    +0.000 A 
ATOM      7  C   UNL     1      -0.035   9.553  23.536  0.00  0.00    +0.000 A 
ATOM      8  C   UNL     1      -1.036  10.501  23.371  0.00  0.00    +0.000 A 
ATOM      9  C   UNL     1      -1.331  11.022  22.102  0.00  0.00    +0.000 A 
ATOM     10  C   UNL     1      -0.550  10.593  21.013  0.00  0.00    +0.000 A 
ENDROOT
BRANCH   1  11
ATOM     11  S   UNL     1      -1.348  12.385  19.136  0.00  0.00    +0.000 S 
ATOM     12  O   UNL     1      -0.666  12.684  17.888  0.00  0.00    +0.000 OA
ATOM     13  O   UNL     1      -1.420  13.351  20.217  0.00  0.00    +0.000 OA
BRANCH  11  23
ATOM     14  C   UNL     1      -3.455  11.166  17.670  0.00  0.00    +0.000 A 
ATOM     15  C   UNL     1      -4.830  10.962  17.448  0.00  0.00    +0.000 A 
ATOM     16  C   UNL     1      -5.787  11.406  18.350  0.00  0.00    +0.000 A 
ATOM     17  C   UNL     1      -5.410  12.032  19.536  0.00  0.00    +0.000 A 
ATOM     18  C   UNL     1      -6.413  12.344  20.470  0.00  0.00    +0.000 A 
ATOM     19  C   UNL     1      -6.104  12.922  21.695  0.00  0.00    +0.000 A 
ATOM     20  C   UNL     1      -4.784  13.199  21.996  0.00  0.00    +0.000 A 
ATOM     21  C   UNL     1      -3.779  12.894  21.070  0.00  0.00    +0.000 A 
ATOM     22  C   UNL     1      -4.043  12.309  19.798  0.00  0.00    +0.000 A 
ATOM     23  C   UNL     1      -3.064  11.932  18.802  0.00  0.00    +0.000 A 
BRANCH  14  25
ATOM     24  C   UNL     1      -2.910  10.603  15.279  0.00  0.00    +0.000 C 
ATOM     25  C   UNL     1      -2.549  10.383  16.744  0.00  0.00    +0.000 C 
ENDBRANCH  14  25
ENDBRANCH  11  23
ENDBRANCH   1  11
BRANCH   4  26
ATOM     26  C   UNL     1       2.076   8.428  19.609  0.00  0.00    +0.000 C 
ATOM     27  N   UNL     1       1.938   7.149  19.786  0.00  0.00    +0.000 NA
BRANCH  27  28
ATOM     28  N   UNL     1       3.021   6.474  19.328  0.00  0.00    +0.000 N 
ATOM     29  C   UNL     1       3.063   5.016  19.547  0.00  0.00    +0.000 C 
ATOM     30  C   UNL     1       4.510   4.521  19.334  0.00  0.00    +0.000 C 
ATOM     31  N   UNL     1       5.008   4.811  17.972  0.00  0.00    +0.000 NA
ATOM     32  C   UNL     1       6.411   4.424  17.839  0.00  0.00    +0.000 C 
ATOM     33  C   UNL     1       4.839   6.245  17.670  0.00  0.00    +0.000 C 
ATOM     34  C   UNL     1       3.403   6.731  17.920  0.00  0.00    +0.000 C 
ENDBRANCH  27  28
ENDBRANCH   4  26
TORSDOF 5
ENDMDL
MODEL 4
REMARK VINA RESULT:      -7.1      4.425     11.297
REMARK  Name = 
REMARK  8 active torsions:
REMARK  status: ('A' for Active; 'I' for Inactive)
REMARK    1  A    between atoms: C_1  and  C_2
REMARK    2  A    between atoms: C_2  and  C_3
REMARK    3  A    between atoms: C_12  and  S_13
REMARK    4  A    between atoms: S_13  and  N_16
REMARK    5  A    between atoms: C_17  and  C_18
REMARK    6  A    between atoms: C_19  and  C_20
REMARK    7  A    between atoms: N_21  and  N_22
REMARK    8  A    between atoms: N_25  and  C_26
REMARK                            x       y       z     vdW  Elec       q    Type
REMARK                         _______ _______ _______ _____ _____    ______ ____
ROOT
ATOM      1  N   UNL     1       3.414   4.570  18.381  0.00  0.00    +0.000 N 
ATOM      2  C   UNL     1       3.220   5.942  18.487  0.00  0.00    +0.000 A 
ATOM      3  C   UNL     1       3.542   6.982  17.464  0.00  0.00    +0.000 C 
ATOM      4  C   UNL     1       2.576   6.152  19.703  0.00  0.00    +0.000 A 
ATOM      5  C   UNL     1       2.483   4.896  20.376  0.00  0.00    +0.000 A 
ATOM      6  C   UNL     1       1.897   4.493  21.598  0.00  0.00    +0.000 A 
ATOM      7  C   UNL     1       1.928   3.153  21.969  0.00  0.00    +0.000 A 
ATOM      8  C   UNL     1       2.587   2.214  21.186  0.00  0.00    +0.000 A 
ATOM      9  C   UNL     1       3.204   2.588  19.983  0.00  0.00    +0.000 A 
ATOM     10  C   UNL     1       3.091   3.930  19.570  0.00  0.00    +0.000 A 
ENDROOT
BRANCH   1  11
ATOM     11  S   UNL     1       4.019   3.713  17.029  0.00  0.00    +0.000 S 
ATOM     12  O   UNL     1       2.945   3.887  16.067  0.00  0.00    +0.000 OA
ATOM     13  O   UNL     1       4.431   2.398  17.485  0.00  0.00    +0.000 OA
BRANCH  11  23
ATOM     14  C   UNL     1       6.456   5.159  17.240  0.00  0.00    +0.000 A 
ATOM     15  C   UNL     1       7.545   5.814  16.634  0.00  0.00    +0.000 A 
ATOM     16  C   UNL     1       7.776   5.730  15.268  0.00  0.00    +0.000 A 
ATOM     17  C   UNL     1       6.958   4.949  14.455  0.00  0.00    +0.000 A 
ATOM     18  C   UNL     1       7.315   4.797  13.104  0.00  0.00    +0.000 A 
ATOM     19  C   UNL     1       6.574   3.992  12.248  0.00  0.00    +0.000 A 
ATOM     20  C   UNL     1       5.460   3.334  12.736  0.00  0.00    +0.000 A 
ATOM     21  C   UNL     1       5.097   3.482  14.079  0.00  0.00    +0.000 A 
ATOM     22  C   UNL     1       5.816   4.301  14.996  0.00  0.00    +0.000 A 
ATOM     23  C   UNL     1       5.530   4.481  16.402  0.00  0.00    +0.000 A 
BRANCH  14  25
ATOM     24  C   UNL     1       7.802   5.737  19.286  0.00  0.00    +0.000 C 
ATOM     25  C   UNL     1       6.512   5.124  18.752  0.00  0.00    +0.000 C 
ENDBRANCH  14  25
ENDBRANCH  11  23
ENDBRANCH   1  11
BRANCH   4  26
ATOM     26  C   UNL     1       2.009   7.393  20.194  0.00  0.00    +0.000 C 
ATOM     27  N   UNL     1       1.635   8.339  19.388  0.00  0.00    +0.000 NA
BRANCH  27  28
ATOM     28  N   UNL     1       0.991   9.325  20.060  0.00  0.00    +0.000 N 
ATOM     29  C   UNL     1       0.051  10.172  19.302  0.00  0.00    +0.000 C 
ATOM     30  C   UNL     1      -0.246  11.446  20.120  0.00  0.00    +0.000 C 
ATOM     31  N   UNL     1      -0.841  11.140  21.440  0.00  0.00    +0.000 NA
ATOM     32  C   UNL     1      -1.012  12.359  22.226  0.00  0.00    +0.000 C 
ATOM     33  C   UNL     1       0.009  10.176  22.163  0.00  0.00    +0.000 C 
ATOM     34  C   UNL     1       0.324   8.929  21.321  0.00  0.00    +0.000 C 
ENDBRANCH  27  28
ENDBRANCH   4  26
TORSDOF 5
ENDMDL
MODEL 5
REMARK VINA RESULT:      -7.1      3.076      8.839
REMARK  Name = 
REMARK  8 active torsions:
REMARK  status: ('A' for Active; 'I' for Inactive)
REMARK    1  A    between atoms: C_1  and  C_2
REMARK    2  A    between atoms: C_2  and  C_3
REMARK    3  A    between atoms: C_12  and  S_13
REMARK    4  A    between atoms: S_13  and  N_16
REMARK    5  A    between atoms: C_17  and  C_18
REMARK    6  A    between atoms: C_19  and  C_20
REMARK    7  A    between atoms: N_21  and  N_22
REMARK    8  A    between atoms: N_25  and  C_26
REMARK                            x       y       z     vdW  Elec       q    Type
REMARK                         _______ _______ _______ _____ _____    ______ ____
ROOT
ATOM      1  N   UNL     1      -0.697  11.382  19.733  0.00  0.00    +0.000 N 
ATOM      2  C   UNL     1      -1.423  12.162  20.626  0.00  0.00    +0.000 A 
ATOM      3  C   UNL     1      -0.931  12.777  21.895  0.00  0.00    +0.000 C 
ATOM      4  C   UNL     1      -2.681  12.338  20.056  0.00  0.00    +0.000 A 
ATOM      5  C   UNL     1      -2.736  11.562  18.859  0.00  0.00    +0.000 A 
ATOM      6  C   UNL     1      -3.721  11.393  17.859  0.00  0.00    +0.000 A 
ATOM      7  C   UNL     1      -3.455  10.586  16.757  0.00  0.00    +0.000 A 
ATOM      8  C   UNL     1      -2.258   9.890  16.660  0.00  0.00    +0.000 A 
ATOM      9  C   UNL     1      -1.272  10.013  17.651  0.00  0.00    +0.000 A 
ATOM     10  C   UNL     1      -1.513  10.901  18.717  0.00  0.00    +0.000 A 
ENDROOT
BRANCH   1  11
ATOM     11  S   UNL     1       0.962  10.973  19.829  0.00  0.00    +0.000 S 
ATOM     12  O   UNL     1       1.392  11.761  20.971  0.00  0.00    +0.000 OA
ATOM     13  O   UNL     1       1.542  11.158  18.512  0.00  0.00    +0.000 OA
BRANCH  11  23
ATOM     14  C   UNL     1       0.528   8.565  21.275  0.00  0.00    +0.000 A 
ATOM     15  C   UNL     1       0.846   7.217  21.526  0.00  0.00    +0.000 A 
ATOM     16  C   UNL     1       1.688   6.499  20.688  0.00  0.00    +0.000 A 
ATOM     17  C   UNL     1       2.212   7.081  19.537  0.00  0.00    +0.000 A 
ATOM     18  C   UNL     1       2.952   6.270  18.660  0.00  0.00    +0.000 A 
ATOM     19  C   UNL     1       3.461   6.773  17.468  0.00  0.00    +0.000 A 
ATOM     20  C   UNL     1       3.237   8.098  17.145  0.00  0.00    +0.000 A 
ATOM     21  C   UNL     1       2.503   8.913  18.014  0.00  0.00    +0.000 A 
ATOM     22  C   UNL     1       1.968   8.451  19.251  0.00  0.00    +0.000 A 
ATOM     23  C   UNL     1       1.172   9.214  20.187  0.00  0.00    +0.000 A 
BRANCH  14  25
ATOM     24  C   UNL     1      -0.129   9.569  23.486  0.00  0.00    +0.000 C 
ATOM     25  C   UNL     1      -0.609   9.106  22.115  0.00  0.00    +0.000 C 
ENDBRANCH  14  25
ENDBRANCH  11  23
ENDBRANCH   1  11
BRANCH   4  26
ATOM     26  C   UNL     1      -3.740  13.213  20.520  0.00  0.00    +0.000 C 
ATOM     27  N   UNL     1      -4.553  12.858  21.468  0.00  0.00    +0.000 NA
BRANCH  27  28
ATOM     28  N   UNL     1      -5.347  13.891  21.841  0.00  0.00    +0.000 N 
ATOM     29  C   UNL     1      -6.592  13.574  22.566  0.00  0.00    +0.000 C 
ATOM     30  C   UNL     1      -7.519  14.807  22.530  0.00  0.00    +0.000 C 
ATOM     31  N   UNL     1      -6.898  15.996  23.153  0.00  0.00    +0.000 NA
ATOM     32  C   UNL     1      -7.760  17.167  23.009  0.00  0.00    +0.000 C 
ATOM     33  C   UNL     1      -5.578  16.249  22.545  0.00  0.00    +0.000 C 
ATOM     34  C   UNL     1      -4.679  15.003  22.557  0.00  0.00    +0.000 C 
ENDBRANCH  27  28
ENDBRANCH   4  26
TORSDOF 5
ENDMDL
MODEL 6
REMARK VINA RESULT:      -7.0      2.101      2.973
REMARK  Name = 
REMARK  8 active torsions:
REMARK  status: ('A' for Active; 'I' for Inactive)
REMARK    1  A    between atoms: C_1  and  C_2
REMARK    2  A    between atoms: C_2  and  C_3
REMARK    3  A    between atoms: C_12  and  S_13
REMARK    4  A    between atoms: S_13  and  N_16
REMARK    5  A    between atoms: C_17  and  C_18
REMARK    6  A    between atoms: C_19  and  C_20
REMARK    7  A    between atoms: N_21  and  N_22
REMARK    8  A    between atoms: N_25  and  C_26
REMARK                            x       y       z     vdW  Elec       q    Type
REMARK                         _______ _______ _______ _____ _____    ______ ____
ROOT
ATOM      1  N   UNL     1      -0.735  12.555  19.827  0.00  0.00    +0.000 N 
ATOM      2  C   UNL     1       0.532  11.988  19.764  0.00  0.00    +0.000 A 
ATOM      3  C   UNL     1       1.782  12.498  20.402  0.00  0.00    +0.000 C 
ATOM      4  C   UNL     1       0.390  10.793  19.064  0.00  0.00    +0.000 A 
ATOM      5  C   UNL     1      -0.961  10.704  18.613  0.00  0.00    +0.000 A 
ATOM      6  C   UNL     1      -1.684   9.712  17.910  0.00  0.00    +0.000 A 
ATOM      7  C   UNL     1      -3.040   9.897  17.654  0.00  0.00    +0.000 A 
ATOM      8  C   UNL     1      -3.677  11.076  18.021  0.00  0.00    +0.000 A 
ATOM      9  C   UNL     1      -2.979  12.091  18.693  0.00  0.00    +0.000 A 
ATOM     10  C   UNL     1      -1.631  11.858  19.027  0.00  0.00    +0.000 A 
ENDROOT
BRANCH   1  11
ATOM     11  S   UNL     1      -1.201  13.952  20.700  0.00  0.00    +0.000 S 
ATOM     12  O   UNL     1      -1.811  14.758  19.657  0.00  0.00    +0.000 OA
ATOM     13  O   UNL     1      -0.045  14.416  21.446  0.00  0.00    +0.000 OA
BRANCH  11  23
ATOM     14  C   UNL     1      -2.268  12.479  22.882  0.00  0.00    +0.000 A 
ATOM     15  C   UNL     1      -3.336  12.181  23.750  0.00  0.00    +0.000 A 
ATOM     16  C   UNL     1      -4.487  12.958  23.781  0.00  0.00    +0.000 A 
ATOM     17  C   UNL     1      -4.601  14.092  22.982  0.00  0.00    +0.000 A 
ATOM     18  C   UNL     1      -5.731  14.911  23.149  0.00  0.00    +0.000 A 
ATOM     19  C   UNL     1      -5.885  16.085  22.421  0.00  0.00    +0.000 A 
ATOM     20  C   UNL     1      -4.909  16.449  21.513  0.00  0.00    +0.000 A 
ATOM     21  C   UNL     1      -3.782  15.638  21.339  0.00  0.00    +0.000 A 
ATOM     22  C   UNL     1      -3.579  14.421  22.052  0.00  0.00    +0.000 A 
ATOM     23  C   UNL     1      -2.432  13.545  21.958  0.00  0.00    +0.000 A 
BRANCH  14  25
ATOM     24  C   UNL     1      -1.069  10.278  22.659  0.00  0.00    +0.000 C 
ATOM     25  C   UNL     1      -0.996  11.712  23.173  0.00  0.00    +0.000 C 
ENDBRANCH  14  25
ENDBRANCH  11  23
ENDBRANCH   1  11
BRANCH   4  26
ATOM     26  C   UNL     1       1.390   9.760  18.879  0.00  0.00    +0.000 C 
ATOM     27  N   UNL     1       1.495   8.756  19.694  0.00  0.00    +0.000 NA
BRANCH  27  28
ATOM     28  N   UNL     1       2.383   7.842  19.232  0.00  0.00    +0.000 N 
ATOM     29  C   UNL     1       2.202   6.439  19.647  0.00  0.00    +0.000 C 
ATOM     30  C   UNL     1       3.507   5.663  19.365  0.00  0.00    +0.000 C 
ATOM     31  N   UNL     1       3.879   5.690  17.934  0.00  0.00    +0.000 NA
ATOM     32  C   UNL     1       5.168   5.037  17.721  0.00  0.00    +0.000 C 
ATOM     33  C   UNL     1       3.922   7.084  17.453  0.00  0.00    +0.000 C 
ATOM     34  C   UNL     1       2.630   7.853  17.772  0.00  0.00    +0.000 C 
ENDBRANCH  27  28
ENDBRANCH   4  26
TORSDOF 5
ENDMDL
MODEL 7
REMARK VINA RESULT:      -6.9      2.630      3.988
REMARK  Name = 
REMARK  8 active torsions:
REMARK  status: ('A' for Active; 'I' for Inactive)
REMARK    1  A    between atoms: C_1  and  C_2
REMARK    2  A    between atoms: C_2  and  C_3
REMARK    3  A    between atoms: C_12  and  S_13
REMARK    4  A    between atoms: S_13  and  N_16
REMARK    5  A    between atoms: C_17  and  C_18
REMARK    6  A    between atoms: C_19  and  C_20
REMARK    7  A    between atoms: N_21  and  N_22
REMARK    8  A    between atoms: N_25  and  C_26
REMARK                            x       y       z     vdW  Elec       q    Type
REMARK                         _______ _______ _______ _____ _____    ______ ____
ROOT
ATOM      1  N   UNL     1       0.485  11.027  19.658  0.00  0.00    +0.000 N 
ATOM      2  C   UNL     1       1.129   9.894  19.175  0.00  0.00    +0.000 A 
ATOM      3  C   UNL     1       1.776   9.724  17.839  0.00  0.00    +0.000 C 
ATOM      4  C   UNL     1       1.137   8.974  20.219  0.00  0.00    +0.000 A 
ATOM      5  C   UNL     1       0.392   9.530  21.302  0.00  0.00    +0.000 A 
ATOM      6  C   UNL     1       0.108   9.082  22.613  0.00  0.00    +0.000 A 
ATOM      7  C   UNL     1      -0.623   9.893  23.477  0.00  0.00    +0.000 A 
ATOM      8  C   UNL     1      -1.137  11.108  23.044  0.00  0.00    +0.000 A 
ATOM      9  C   UNL     1      -0.898  11.566  21.740  0.00  0.00    +0.000 A 
ATOM     10  C   UNL     1      -0.083  10.782  20.902  0.00  0.00    +0.000 A 
ENDROOT
BRANCH   1  11
ATOM     11  S   UNL     1       0.317  12.537  18.870  0.00  0.00    +0.000 S 
ATOM     12  O   UNL     1      -0.959  12.374  18.194  0.00  0.00    +0.000 OA
ATOM     13  O   UNL     1       1.543  12.794  18.136  0.00  0.00    +0.000 OA
BRANCH  11  23
ATOM     14  C   UNL     1      -1.024  14.502  20.424  0.00  0.00    +0.000 A 
ATOM     15  C   UNL     1      -0.985  15.611  21.289  0.00  0.00    +0.000 A 
ATOM     16  C   UNL     1       0.202  16.041  21.868  0.00  0.00    +0.000 A 
ATOM     17  C   UNL     1       1.392  15.353  21.645  0.00  0.00    +0.000 A 
ATOM     18  C   UNL     1       2.535  15.756  22.357  0.00  0.00    +0.000 A 
ATOM     19  C   UNL     1       3.743  15.083  22.222  0.00  0.00    +0.000 A 
ATOM     20  C   UNL     1       3.821  14.000  21.366  0.00  0.00    +0.000 A 
ATOM     21  C   UNL     1       2.688  13.595  20.651  0.00  0.00    +0.000 A 
ATOM     22  C   UNL     1       1.429  14.255  20.746  0.00  0.00    +0.000 A 
ATOM     23  C   UNL     1       0.205  13.881  20.071  0.00  0.00    +0.000 A 
BRANCH  14  25
ATOM     24  C   UNL     1      -3.400  14.323  21.234  0.00  0.00    +0.000 C 
ATOM     25  C   UNL     1      -2.419  14.004  20.111  0.00  0.00    +0.000 C 
ENDBRANCH  14  25
ENDBRANCH  11  23
ENDBRANCH   1  11
BRANCH   4  26
ATOM     26  C   UNL     1       1.837   7.706  20.266  0.00  0.00    +0.000 C 
ATOM     27  N   UNL     1       1.302   6.649  20.796  0.00  0.00    +0.000 NA
BRANCH  27  28
ATOM     28  N   UNL     1       2.070   5.553  20.579  0.00  0.00    +0.000 N 
ATOM     29  C   UNL     1       1.442   4.230  20.756  0.00  0.00    +0.000 C 
ATOM     30  C   UNL     1       2.552   3.162  20.868  0.00  0.00    +0.000 C 
ATOM     31  N   UNL     1       3.416   3.121  19.669  0.00  0.00    +0.000 NA
ATOM     32  C   UNL     1       4.514   2.175  19.852  0.00  0.00    +0.000 C 
ATOM     33  C   UNL     1       3.940   4.469  19.381  0.00  0.00    +0.000 C 
ATOM     34  C   UNL     1       2.828   5.527  19.308  0.00  0.00    +0.000 C 
ENDBRANCH  27  28
ENDBRANCH   4  26
TORSDOF 5
ENDMDL
MODEL 8
REMARK VINA RESULT:      -6.9      2.035      2.927
REMARK  Name = 
REMARK  8 active torsions:
REMARK  status: ('A' for Active; 'I' for Inactive)
REMARK    1  A    between atoms: C_1  and  C_2
REMARK    2  A    between atoms: C_2  and  C_3
REMARK    3  A    between atoms: C_12  and  S_13
REMARK    4  A    between atoms: S_13  and  N_16
REMARK    5  A    between atoms: C_17  and  C_18
REMARK    6  A    between atoms: C_19  and  C_20
REMARK    7  A    between atoms: N_21  and  N_22
REMARK    8  A    between atoms: N_25  and  C_26
REMARK                            x       y       z     vdW  Elec       q    Type
REMARK                         _______ _______ _______ _____ _____    ______ ____
ROOT
ATOM      1  N   UNL     1      -0.463  12.351  19.349  0.00  0.00    +0.000 N 
ATOM      2  C   UNL     1       0.751  11.724  19.090  0.00  0.00    +0.000 A 
ATOM      3  C   UNL     1       2.106  12.160  19.541  0.00  0.00    +0.000 C 
ATOM      4  C   UNL     1       0.446  10.553  18.402  0.00  0.00    +0.000 A 
ATOM      5  C   UNL     1      -0.960  10.539  18.157  0.00  0.00    +0.000 A 
ATOM      6  C   UNL     1      -1.829   9.599  17.556  0.00  0.00    +0.000 A 
ATOM      7  C   UNL     1      -3.196   9.854  17.508  0.00  0.00    +0.000 A 
ATOM      8  C   UNL     1      -3.711  11.054  17.981  0.00  0.00    +0.000 A 
ATOM      9  C   UNL     1      -2.870  12.019  18.556  0.00  0.00    +0.000 A 
ATOM     10  C   UNL     1      -1.502  11.715  18.682  0.00  0.00    +0.000 A 
ENDROOT
BRANCH   1  11
ATOM     11  S   UNL     1      -0.722  13.750  20.300  0.00  0.00    +0.000 S 
ATOM     12  O   UNL     1      -1.417  14.616  19.364  0.00  0.00    +0.000 OA
ATOM     13  O   UNL     1       0.549  14.128  20.891  0.00  0.00    +0.000 OA
BRANCH  11  23
ATOM     14  C   UNL     1      -1.684  12.192  22.473  0.00  0.00    +0.000 A 
ATOM     15  C   UNL     1      -2.640  11.957  23.479  0.00  0.00    +0.000 A 
ATOM     16  C   UNL     1      -3.614  12.896  23.792  0.00  0.00    +0.000 A 
ATOM     17  C   UNL     1      -3.646  14.130  23.146  0.00  0.00    +0.000 A 
ATOM     18  C   UNL     1      -4.571  15.089  23.592  0.00  0.00    +0.000 A 
ATOM     19  C   UNL     1      -4.623  16.358  23.028  0.00  0.00    +0.000 A 
ATOM     20  C   UNL     1      -3.750  16.678  22.004  0.00  0.00    +0.000 A 
ATOM     21  C   UNL     1      -2.828  15.727  21.553  0.00  0.00    +0.000 A 
ATOM     22  C   UNL     1      -2.739  14.411  22.090  0.00  0.00    +0.000 A 
ATOM     23  C   UNL     1      -1.796  13.383  21.706  0.00  0.00    +0.000 A 
BRANCH  14  25
ATOM     24  C   UNL     1      -0.864   9.947  23.262  0.00  0.00    +0.000 C 
ATOM     25  C   UNL     1      -0.541  11.200  22.455  0.00  0.00    +0.000 C 
ENDBRANCH  14  25
ENDBRANCH  11  23
ENDBRANCH   1  11
BRANCH   4  26
ATOM     26  C   UNL     1       1.354   9.477  18.056  0.00  0.00    +0.000 C 
ATOM     27  N   UNL     1       1.685   8.560  18.912  0.00  0.00    +0.000 NA
BRANCH  27  28
ATOM     28  N   UNL     1       2.407   7.577  18.320  0.00  0.00    +0.000 N 
ATOM     29  C   UNL     1       3.735   7.929  17.785  0.00  0.00    +0.000 C 
ATOM     30  C   UNL     1       4.195   6.817  16.818  0.00  0.00    +0.000 C 
ATOM     31  N   UNL     1       4.285   5.497  17.482  0.00  0.00    +0.000 NA
ATOM     32  C   UNL     1       4.621   4.454  16.517  0.00  0.00    +0.000 C 
ATOM     33  C   UNL     1       3.010   5.186  18.155  0.00  0.00    +0.000 C 
ATOM     34  C   UNL     1       2.548   6.318  19.086  0.00  0.00    +0.000 C 
ENDBRANCH  27  28
ENDBRANCH   4  26
TORSDOF 5
ENDMDL
MODEL 9
REMARK VINA RESULT:      -6.9      2.798      3.917
REMARK  Name = 
REMARK  8 active torsions:
REMARK  status: ('A' for Active; 'I' for Inactive)
REMARK    1  A    between atoms: C_1  and  C_2
REMARK    2  A    between atoms: C_2  and  C_3
REMARK    3  A    between atoms: C_12  and  S_13
REMARK    4  A    between atoms: S_13  and  N_16
REMARK    5  A    between atoms: C_17  and  C_18
REMARK    6  A    between atoms: C_19  and  C_20
REMARK    7  A    between atoms: N_21  and  N_22
REMARK    8  A    between atoms: N_25  and  C_26
REMARK                            x       y       z     vdW  Elec       q    Type
REMARK                         _______ _______ _______ _____ _____    ______ ____
ROOT
ATOM      1  N   UNL     1       0.647  11.720  19.606  0.00  0.00    +0.000 N 
ATOM      2  C   UNL     1       1.297  10.576  19.160  0.00  0.00    +0.000 A 
ATOM      3  C   UNL     1       2.099  10.422  17.909  0.00  0.00    +0.000 C 
ATOM      4  C   UNL     1       1.134   9.620  20.159  0.00  0.00    +0.000 A 
ATOM      5  C   UNL     1       0.283  10.173  21.163  0.00  0.00    +0.000 A 
ATOM      6  C   UNL     1      -0.182   9.693  22.409  0.00  0.00    +0.000 A 
ATOM      7  C   UNL     1      -0.980  10.507  23.208  0.00  0.00    +0.000 A 
ATOM      8  C   UNL     1      -1.383  11.759  22.765  0.00  0.00    +0.000 A 
ATOM      9  C   UNL     1      -0.963  12.251  21.520  0.00  0.00    +0.000 A 
ATOM     10  C   UNL     1      -0.083  11.459  20.759  0.00  0.00    +0.000 A 
ENDROOT
BRANCH   1  11
ATOM     11  S   UNL     1       0.644  13.264  18.865  0.00  0.00    +0.000 S 
ATOM     12  O   UNL     1      -0.712  13.339  18.350  0.00  0.00    +0.000 OA
ATOM     13  O   UNL     1       1.799  13.338  17.989  0.00  0.00    +0.000 OA
BRANCH  11  23
ATOM     14  C   UNL     1       1.855  14.458  21.142  0.00  0.00    +0.000 A 
ATOM     15  C   UNL     1       1.902  15.484  22.104  0.00  0.00    +0.000 A 
ATOM     16  C   UNL     1       1.118  16.624  21.990  0.00  0.00    +0.000 A 
ATOM     17  C   UNL     1       0.288  16.810  20.887  0.00  0.00    +0.000 A 
ATOM     18  C   UNL     1      -0.384  18.038  20.760  0.00  0.00    +0.000 A 
ATOM     19  C   UNL     1      -1.187  18.311  19.660  0.00  0.00    +0.000 A 
ATOM     20  C   UNL     1      -1.331  17.351  18.675  0.00  0.00    +0.000 A 
ATOM     21  C   UNL     1      -0.668  16.125  18.795  0.00  0.00    +0.000 A 
ATOM     22  C   UNL     1       0.160  15.792  19.906  0.00  0.00    +0.000 A 
ATOM     23  C   UNL     1       0.906  14.566  20.090  0.00  0.00    +0.000 A 
BRANCH  14  25
ATOM     24  C   UNL     1       4.309  14.088  21.561  0.00  0.00    +0.000 C 
ATOM     25  C   UNL     1       2.963  13.434  21.267  0.00  0.00    +0.000 C 
ENDBRANCH  14  25
ENDBRANCH  11  23
ENDBRANCH   1  11
BRANCH   4  26
ATOM     26  C   UNL     1       1.768   8.319  20.241  0.00  0.00    +0.000 C 
ATOM     27  N   UNL     1       1.146   7.285  20.718  0.00  0.00    +0.000 NA
BRANCH  27  28
ATOM     28  N   UNL     1       1.874   6.155  20.544  0.00  0.00    +0.000 N 
ATOM     29  C   UNL     1       1.158   4.866  20.574  0.00  0.00    +0.000 C 
ATOM     30  C   UNL     1       2.184   3.729  20.769  0.00  0.00    +0.000 C 
ATOM     31  N   UNL     1       3.190   3.688  19.686  0.00  0.00    +0.000 NA
ATOM     32  C   UNL     1       4.202   2.670  19.956  0.00  0.00    +0.000 C 
ATOM     33  C   UNL     1       3.819   5.013  19.534  0.00  0.00    +0.000 C 
ATOM     34  C   UNL     1       2.785   6.138  19.376  0.00  0.00    +0.000 C 
ENDBRANCH  27  28
ENDBRANCH   4  26
TORSDOF 5
ENDMDL
