MODEL 1
REMARK VINA RESULT:      -9.2      0.000      0.000
REMARK  Name = 
REMARK  7 active torsions:
REMARK  status: ('A' for Active; 'I' for Inactive)
REMARK    1  A    between atoms: C_1  and  N_2
REMARK    2  A    between atoms: N_2  and  C_3
REMARK    3  A    between atoms: N_2  and  C_4
REMARK    4  A    between atoms: C_9  and  C_10
REMARK    5  A    between atoms: C_16  and  C_17
REMARK    6  A    between atoms: C_20  and  C_21
REMARK    7  A    between atoms: C_24  and  C_25
REMARK                            x       y       z     vdW  Elec       q    Type
REMARK                         _______ _______ _______ _____ _____    ______ ____
ROOT
ATOM      1  C   UNL     1       4.329   5.482  18.039  0.00  0.00    +0.000 A 
ATOM      2  C   UNL     1       4.255   4.619  19.114  0.00  0.00    +0.000 A 
ATOM      3  N   UNL     1       3.322   4.424  20.081  0.00  0.00    +0.000 NA
ATOM      4  C   UNL     1       2.518   5.477  20.149  0.00  0.00    +0.000 A 
ATOM      5  N   UNL     1       1.580   5.645  21.116  0.00  0.00    +0.000 N 
ATOM      6  C   UNL     1       1.118   6.926  21.054  0.00  0.00    +0.000 A 
ATOM      7  C   UNL     1       1.705   7.536  19.954  0.00  0.00    +0.000 A 
ATOM      8  C   UNL     1       2.576   6.601  19.347  0.00  0.00    +0.000 A 
ATOM      9  C   UNL     1       3.450   6.567  18.228  0.00  0.00    +0.000 A 
ATOM     10  H   UNL     1       1.363   4.949  21.814  0.00  0.00    +0.000 HD
ENDROOT
BRANCH   1  16
ATOM     11  C   UNL     1       6.685   5.826  16.771  0.00  0.00    +0.000 A 
ATOM     12  C   UNL     1       7.369   5.397  15.578  0.00  0.00    +0.000 A 
ATOM     13  C   UNL     1       6.846   4.591  14.563  0.00  0.00    +0.000 A 
ATOM     14  C   UNL     1       5.564   4.131  14.683  0.00  0.00    +0.000 A 
ATOM     15  C   UNL     1       4.837   4.483  15.816  0.00  0.00    +0.000 A 
ATOM     16  C   UNL     1       5.321   5.316  16.898  0.00  0.00    +0.000 A 
BRANCH  11  18
ATOM     17  C   UNL     1       7.830   8.059  17.499  0.00  0.00    +0.000 C 
ATOM     18  N   UNL     1       7.450   6.662  17.622  0.00  0.00    +0.000 N 
ATOM     19  C   UNL     1       7.992   6.135  18.890  0.00  0.00    +0.000 C 
ENDBRANCH  11  18
ENDBRANCH   1  16
BRANCH   7  20
ATOM     20  C   UNL     1       1.417   8.891  19.568  0.00  0.00    +0.000 A 
ATOM     21  C   UNL     1       1.865   9.443  18.384  0.00  0.00    +0.000 A 
ATOM     22  C   UNL     1       1.484  10.733  18.020  0.00  0.00    +0.000 A 
ATOM     23  C   UNL     1       0.691  11.517  18.911  0.00  0.00    +0.000 A 
ATOM     24  C   UNL     1       0.288  10.976  20.147  0.00  0.00    +0.000 A 
ATOM     25  C   UNL     1       0.625   9.648  20.422  0.00  0.00    +0.000 A 
BRANCH  23  26
ATOM     26  C   UNL     1       0.279  12.867  18.445  0.00  0.00    +0.000 C 
ATOM     27  N   UNL     1      -0.829  12.949  17.646  0.00  0.00    +0.000 N 
ATOM     28  O   UNL     1       0.881  13.888  18.770  0.00  0.00    +0.000 OA
ATOM     29  H   UNL     1      -1.341  12.150  17.296  0.00  0.00    +0.000 HD
ATOM     30  H   UNL     1      -1.099  13.866  17.317  0.00  0.00    +0.000 HD
ENDBRANCH  23  26
BRANCH  24  31
ATOM     31  C   UNL     1      -0.447  11.721  21.241  0.00  0.00    +0.000 C 
ATOM     32  C   UNL     1      -1.888  12.089  20.881  0.00  0.00    +0.000 C 
ATOM     33  C   UNL     1      -2.519  12.400  22.231  0.00  0.00    +0.000 C 
ATOM     34  C   UNL     1      -1.791  11.528  23.253  0.00  0.00    +0.000 C 
ATOM     35  C   UNL     1      -0.627  10.877  22.516  0.00  0.00    +0.000 C 
ENDBRANCH  24  31
ENDBRANCH   7  20
TORSDOF 5
ENDMDL
MODEL 2
REMARK VINA RESULT:      -8.4      3.034      8.471
REMARK  Name = 
REMARK  7 active torsions:
REMARK  status: ('A' for Active; 'I' for Inactive)
REMARK    1  A    between atoms: C_1  and  N_2
REMARK    2  A    between atoms: N_2  and  C_3
REMARK    3  A    between atoms: N_2  and  C_4
REMARK    4  A    between atoms: C_9  and  C_10
REMARK    5  A    between atoms: C_16  and  C_17
REMARK    6  A    between atoms: C_20  and  C_21
REMARK    7  A    between atoms: C_24  and  C_25
REMARK                            x       y       z     vdW  Elec       q    Type
REMARK                         _______ _______ _______ _____ _____    ______ ____
ROOT
ATOM      1  C   UNL     1      -0.138  12.831  20.863  0.00  0.00    +0.000 A 
ATOM      2  C   UNL     1      -1.090  12.652  21.847  0.00  0.00    +0.000 A 
ATOM      3  N   UNL     1      -1.282  11.689  22.784  0.00  0.00    +0.000 NA
ATOM      4  C   UNL     1      -0.606  10.597  22.453  0.00  0.00    +0.000 A 
ATOM      5  N   UNL     1      -0.715   9.416  23.112  0.00  0.00    +0.000 N 
ATOM      6  C   UNL     1      -0.104   8.448  22.372  0.00  0.00    +0.000 A 
ATOM      7  C   UNL     1       0.494   9.063  21.280  0.00  0.00    +0.000 A 
ATOM      8  C   UNL     1       0.207  10.446  21.345  0.00  0.00    +0.000 A 
ATOM      9  C   UNL     1       0.500  11.607  20.581  0.00  0.00    +0.000 A 
ATOM     10  H   UNL     1      -1.258   9.291  23.954  0.00  0.00    +0.000 HD
ENDROOT
BRANCH   1  16
ATOM     11  C   UNL     1       1.219  14.599  19.344  0.00  0.00    +0.000 A 
ATOM     12  C   UNL     1       1.034  15.879  18.711  0.00  0.00    +0.000 A 
ATOM     13  C   UNL     1      -0.093  16.700  18.805  0.00  0.00    +0.000 A 
ATOM     14  C   UNL     1      -1.156  16.275  19.553  0.00  0.00    +0.000 A 
ATOM     15  C   UNL     1      -1.069  15.039  20.185  0.00  0.00    +0.000 A 
ATOM     16  C   UNL     1       0.071  14.146  20.128  0.00  0.00    +0.000 A 
BRANCH  11  18
ATOM     17  C   UNL     1       2.876  12.993  18.118  0.00  0.00    +0.000 C 
ATOM     18  N   UNL     1       2.474  13.992  19.095  0.00  0.00    +0.000 N 
ATOM     19  C   UNL     1       3.656  14.374  19.892  0.00  0.00    +0.000 C 
ENDBRANCH  11  18
ENDBRANCH   1  16
BRANCH   7  20
ATOM     20  C   UNL     1       1.258   8.340  20.300  0.00  0.00    +0.000 A 
ATOM     21  C   UNL     1       1.706   8.915  19.127  0.00  0.00    +0.000 A 
ATOM     22  C   UNL     1       2.516   8.193  18.253  0.00  0.00    +0.000 A 
ATOM     23  C   UNL     1       2.820   6.826  18.532  0.00  0.00    +0.000 A 
ATOM     24  C   UNL     1       2.309   6.221  19.696  0.00  0.00    +0.000 A 
ATOM     25  C   UNL     1       1.575   7.017  20.581  0.00  0.00    +0.000 A 
BRANCH  23  26
ATOM     26  C   UNL     1       3.726   6.124  17.586  0.00  0.00    +0.000 C 
ATOM     27  N   UNL     1       4.905   6.740  17.265  0.00  0.00    +0.000 N 
ATOM     28  O   UNL     1       3.458   5.021  17.113  0.00  0.00    +0.000 OA
ATOM     29  H   UNL     1       5.166   7.667  17.573  0.00  0.00    +0.000 HD
ATOM     30  H   UNL     1       5.513   6.269  16.610  0.00  0.00    +0.000 HD
ENDBRANCH  23  26
BRANCH  24  31
ATOM     31  C   UNL     1       2.442   4.759  20.065  0.00  0.00    +0.000 C 
ATOM     32  C   UNL     1       2.319   4.482  21.564  0.00  0.00    +0.000 C 
ATOM     33  C   UNL     1       2.042   2.986  21.625  0.00  0.00    +0.000 C 
ATOM     34  C   UNL     1       1.289   2.640  20.341  0.00  0.00    +0.000 C 
ATOM     35  C   UNL     1       1.315   3.892  19.472  0.00  0.00    +0.000 C 
ENDBRANCH  24  31
ENDBRANCH   7  20
TORSDOF 5
ENDMDL
MODEL 3
REMARK VINA RESULT:      -8.4      2.882      9.783
REMARK  Name = 
REMARK  7 active torsions:
REMARK  status: ('A' for Active; 'I' for Inactive)
REMARK    1  A    between atoms: C_1  and  N_2
REMARK    2  A    between atoms: N_2  and  C_3
REMARK    3  A    between atoms: N_2  and  C_4
REMARK    4  A    between atoms: C_9  and  C_10
REMARK    5  A    between atoms: C_16  and  C_17
REMARK    6  A    between atoms: C_20  and  C_21
REMARK    7  A    between atoms: C_24  and  C_25
REMARK                            x       y       z     vdW  Elec       q    Type
REMARK                         _______ _______ _______ _____ _____    ______ ____
ROOT
ATOM      1  C   UNL     1      -1.628  12.105  19.397  0.00  0.00    +0.000 A 
ATOM      2  C   UNL     1      -0.844  13.135  18.919  0.00  0.00    +0.000 A 
ATOM      3  N   UNL     1       0.297  13.165  18.185  0.00  0.00    +0.000 NA
ATOM      4  C   UNL     1       0.894  11.981  18.231  0.00  0.00    +0.000 A 
ATOM      5  N   UNL     1       2.128  11.740  17.720  0.00  0.00    +0.000 N 
ATOM      6  C   UNL     1       2.549  10.520  18.159  0.00  0.00    +0.000 A 
ATOM      7  C   UNL     1       1.505   9.943  18.871  0.00  0.00    +0.000 A 
ATOM      8  C   UNL     1       0.429  10.859  18.890  0.00  0.00    +0.000 A 
ATOM      9  C   UNL     1      -0.889  10.905  19.419  0.00  0.00    +0.000 A 
ATOM     10  H   UNL     1       2.660  12.418  17.194  0.00  0.00    +0.000 HD
ENDROOT
BRANCH   1  16
ATOM     11  C   UNL     1      -4.322  12.123  19.252  0.00  0.00    +0.000 A 
ATOM     12  C   UNL     1      -5.471  12.319  20.098  0.00  0.00    +0.000 A 
ATOM     13  C   UNL     1      -5.459  12.677  21.449  0.00  0.00    +0.000 A 
ATOM     14  C   UNL     1      -4.254  12.856  22.071  0.00  0.00    +0.000 A 
ATOM     15  C   UNL     1      -3.092  12.670  21.330  0.00  0.00    +0.000 A 
ATOM     16  C   UNL     1      -3.039  12.302  19.930  0.00  0.00    +0.000 A 
BRANCH  11  18
ATOM     17  C   UNL     1      -3.966  10.888  16.977  0.00  0.00    +0.000 C 
ATOM     18  N   UNL     1      -4.627  11.785  17.910  0.00  0.00    +0.000 N 
ATOM     19  C   UNL     1      -5.807  12.371  17.246  0.00  0.00    +0.000 C 
ENDBRANCH  11  18
ENDBRANCH   1  16
BRANCH   7  20
ATOM     20  C   UNL     1       1.592   8.631  19.454  0.00  0.00    +0.000 A 
ATOM     21  C   UNL     1       0.930   8.283  20.615  0.00  0.00    +0.000 A 
ATOM     22  C   UNL     1       0.980   6.974  21.089  0.00  0.00    +0.000 A 
ATOM     23  C   UNL     1       1.783   6.005  20.415  0.00  0.00    +0.000 A 
ATOM     24  C   UNL     1       2.510   6.377  19.268  0.00  0.00    +0.000 A 
ATOM     25  C   UNL     1       2.354   7.681  18.787  0.00  0.00    +0.000 A 
BRANCH  23  26
ATOM     26  C   UNL     1       1.758   4.616  20.942  0.00  0.00    +0.000 C 
ATOM     27  N   UNL     1       0.760   3.791  20.500  0.00  0.00    +0.000 N 
ATOM     28  O   UNL     1       2.605   4.194  21.728  0.00  0.00    +0.000 OA
ATOM     29  H   UNL     1       0.003   4.083  19.898  0.00  0.00    +0.000 HD
ATOM     30  H   UNL     1       0.735   2.851  20.872  0.00  0.00    +0.000 HD
ENDBRANCH  23  26
BRANCH  24  31
ATOM     31  C   UNL     1       3.493   5.502  18.521  0.00  0.00    +0.000 C 
ATOM     32  C   UNL     1       2.834   4.476  17.597  0.00  0.00    +0.000 C 
ATOM     33  C   UNL     1       3.967   4.058  16.670  0.00  0.00    +0.000 C 
ATOM     34  C   UNL     1       4.886   5.272  16.546  0.00  0.00    +0.000 C 
ATOM     35  C   UNL     1       4.384   6.301  17.551  0.00  0.00    +0.000 C 
ENDBRANCH  24  31
ENDBRANCH   7  20
TORSDOF 5
ENDMDL
MODEL 4
REMARK VINA RESULT:      -8.3      3.130      8.657
REMARK  Name = 
REMARK  7 active torsions:
REMARK  status: ('A' for Active; 'I' for Inactive)
REMARK    1  A    between atoms: C_1  and  N_2
REMARK    2  A    between atoms: N_2  and  C_3
REMARK    3  A    between atoms: N_2  and  C_4
REMARK    4  A    between atoms: C_9  and  C_10
REMARK    5  A    between atoms: C_16  and  C_17
REMARK    6  A    between atoms: C_20  and  C_21
REMARK    7  A    between atoms: C_24  and  C_25
REMARK                            x       y       z     vdW  Elec       q    Type
REMARK                         _______ _______ _______ _____ _____    ______ ____
ROOT
ATOM      1  C   UNL     1       0.917  12.964  20.112  0.00  0.00    +0.000 A 
ATOM      2  C   UNL     1      -0.196  12.970  20.929  0.00  0.00    +0.000 A 
ATOM      3  N   UNL     1      -0.698  12.073  21.815  0.00  0.00    +0.000 NA
ATOM      4  C   UNL     1      -0.175  10.875  21.588  0.00  0.00    +0.000 A 
ATOM      5  N   UNL     1      -0.589   9.743  22.212  0.00  0.00    +0.000 N 
ATOM      6  C   UNL     1      -0.043   8.670  21.573  0.00  0.00    +0.000 A 
ATOM      7  C   UNL     1       0.819   9.153  20.597  0.00  0.00    +0.000 A 
ATOM      8  C   UNL     1       0.767  10.565  20.625  0.00  0.00    +0.000 A 
ATOM      9  C   UNL     1       1.373  11.644  19.927  0.00  0.00    +0.000 A 
ATOM     10  H   UNL     1      -1.273   9.730  22.955  0.00  0.00    +0.000 HD
ENDROOT
BRANCH   1  16
ATOM     11  C   UNL     1       1.083  15.609  19.611  0.00  0.00    +0.000 A 
ATOM     12  C   UNL     1       1.879  16.540  18.854  0.00  0.00    +0.000 A 
ATOM     13  C   UNL     1       2.921  16.225  17.978  0.00  0.00    +0.000 A 
ATOM     14  C   UNL     1       3.259  14.912  17.803  0.00  0.00    +0.000 A 
ATOM     15  C   UNL     1       2.552  13.946  18.511  0.00  0.00    +0.000 A 
ATOM     16  C   UNL     1       1.463  14.209  19.430  0.00  0.00    +0.000 A 
BRANCH  11  18
ATOM     17  C   UNL     1       0.088  16.657  21.788  0.00  0.00    +0.000 C 
ATOM     18  N   UNL     1       0.074  16.205  20.407  0.00  0.00    +0.000 N 
ATOM     19  C   UNL     1      -1.259  16.478  19.836  0.00  0.00    +0.000 C 
ENDBRANCH  11  18
ENDBRANCH   1  16
BRANCH   7  20
ATOM     20  C   UNL     1       1.595   8.290  19.747  0.00  0.00    +0.000 A 
ATOM     21  C   UNL     1       2.169   8.721  18.567  0.00  0.00    +0.000 A 
ATOM     22  C   UNL     1       2.982   7.866  17.827  0.00  0.00    +0.000 A 
ATOM     23  C   UNL     1       3.161   6.514  18.248  0.00  0.00    +0.000 A 
ATOM     24  C   UNL     1       2.522   6.056  19.416  0.00  0.00    +0.000 A 
ATOM     25  C   UNL     1       1.789   6.980  20.167  0.00  0.00    +0.000 A 
BRANCH  23  26
ATOM     26  C   UNL     1       4.076   5.666  17.441  0.00  0.00    +0.000 C 
ATOM     27  N   UNL     1       5.405   5.993  17.441  0.00  0.00    +0.000 N 
ATOM     28  O   UNL     1       3.682   4.688  16.807  0.00  0.00    +0.000 OA
ATOM     29  H   UNL     1       5.791   6.810  17.894  0.00  0.00    +0.000 HD
ATOM     30  H   UNL     1       6.024   5.425  16.879  0.00  0.00    +0.000 HD
ENDBRANCH  23  26
BRANCH  24  31
ATOM     31  C   UNL     1       2.516   4.629  19.921  0.00  0.00    +0.000 C 
ATOM     32  C   UNL     1       2.226   4.500  21.417  0.00  0.00    +0.000 C 
ATOM     33  C   UNL     1       1.841   3.036  21.576  0.00  0.00    +0.000 C 
ATOM     34  C   UNL     1       1.198   2.618  20.255  0.00  0.00    +0.000 C 
ATOM     35  C   UNL     1       1.397   3.780  19.289  0.00  0.00    +0.000 C 
ENDBRANCH  24  31
ENDBRANCH   7  20
TORSDOF 5
ENDMDL
MODEL 5
REMARK VINA RESULT:      -8.3      3.324      8.505
REMARK  Name = 
REMARK  7 active torsions:
REMARK  status: ('A' for Active; 'I' for Inactive)
REMARK    1  A    between atoms: C_1  and  N_2
REMARK    2  A    between atoms: N_2  and  C_3
REMARK    3  A    between atoms: N_2  and  C_4
REMARK    4  A    between atoms: C_9  and  C_10
REMARK    5  A    between atoms: C_16  and  C_17
REMARK    6  A    between atoms: C_20  and  C_21
REMARK    7  A    between atoms: C_24  and  C_25
REMARK                            x       y       z     vdW  Elec       q    Type
REMARK                         _______ _______ _______ _____ _____    ______ ____
ROOT
ATOM      1  C   UNL     1       0.452  12.926  21.121  0.00  0.00    +0.000 A 
ATOM      2  C   UNL     1      -0.540  12.803  22.073  0.00  0.00    +0.000 A 
ATOM      3  N   UNL     1      -0.862  11.819  22.952  0.00  0.00    +0.000 NA
ATOM      4  C   UNL     1      -0.300  10.678  22.576  0.00  0.00    +0.000 A 
ATOM      5  N   UNL     1      -0.556   9.483  23.167  0.00  0.00    +0.000 N 
ATOM      6  C   UNL     1      -0.034   8.494  22.388  0.00  0.00    +0.000 A 
ATOM      7  C   UNL     1       0.658   9.095  21.345  0.00  0.00    +0.000 A 
ATOM      8  C   UNL     1       0.522  10.496  21.480  0.00  0.00    +0.000 A 
ATOM      9  C   UNL     1       0.961  11.656  20.786  0.00  0.00    +0.000 A 
ATOM     10  H   UNL     1      -1.132   9.376  23.989  0.00  0.00    +0.000 HD
ENDROOT
BRANCH   1  16
ATOM     11  C   UNL     1       1.993  15.097  20.684  0.00  0.00    +0.000 A 
ATOM     12  C   UNL     1       2.063  16.243  19.814  0.00  0.00    +0.000 A 
ATOM     13  C   UNL     1       1.130  16.605  18.838  0.00  0.00    +0.000 A 
ATOM     14  C   UNL     1       0.033  15.812  18.649  0.00  0.00    +0.000 A 
ATOM     15  C   UNL     1      -0.104  14.673  19.437  0.00  0.00    +0.000 A 
ATOM     16  C   UNL     1       0.824  14.246  20.463  0.00  0.00    +0.000 A 
BRANCH  11  18
ATOM     17  C   UNL     1       4.191  14.062  21.644  0.00  0.00    +0.000 C 
ATOM     18  N   UNL     1       3.068  14.983  21.599  0.00  0.00    +0.000 N 
ATOM     19  C   UNL     1       3.181  15.920  22.734  0.00  0.00    +0.000 C 
ENDBRANCH  11  18
ENDBRANCH   1  16
BRANCH   7  20
ATOM     20  C   UNL     1       1.366   8.343  20.344  0.00  0.00    +0.000 A 
ATOM     21  C   UNL     1       1.802   8.902  19.159  0.00  0.00    +0.000 A 
ATOM     22  C   UNL     1       2.558   8.150  18.262  0.00  0.00    +0.000 A 
ATOM     23  C   UNL     1       2.817   6.772  18.533  0.00  0.00    +0.000 A 
ATOM     24  C   UNL     1       2.316   6.186  19.711  0.00  0.00    +0.000 A 
ATOM     25  C   UNL     1       1.639   7.009  20.616  0.00  0.00    +0.000 A 
BRANCH  23  26
ATOM     26  C   UNL     1       3.668   6.036  17.562  0.00  0.00    +0.000 C 
ATOM     27  N   UNL     1       4.841   6.626  17.176  0.00  0.00    +0.000 N 
ATOM     28  O   UNL     1       3.361   4.929  17.124  0.00  0.00    +0.000 OA
ATOM     29  H   UNL     1       5.130   7.554  17.452  0.00  0.00    +0.000 HD
ATOM     30  H   UNL     1       5.411   6.132  16.503  0.00  0.00    +0.000 HD
ENDBRANCH  23  26
BRANCH  24  31
ATOM     31  C   UNL     1       2.403   4.719  20.076  0.00  0.00    +0.000 C 
ATOM     32  C   UNL     1       2.352   4.450  21.580  0.00  0.00    +0.000 C 
ATOM     33  C   UNL     1       2.011   2.968  21.662  0.00  0.00    +0.000 C 
ATOM     34  C   UNL     1       1.173   2.656  20.423  0.00  0.00    +0.000 C 
ATOM     35  C   UNL     1       1.206   3.904  19.550  0.00  0.00    +0.000 C 
ENDBRANCH  24  31
ENDBRANCH   7  20
TORSDOF 5
ENDMDL
MODEL 6
REMARK VINA RESULT:      -8.3      3.529      8.870
REMARK  Name = 
REMARK  7 active torsions:
REMARK  status: ('A' for Active; 'I' for Inactive)
REMARK    1  A    between atoms: C_1  and  N_2
REMARK    2  A    between atoms: N_2  and  C_3
REMARK    3  A    between atoms: N_2  and  C_4
REMARK    4  A    between atoms: C_9  and  C_10
REMARK    5  A    between atoms: C_16  and  C_17
REMARK    6  A    between atoms: C_20  and  C_21
REMARK    7  A    between atoms: C_24  and  C_25
REMARK                            x       y       z     vdW  Elec       q    Type
REMARK                         _______ _______ _______ _____ _____    ______ ____
ROOT
ATOM      1  C   UNL     1      -1.622  10.450  18.736  0.00  0.00    +0.000 A 
ATOM      2  C   UNL     1      -1.806  10.916  20.022  0.00  0.00    +0.000 A 
ATOM      3  N   UNL     1      -0.971  11.060  21.082  0.00  0.00    +0.000 NA
ATOM      4  C   UNL     1       0.116  10.320  20.903  0.00  0.00    +0.000 A 
ATOM      5  N   UNL     1       1.067  10.139  21.855  0.00  0.00    +0.000 N 
ATOM      6  C   UNL     1       1.895   9.133  21.454  0.00  0.00    +0.000 A 
ATOM      7  C   UNL     1       1.514   8.756  20.173  0.00  0.00    +0.000 A 
ATOM      8  C   UNL     1       0.397   9.538  19.799  0.00  0.00    +0.000 A 
ATOM      9  C   UNL     1      -0.454   9.665  18.669  0.00  0.00    +0.000 A 
ATOM     10  H   UNL     1       1.067  10.613  22.746  0.00  0.00    +0.000 HD
ENDROOT
BRANCH   1  16
ATOM     11  C   UNL     1      -3.960  11.260  17.664  0.00  0.00    +0.000 A 
ATOM     12  C   UNL     1      -4.600  11.389  16.380  0.00  0.00    +0.000 A 
ATOM     13  C   UNL     1      -4.079  10.987  15.147  0.00  0.00    +0.000 A 
ATOM     14  C   UNL     1      -2.834  10.422  15.111  0.00  0.00    +0.000 A 
ATOM     15  C   UNL     1      -2.138  10.276  16.306  0.00  0.00    +0.000 A 
ATOM     16  C   UNL     1      -2.624  10.669  17.613  0.00  0.00    +0.000 A 
BRANCH  11  18
ATOM     17  C   UNL     1      -4.464  12.778  19.730  0.00  0.00    +0.000 C 
ATOM     18  N   UNL     1      -4.729  11.733  18.756  0.00  0.00    +0.000 N 
ATOM     19  C   UNL     1      -6.054  11.148  19.041  0.00  0.00    +0.000 C 
ENDBRANCH  11  18
ENDBRANCH   1  16
BRANCH   7  20
ATOM     20  C   UNL     1       2.198   7.734  19.426  0.00  0.00    +0.000 A 
ATOM     21  C   UNL     1       2.866   7.992  18.245  0.00  0.00    +0.000 A 
ATOM     22  C   UNL     1       3.584   6.982  17.608  0.00  0.00    +0.000 A 
ATOM     23  C   UNL     1       3.565   5.656  18.135  0.00  0.00    +0.000 A 
ATOM     24  C   UNL     1       2.829   5.380  19.303  0.00  0.00    +0.000 A 
ATOM     25  C   UNL     1       2.200   6.448  19.949  0.00  0.00    +0.000 A 
BRANCH  23  26
ATOM     26  C   UNL     1       4.388   4.635  17.436  0.00  0.00    +0.000 C 
ATOM     27  N   UNL     1       5.572   4.271  18.018  0.00  0.00    +0.000 N 
ATOM     28  O   UNL     1       4.028   4.105  16.386  0.00  0.00    +0.000 OA
ATOM     29  H   UNL     1       5.954   4.700  18.849  0.00  0.00    +0.000 HD
ATOM     30  H   UNL     1       6.138   3.588  17.533  0.00  0.00    +0.000 HD
ENDBRANCH  23  26
BRANCH  24  31
ATOM     31  C   UNL     1       2.615   4.010  19.911  0.00  0.00    +0.000 C 
ATOM     32  C   UNL     1       2.167   4.042  21.372  0.00  0.00    +0.000 C 
ATOM     33  C   UNL     1       1.607   2.644  21.600  0.00  0.00    +0.000 C 
ATOM     34  C   UNL     1       1.055   2.182  20.253  0.00  0.00    +0.000 C 
ATOM     35  C   UNL     1       1.475   3.229  19.229  0.00  0.00    +0.000 C 
ENDBRANCH  24  31
ENDBRANCH   7  20
TORSDOF 5
ENDMDL
MODEL 7
REMARK VINA RESULT:      -8.2      3.338      9.039
REMARK  Name = 
REMARK  7 active torsions:
REMARK  status: ('A' for Active; 'I' for Inactive)
REMARK    1  A    between atoms: C_1  and  N_2
REMARK    2  A    between atoms: N_2  and  C_3
REMARK    3  A    between atoms: N_2  and  C_4
REMARK    4  A    between atoms: C_9  and  C_10
REMARK    5  A    between atoms: C_16  and  C_17
REMARK    6  A    between atoms: C_20  and  C_21
REMARK    7  A    between atoms: C_24  and  C_25
REMARK                            x       y       z     vdW  Elec       q    Type
REMARK                         _______ _______ _______ _____ _____    ______ ____
ROOT
ATOM      1  C   UNL     1      -1.409  10.425  19.111  0.00  0.00    +0.000 A 
ATOM      2  C   UNL     1      -1.353  11.218  20.240  0.00  0.00    +0.000 A 
ATOM      3  N   UNL     1      -0.424  11.370  21.218  0.00  0.00    +0.000 NA
ATOM      4  C   UNL     1       0.404  10.333  21.217  0.00  0.00    +0.000 A 
ATOM      5  N   UNL     1       1.347  10.124  22.171  0.00  0.00    +0.000 N 
ATOM      6  C   UNL     1       1.837   8.860  22.027  0.00  0.00    +0.000 A 
ATOM      7  C   UNL     1       1.262   8.311  20.888  0.00  0.00    +0.000 A 
ATOM      8  C   UNL     1       0.371   9.263  20.344  0.00  0.00    +0.000 A 
ATOM      9  C   UNL     1      -0.506   9.350  19.229  0.00  0.00    +0.000 A 
ATOM     10  H   UNL     1       1.549  10.777  22.914  0.00  0.00    +0.000 HD
ENDROOT
BRANCH   1  16
ATOM     11  C   UNL     1      -3.699  11.325  18.004  0.00  0.00    +0.000 A 
ATOM     12  C   UNL     1      -4.340  11.419  16.718  0.00  0.00    +0.000 A 
ATOM     13  C   UNL     1      -3.859  10.908  15.509  0.00  0.00    +0.000 A 
ATOM     14  C   UNL     1      -2.656  10.259  15.501  0.00  0.00    +0.000 A 
ATOM     15  C   UNL     1      -1.960  10.140  16.699  0.00  0.00    +0.000 A 
ATOM     16  C   UNL     1      -2.405  10.643  17.982  0.00  0.00    +0.000 A 
BRANCH  11  18
ATOM     17  C   UNL     1      -4.040  12.922  20.043  0.00  0.00    +0.000 C 
ATOM     18  N   UNL     1      -4.423  11.914  19.070  0.00  0.00    +0.000 N 
ATOM     19  C   UNL     1      -5.825  11.526  19.320  0.00  0.00    +0.000 C 
ENDBRANCH  11  18
ENDBRANCH   1  16
BRANCH   7  20
ATOM     20  C   UNL     1       1.581   6.990  20.414  0.00  0.00    +0.000 A 
ATOM     21  C   UNL     1       0.953   5.855  20.887  0.00  0.00    +0.000 A 
ATOM     22  C   UNL     1       1.240   4.609  20.332  0.00  0.00    +0.000 A 
ATOM     23  C   UNL     1       2.243   4.495  19.323  0.00  0.00    +0.000 A 
ATOM     24  C   UNL     1       2.929   5.645  18.888  0.00  0.00    +0.000 A 
ATOM     25  C   UNL     1       2.540   6.880  19.416  0.00  0.00    +0.000 A 
BRANCH  23  26
ATOM     26  C   UNL     1       2.469   3.148  18.739  0.00  0.00    +0.000 C 
ATOM     27  N   UNL     1       3.269   2.283  19.436  0.00  0.00    +0.000 N 
ATOM     28  O   UNL     1       1.951   2.792  17.682  0.00  0.00    +0.000 OA
ATOM     29  H   UNL     1       3.769   2.524  20.280  0.00  0.00    +0.000 HD
ATOM     30  H   UNL     1       3.435   1.373  19.029  0.00  0.00    +0.000 HD
ENDBRANCH  23  26
BRANCH  24  31
ATOM     31  C   UNL     1       4.093   5.668  17.921  0.00  0.00    +0.000 C 
ATOM     32  C   UNL     1       4.369   7.044  17.313  0.00  0.00    +0.000 C 
ATOM     33  C   UNL     1       5.784   6.911  16.766  0.00  0.00    +0.000 C 
ATOM     34  C   UNL     1       6.496   5.905  17.669  0.00  0.00    +0.000 C 
ATOM     35  C   UNL     1       5.434   5.327  18.597  0.00  0.00    +0.000 C 
ENDBRANCH  24  31
ENDBRANCH   7  20
TORSDOF 5
ENDMDL
MODEL 8
REMARK VINA RESULT:      -8.2      2.816      9.842
REMARK  Name = 
REMARK  7 active torsions:
REMARK  status: ('A' for Active; 'I' for Inactive)
REMARK    1  A    between atoms: C_1  and  N_2
REMARK    2  A    between atoms: N_2  and  C_3
REMARK    3  A    between atoms: N_2  and  C_4
REMARK    4  A    between atoms: C_9  and  C_10
REMARK    5  A    between atoms: C_16  and  C_17
REMARK    6  A    between atoms: C_20  and  C_21
REMARK    7  A    between atoms: C_24  and  C_25
REMARK                            x       y       z     vdW  Elec       q    Type
REMARK                         _______ _______ _______ _____ _____    ______ ____
ROOT
ATOM      1  C   UNL     1      -1.064  12.109  20.286  0.00  0.00    +0.000 A 
ATOM      2  C   UNL     1      -0.319  13.053  19.610  0.00  0.00    +0.000 A 
ATOM      3  N   UNL     1       0.594  12.968  18.609  0.00  0.00    +0.000 NA
ATOM      4  C   UNL     1       1.048  11.725  18.519  0.00  0.00    +0.000 A 
ATOM      5  N   UNL     1       2.077  11.357  17.714  0.00  0.00    +0.000 N 
ATOM      6  C   UNL     1       2.459  10.092  18.049  0.00  0.00    +0.000 A 
ATOM      7  C   UNL     1       1.575   9.623  19.011  0.00  0.00    +0.000 A 
ATOM      8  C   UNL     1       0.646  10.651  19.290  0.00  0.00    +0.000 A 
ATOM      9  C   UNL     1      -0.481  10.835  20.137  0.00  0.00    +0.000 A 
ATOM     10  H   UNL     1       2.530  11.980  17.061  0.00  0.00    +0.000 HD
ENDROOT
BRANCH   1  16
ATOM     11  C   UNL     1      -3.675  12.553  20.797  0.00  0.00    +0.000 A 
ATOM     12  C   UNL     1      -4.552  12.818  21.909  0.00  0.00    +0.000 A 
ATOM     13  C   UNL     1      -4.175  13.005  23.241  0.00  0.00    +0.000 A 
ATOM     14  C   UNL     1      -2.849  12.925  23.567  0.00  0.00    +0.000 A 
ATOM     15  C   UNL     1      -1.934  12.654  22.555  0.00  0.00    +0.000 A 
ATOM     16  C   UNL     1      -2.262  12.453  21.158  0.00  0.00    +0.000 A 
BRANCH  11  18
ATOM     17  C   UNL     1      -3.936  11.739  18.329  0.00  0.00    +0.000 C 
ATOM     18  N   UNL     1      -4.328  12.428  19.546  0.00  0.00    +0.000 N 
ATOM     19  C   UNL     1      -5.649  13.049  19.332  0.00  0.00    +0.000 C 
ENDBRANCH  11  18
ENDBRANCH   1  16
BRANCH   7  20
ATOM     20  C   UNL     1       1.662   8.301  19.571  0.00  0.00    +0.000 A 
ATOM     21  C   UNL     1       0.994   7.931  20.722  0.00  0.00    +0.000 A 
ATOM     22  C   UNL     1       1.045   6.614  21.172  0.00  0.00    +0.000 A 
ATOM     23  C   UNL     1       1.855   5.659  20.486  0.00  0.00    +0.000 A 
ATOM     24  C   UNL     1       2.587   6.053  19.350  0.00  0.00    +0.000 A 
ATOM     25  C   UNL     1       2.430   7.365  18.891  0.00  0.00    +0.000 A 
BRANCH  23  26
ATOM     26  C   UNL     1       1.831   4.261  20.988  0.00  0.00    +0.000 C 
ATOM     27  N   UNL     1       0.857   3.431  20.502  0.00  0.00    +0.000 N 
ATOM     28  O   UNL     1       2.658   3.835  21.793  0.00  0.00    +0.000 OA
ATOM     29  H   UNL     1       0.115   3.725  19.881  0.00  0.00    +0.000 HD
ATOM     30  H   UNL     1       0.832   2.485  20.856  0.00  0.00    +0.000 HD
ENDBRANCH  23  26
BRANCH  24  31
ATOM     31  C   UNL     1       3.576   5.194  18.592  0.00  0.00    +0.000 C 
ATOM     32  C   UNL     1       2.931   4.265  17.563  0.00  0.00    +0.000 C 
ATOM     33  C   UNL     1       4.097   3.867  16.668  0.00  0.00    +0.000 C 
ATOM     34  C   UNL     1       5.066   5.048  16.682  0.00  0.00    +0.000 C 
ATOM     35  C   UNL     1       4.548   6.023  17.732  0.00  0.00    +0.000 C 
ENDBRANCH  24  31
ENDBRANCH   7  20
TORSDOF 5
ENDMDL
MODEL 9
REMARK VINA RESULT:      -8.1      2.708      9.884
REMARK  Name = 
REMARK  7 active torsions:
REMARK  status: ('A' for Active; 'I' for Inactive)
REMARK    1  A    between atoms: C_1  and  N_2
REMARK    2  A    between atoms: N_2  and  C_3
REMARK    3  A    between atoms: N_2  and  C_4
REMARK    4  A    between atoms: C_9  and  C_10
REMARK    5  A    between atoms: C_16  and  C_17
REMARK    6  A    between atoms: C_20  and  C_21
REMARK    7  A    between atoms: C_24  and  C_25
REMARK                            x       y       z     vdW  Elec       q    Type
REMARK                         _______ _______ _______ _____ _____    ______ ____
ROOT
ATOM      1  C   UNL     1      -1.837  12.410  19.581  0.00  0.00    +0.000 A 
ATOM      2  C   UNL     1      -1.110  13.519  19.195  0.00  0.00    +0.000 A 
ATOM      3  N   UNL     1       0.021  13.673  18.461  0.00  0.00    +0.000 NA
ATOM      4  C   UNL     1       0.676  12.522  18.395  0.00  0.00    +0.000 A 
ATOM      5  N   UNL     1       1.915  12.392  17.857  0.00  0.00    +0.000 N 
ATOM      6  C   UNL     1       2.401  11.160  18.180  0.00  0.00    +0.000 A 
ATOM      7  C   UNL     1       1.396  10.468  18.842  0.00  0.00    +0.000 A 
ATOM      8  C   UNL     1       0.274  11.322  18.951  0.00  0.00    +0.000 A 
ATOM      9  C   UNL     1      -1.039  11.253  19.489  0.00  0.00    +0.000 A 
ATOM     10  H   UNL     1       2.408  13.141  17.393  0.00  0.00    +0.000 HD
ENDROOT
BRANCH   1  16
ATOM     11  C   UNL     1      -4.526  12.233  19.471  0.00  0.00    +0.000 A 
ATOM     12  C   UNL     1      -5.674  12.317  20.337  0.00  0.00    +0.000 A 
ATOM     13  C   UNL     1      -5.668  12.634  21.698  0.00  0.00    +0.000 A 
ATOM     14  C   UNL     1      -4.471  12.884  22.310  0.00  0.00    +0.000 A 
ATOM     15  C   UNL     1      -3.309  12.807  21.549  0.00  0.00    +0.000 A 
ATOM     16  C   UNL     1      -3.250  12.486  20.138  0.00  0.00    +0.000 A 
BRANCH  11  18
ATOM     17  C   UNL     1      -4.186  10.998  17.194  0.00  0.00    +0.000 C 
ATOM     18  N   UNL     1      -4.825  11.913  18.123  0.00  0.00    +0.000 N 
ATOM     19  C   UNL     1      -5.974  12.545  17.447  0.00  0.00    +0.000 C 
ENDBRANCH  11  18
ENDBRANCH   1  16
BRANCH   7  20
ATOM     20  C   UNL     1       1.554   9.114  19.302  0.00  0.00    +0.000 A 
ATOM     21  C   UNL     1       1.001   8.655  20.481  0.00  0.00    +0.000 A 
ATOM     22  C   UNL     1       1.113   7.313  20.836  0.00  0.00    +0.000 A 
ATOM     23  C   UNL     1       1.870   6.423  20.016  0.00  0.00    +0.000 A 
ATOM     24  C   UNL     1       2.488   6.905  18.847  0.00  0.00    +0.000 A 
ATOM     25  C   UNL     1       2.270   8.241  18.494  0.00  0.00    +0.000 A 
BRANCH  23  26
ATOM     26  C   UNL     1       1.913   4.994  20.423  0.00  0.00    +0.000 C 
ATOM     27  N   UNL     1       2.651   4.675  21.530  0.00  0.00    +0.000 N 
ATOM     28  O   UNL     1       1.299   4.117  19.817  0.00  0.00    +0.000 OA
ATOM     29  H   UNL     1       3.222   5.332  22.044  0.00  0.00    +0.000 HD
ATOM     30  H   UNL     1       2.693   3.701  21.797  0.00  0.00    +0.000 HD
ENDBRANCH  23  26
BRANCH  24  31
ATOM     31  C   UNL     1       3.416   6.118  17.946  0.00  0.00    +0.000 C 
ATOM     32  C   UNL     1       4.052   6.949  16.831  0.00  0.00    +0.000 C 
ATOM     33  C   UNL     1       5.224   6.091  16.377  0.00  0.00    +0.000 C 
ATOM     34  C   UNL     1       5.677   5.303  17.606  0.00  0.00    +0.000 C 
ATOM     35  C   UNL     1       4.644   5.567  18.695  0.00  0.00    +0.000 C 
ENDBRANCH  24  31
ENDBRANCH   7  20
TORSDOF 5
ENDMDL
