MODEL 1
REMARK VINA RESULT:      -7.4      0.000      0.000
REMARK  Name = 
REMARK  9 active torsions:
REMARK  status: ('A' for Active; 'I' for Inactive)
REMARK    1  A    between atoms: C_1  and  C_2
REMARK    2  A    between atoms: C_7  and  O_8
REMARK    3  A    between atoms: O_8  and  C_9
REMARK    4  A    between atoms: C_9  and  C_10
REMARK    5  A    between atoms: N_12  and  C_13
REMARK    6  A    between atoms: C_13  and  C_14
REMARK    7  A    between atoms: C_14  and  O_16
REMARK    8  A    between atoms: O_16  and  C_17
REMARK    9  A    between atoms: C_17  and  C_18
REMARK                            x       y       z     vdW  Elec       q    Type
REMARK                         _______ _______ _______ _____ _____    ______ ____
ROOT
ATOM      1  C   UNL     1       7.992   7.967  18.063  0.00  0.00    +0.000 C 
ATOM      2  O   UNL     1       8.311   7.113  18.889  0.00  0.00    +0.000 OA
ATOM      3  N   UNL     1       7.256   7.664  16.937  0.00  0.00    +0.000 N 
ATOM      4  H   UNL     1       6.861   8.414  16.377  0.00  0.00    +0.000 HD
ENDROOT
BRANCH   1   5
ATOM      5  C   UNL     1       8.441   9.428  18.160  0.00  0.00    +0.000 C 
BRANCH   5   6
ATOM      6  O   UNL     1       9.245   9.655  19.299  0.00  0.00    +0.000 OA
BRANCH   6  13
ATOM      7  C   UNL     1       8.860  11.680  21.725  0.00  0.00    +0.000 C 
ATOM      8  C   UNL     1       9.760  11.798  20.527  0.00  0.00    +0.000 A 
ATOM      9  C   UNL     1      10.557  12.967  20.475  0.00  0.00    +0.000 A 
ATOM     10  C   UNL     1      11.435  13.215  19.422  0.00  0.00    +0.000 A 
ATOM     11  C   UNL     1      11.537  12.294  18.392  0.00  0.00    +0.000 A 
ATOM     12  C   UNL     1      10.760  11.134  18.425  0.00  0.00    +0.000 A 
ATOM     13  C   UNL     1       9.871  10.862  19.482  0.00  0.00    +0.000 A 
ENDBRANCH   6  13
ENDBRANCH   5   6
ENDBRANCH   1   5
BRANCH   3  14
ATOM     14  C   UNL     1       6.828   6.299  16.651  0.00  0.00    +0.000 C 
BRANCH  14  15
ATOM     15  C   UNL     1       5.310   6.216  16.560  0.00  0.00    +0.000 C 
ATOM     16  O   UNL     1       4.549   6.966  17.160  0.00  0.00    +0.000 OA
BRANCH  15  17
ATOM     17  O   UNL     1       4.938   5.170  15.771  0.00  0.00    +0.000 OA
BRANCH  17  18
ATOM     18  C   UNL     1       5.186   3.857  16.300  0.00  0.00    +0.000 C 
BRANCH  18  19
ATOM     19  C   UNL     1       4.259   3.520  17.449  0.00  0.00    +0.000 A 
ATOM     20  C   UNL     1       4.721   3.393  18.767  0.00  0.00    +0.000 A 
ATOM     21  C   UNL     1       3.822   3.203  19.822  0.00  0.00    +0.000 A 
ATOM     22  C   UNL     1       2.453   3.151  19.566  0.00  0.00    +0.000 A 
ATOM     23 BR   UNL     1       1.234   2.972  21.000  0.00  0.00    +0.000 Br
ATOM     24  C   UNL     1       1.976   3.255  18.263  0.00  0.00    +0.000 A 
ATOM     25  C   UNL     1       2.876   3.437  17.210  0.00  0.00    +0.000 A 
ENDBRANCH  18  19
ENDBRANCH  17  18
ENDBRANCH  15  17
ENDBRANCH  14  15
ENDBRANCH   3  14
TORSDOF 8
ENDMDL
MODEL 2
REMARK VINA RESULT:      -7.4      5.385      7.535
REMARK  Name = 
REMARK  9 active torsions:
REMARK  status: ('A' for Active; 'I' for Inactive)
REMARK    1  A    between atoms: C_1  and  C_2
REMARK    2  A    between atoms: C_7  and  O_8
REMARK    3  A    between atoms: O_8  and  C_9
REMARK    4  A    between atoms: C_9  and  C_10
REMARK    5  A    between atoms: N_12  and  C_13
REMARK    6  A    between atoms: C_13  and  C_14
REMARK    7  A    between atoms: C_14  and  O_16
REMARK    8  A    between atoms: O_16  and  C_17
REMARK    9  A    between atoms: C_17  and  C_18
REMARK                            x       y       z     vdW  Elec       q    Type
REMARK                         _______ _______ _______ _____ _____    ______ ____
ROOT
ATOM      1  C   UNL     1       2.757   2.676  18.228  0.00  0.00    +0.000 C 
ATOM      2  O   UNL     1       3.471   1.924  18.889  0.00  0.00    +0.000 OA
ATOM      3  N   UNL     1       1.498   3.054  18.647  0.00  0.00    +0.000 N 
ATOM      4  H   UNL     1       1.015   3.810  18.170  0.00  0.00    +0.000 HD
ENDROOT
BRANCH   1   5
ATOM      5  C   UNL     1       3.158   3.205  16.847  0.00  0.00    +0.000 C 
BRANCH   5   6
ATOM      6  O   UNL     1       3.745   4.487  16.927  0.00  0.00    +0.000 OA
BRANCH   6  13
ATOM      7  C   UNL     1       6.211   3.890  15.004  0.00  0.00    +0.000 C 
ATOM      8  C   UNL     1       6.215   4.395  16.419  0.00  0.00    +0.000 A 
ATOM      9  C   UNL     1       7.493   4.652  16.973  0.00  0.00    +0.000 A 
ATOM     10  C   UNL     1       7.653   5.118  18.276  0.00  0.00    +0.000 A 
ATOM     11  C   UNL     1       6.532   5.339  19.060  0.00  0.00    +0.000 A 
ATOM     12  C   UNL     1       5.263   5.093  18.533  0.00  0.00    +0.000 A 
ATOM     13  C   UNL     1       5.079   4.626  17.217  0.00  0.00    +0.000 A 
ENDBRANCH   6  13
ENDBRANCH   5   6
ENDBRANCH   1   5
BRANCH   3  14
ATOM     14  C   UNL     1       0.933   2.563  19.898  0.00  0.00    +0.000 C 
BRANCH  14  15
ATOM     15  C   UNL     1       1.405   3.407  21.074  0.00  0.00    +0.000 C 
ATOM     16  O   UNL     1       1.868   2.939  22.108  0.00  0.00    +0.000 OA
BRANCH  15  17
ATOM     17  O   UNL     1       1.188   4.729  20.827  0.00  0.00    +0.000 OA
BRANCH  17  18
ATOM     18  C   UNL     1       2.360   5.540  20.644  0.00  0.00    +0.000 C 
BRANCH  18  19
ATOM     19  C   UNL     1       2.018   6.944  20.189  0.00  0.00    +0.000 A 
ATOM     20  C   UNL     1       2.329   7.406  18.902  0.00  0.00    +0.000 A 
ATOM     21  C   UNL     1       1.890   8.663  18.471  0.00  0.00    +0.000 A 
ATOM     22  C   UNL     1       1.126   9.460  19.321  0.00  0.00    +0.000 A 
ATOM     23 BR   UNL     1       0.468  11.125  18.712  0.00  0.00    +0.000 Br
ATOM     24  C   UNL     1       0.824   9.027  20.608  0.00  0.00    +0.000 A 
ATOM     25  C   UNL     1       1.269   7.775  21.039  0.00  0.00    +0.000 A 
ENDBRANCH  18  19
ENDBRANCH  17  18
ENDBRANCH  15  17
ENDBRANCH  14  15
ENDBRANCH   3  14
TORSDOF 8
ENDMDL
MODEL 3
REMARK VINA RESULT:      -7.3      1.539      1.924
REMARK  Name = 
REMARK  9 active torsions:
REMARK  status: ('A' for Active; 'I' for Inactive)
REMARK    1  A    between atoms: C_1  and  C_2
REMARK    2  A    between atoms: C_7  and  O_8
REMARK    3  A    between atoms: O_8  and  C_9
REMARK    4  A    between atoms: C_9  and  C_10
REMARK    5  A    between atoms: N_12  and  C_13
REMARK    6  A    between atoms: C_13  and  C_14
REMARK    7  A    between atoms: C_14  and  O_16
REMARK    8  A    between atoms: O_16  and  C_17
REMARK    9  A    between atoms: C_17  and  C_18
REMARK                            x       y       z     vdW  Elec       q    Type
REMARK                         _______ _______ _______ _____ _____    ______ ____
ROOT
ATOM      1  C   UNL     1       7.953   7.713  18.013  0.00  0.00    +0.000 C 
ATOM      2  O   UNL     1       8.543   7.267  18.996  0.00  0.00    +0.000 OA
ATOM      3  N   UNL     1       7.194   6.914  17.183  0.00  0.00    +0.000 N 
ATOM      4  H   UNL     1       6.581   7.342  16.495  0.00  0.00    +0.000 HD
ENDROOT
BRANCH   1   5
ATOM      5  C   UNL     1       8.059   9.176  17.572  0.00  0.00    +0.000 C 
BRANCH   5   6
ATOM      6  O   UNL     1       8.504  10.010  18.621  0.00  0.00    +0.000 OA
BRANCH   6  13
ATOM      7  C   UNL     1       7.618  12.709  17.183  0.00  0.00    +0.000 C 
ATOM      8  C   UNL     1       8.961  12.330  17.742  0.00  0.00    +0.000 A 
ATOM      9  C   UNL     1       9.972  13.314  17.622  0.00  0.00    +0.000 A 
ATOM     10  C   UNL     1      11.268  13.102  18.089  0.00  0.00    +0.000 A 
ATOM     11  C   UNL     1      11.583  11.894  18.690  0.00  0.00    +0.000 A 
ATOM     12  C   UNL     1      10.601  10.911  18.818  0.00  0.00    +0.000 A 
ATOM     13  C   UNL     1       9.285  11.107  18.358  0.00  0.00    +0.000 A 
ENDBRANCH   6  13
ENDBRANCH   5   6
ENDBRANCH   1   5
BRANCH   3  14
ATOM     14  C   UNL     1       7.067   5.480  17.416  0.00  0.00    +0.000 C 
BRANCH  14  15
ATOM     15  C   UNL     1       6.903   4.732  16.099  0.00  0.00    +0.000 C 
ATOM     16  O   UNL     1       7.624   4.903  15.123  0.00  0.00    +0.000 OA
BRANCH  15  17
ATOM     17  O   UNL     1       5.823   3.904  16.155  0.00  0.00    +0.000 OA
BRANCH  17  18
ATOM     18  C   UNL     1       4.549   4.536  16.357  0.00  0.00    +0.000 C 
BRANCH  18  19
ATOM     19  C   UNL     1       3.910   4.129  17.669  0.00  0.00    +0.000 A 
ATOM     20  C   UNL     1       3.302   5.060  18.522  0.00  0.00    +0.000 A 
ATOM     21  C   UNL     1       2.613   4.637  19.664  0.00  0.00    +0.000 A 
ATOM     22  C   UNL     1       2.519   3.277  19.953  0.00  0.00    +0.000 A 
ATOM     23 BR   UNL     1       1.523   2.699  21.453  0.00  0.00    +0.000 Br
ATOM     24  C   UNL     1       3.132   2.338  19.128  0.00  0.00    +0.000 A 
ATOM     25  C   UNL     1       3.825   2.764  17.993  0.00  0.00    +0.000 A 
ENDBRANCH  18  19
ENDBRANCH  17  18
ENDBRANCH  15  17
ENDBRANCH  14  15
ENDBRANCH   3  14
TORSDOF 8
ENDMDL
MODEL 4
REMARK VINA RESULT:      -7.3      3.388      9.428
REMARK  Name = 
REMARK  9 active torsions:
REMARK  status: ('A' for Active; 'I' for Inactive)
REMARK    1  A    between atoms: C_1  and  C_2
REMARK    2  A    between atoms: C_7  and  O_8
REMARK    3  A    between atoms: O_8  and  C_9
REMARK    4  A    between atoms: C_9  and  C_10
REMARK    5  A    between atoms: N_12  and  C_13
REMARK    6  A    between atoms: C_13  and  C_14
REMARK    7  A    between atoms: C_14  and  O_16
REMARK    8  A    between atoms: O_16  and  C_17
REMARK    9  A    between atoms: C_17  and  C_18
REMARK                            x       y       z     vdW  Elec       q    Type
REMARK                         _______ _______ _______ _____ _____    ______ ____
ROOT
ATOM      1  C   UNL     1       5.568   5.471  16.287  0.00  0.00    +0.000 C 
ATOM      2  O   UNL     1       6.062   5.564  15.164  0.00  0.00    +0.000 OA
ATOM      3  N   UNL     1       6.139   6.064  17.394  0.00  0.00    +0.000 N 
ATOM      4  H   UNL     1       5.614   6.119  18.262  0.00  0.00    +0.000 HD
ENDROOT
BRANCH   1   5
ATOM      5  C   UNL     1       4.320   4.633  16.581  0.00  0.00    +0.000 C 
BRANCH   5   6
ATOM      6  O   UNL     1       3.467   5.271  17.508  0.00  0.00    +0.000 OA
BRANCH   6  13
ATOM      7  C   UNL     1       2.134   6.150  20.262  0.00  0.00    +0.000 C 
ATOM      8  C   UNL     1       1.980   4.861  19.505  0.00  0.00    +0.000 A 
ATOM      9  C   UNL     1       1.113   3.908  20.091  0.00  0.00    +0.000 A 
ATOM     10  C   UNL     1       0.877   2.665  19.506  0.00  0.00    +0.000 A 
ATOM     11  C   UNL     1       1.506   2.347  18.313  0.00  0.00    +0.000 A 
ATOM     12  C   UNL     1       2.365   3.273  17.718  0.00  0.00    +0.000 A 
ATOM     13  C   UNL     1       2.613   4.536  18.291  0.00  0.00    +0.000 A 
ENDBRANCH   6  13
ENDBRANCH   5   6
ENDBRANCH   1   5
BRANCH   3  14
ATOM     14  C   UNL     1       7.381   6.822  17.297  0.00  0.00    +0.000 C 
BRANCH  14  15
ATOM     15  C   UNL     1       8.140   6.788  18.617  0.00  0.00    +0.000 C 
ATOM     16  O   UNL     1       8.099   5.848  19.403  0.00  0.00    +0.000 OA
BRANCH  15  17
ATOM     17  O   UNL     1       8.809   7.958  18.810  0.00  0.00    +0.000 OA
BRANCH  17  18
ATOM     18  C   UNL     1       8.269   9.114  18.151  0.00  0.00    +0.000 C 
BRANCH  18  19
ATOM     19  C   UNL     1       8.850  10.404  18.691  0.00  0.00    +0.000 A 
ATOM     20  C   UNL     1       9.319  10.516  20.008  0.00  0.00    +0.000 A 
ATOM     21  C   UNL     1       9.962  11.681  20.439  0.00  0.00    +0.000 A 
ATOM     22  C   UNL     1      10.150  12.739  19.551  0.00  0.00    +0.000 A 
ATOM     23 BR   UNL     1      11.087  14.283  20.110  0.00  0.00    +0.000 Br
ATOM     24  C   UNL     1       9.675  12.655  18.246  0.00  0.00    +0.000 A 
ATOM     25  C   UNL     1       9.026  11.493  17.820  0.00  0.00    +0.000 A 
ENDBRANCH  18  19
ENDBRANCH  17  18
ENDBRANCH  15  17
ENDBRANCH  14  15
ENDBRANCH   3  14
TORSDOF 8
ENDMDL
MODEL 5
REMARK VINA RESULT:      -7.1      3.408      9.202
REMARK  Name = 
REMARK  9 active torsions:
REMARK  status: ('A' for Active; 'I' for Inactive)
REMARK    1  A    between atoms: C_1  and  C_2
REMARK    2  A    between atoms: C_7  and  O_8
REMARK    3  A    between atoms: O_8  and  C_9
REMARK    4  A    between atoms: C_9  and  C_10
REMARK    5  A    between atoms: N_12  and  C_13
REMARK    6  A    between atoms: C_13  and  C_14
REMARK    7  A    between atoms: C_14  and  O_16
REMARK    8  A    between atoms: O_16  and  C_17
REMARK    9  A    between atoms: C_17  and  C_18
REMARK                            x       y       z     vdW  Elec       q    Type
REMARK                         _______ _______ _______ _____ _____    ______ ____
ROOT
ATOM      1  C   UNL     1       5.079   5.691  16.702  0.00  0.00    +0.000 C 
ATOM      2  O   UNL     1       5.523   5.505  15.570  0.00  0.00    +0.000 OA
ATOM      3  N   UNL     1       5.738   6.465  17.634  0.00  0.00    +0.000 N 
ATOM      4  H   UNL     1       5.261   6.742  18.487  0.00  0.00    +0.000 HD
ENDROOT
BRANCH   1   5
ATOM      5  C   UNL     1       3.796   5.028  17.212  0.00  0.00    +0.000 C 
BRANCH   5   6
ATOM      6  O   UNL     1       3.394   5.555  18.460  0.00  0.00    +0.000 OA
BRANCH   6  13
ATOM      7  C   UNL     1       1.348   6.131  20.831  0.00  0.00    +0.000 C 
ATOM      8  C   UNL     1       2.169   4.900  20.566  0.00  0.00    +0.000 A 
ATOM      9  C   UNL     1       2.003   3.844  21.495  0.00  0.00    +0.000 A 
ATOM     10  C   UNL     1       2.702   2.644  21.381  0.00  0.00    +0.000 A 
ATOM     11  C   UNL     1       3.589   2.472  20.330  0.00  0.00    +0.000 A 
ATOM     12  C   UNL     1       3.767   3.501  19.403  0.00  0.00    +0.000 A 
ATOM     13  C   UNL     1       3.067   4.719  19.497  0.00  0.00    +0.000 A 
ENDBRANCH   6  13
ENDBRANCH   5   6
ENDBRANCH   1   5
BRANCH   3  14
ATOM     14  C   UNL     1       7.020   7.092  17.333  0.00  0.00    +0.000 C 
BRANCH  14  15
ATOM     15  C   UNL     1       8.013   6.862  18.464  0.00  0.00    +0.000 C 
ATOM     16  O   UNL     1       8.186   5.778  19.011  0.00  0.00    +0.000 OA
BRANCH  15  17
ATOM     17  O   UNL     1       8.626   8.029  18.804  0.00  0.00    +0.000 OA
BRANCH  17  18
ATOM     18  C   UNL     1       8.262   9.185  18.031  0.00  0.00    +0.000 C 
BRANCH  18  19
ATOM     19  C   UNL     1       8.964  10.438  18.511  0.00  0.00    +0.000 A 
ATOM     20  C   UNL     1       8.875  11.654  17.817  0.00  0.00    +0.000 A 
ATOM     21  C   UNL     1       9.431  12.821  18.352  0.00  0.00    +0.000 A 
ATOM     22  C   UNL     1      10.071  12.782  19.589  0.00  0.00    +0.000 A 
ATOM     23 BR   UNL     1      10.755  14.373  20.347  0.00  0.00    +0.000 Br
ATOM     24  C   UNL     1      10.187  11.581  20.283  0.00  0.00    +0.000 A 
ATOM     25  C   UNL     1       9.636  10.416  19.745  0.00  0.00    +0.000 A 
ENDBRANCH  18  19
ENDBRANCH  17  18
ENDBRANCH  15  17
ENDBRANCH  14  15
ENDBRANCH   3  14
TORSDOF 8
ENDMDL
MODEL 6
REMARK VINA RESULT:      -7.1      4.945      7.315
REMARK  Name = 
REMARK  9 active torsions:
REMARK  status: ('A' for Active; 'I' for Inactive)
REMARK    1  A    between atoms: C_1  and  C_2
REMARK    2  A    between atoms: C_7  and  O_8
REMARK    3  A    between atoms: O_8  and  C_9
REMARK    4  A    between atoms: C_9  and  C_10
REMARK    5  A    between atoms: N_12  and  C_13
REMARK    6  A    between atoms: C_13  and  C_14
REMARK    7  A    between atoms: C_14  and  O_16
REMARK    8  A    between atoms: O_16  and  C_17
REMARK    9  A    between atoms: C_17  and  C_18
REMARK                            x       y       z     vdW  Elec       q    Type
REMARK                         _______ _______ _______ _____ _____    ______ ____
ROOT
ATOM      1  C   UNL     1       1.866   4.199  20.694  0.00  0.00    +0.000 C 
ATOM      2  O   UNL     1       1.126   3.235  20.889  0.00  0.00    +0.000 OA
ATOM      3  N   UNL     1       3.187   4.051  20.328  0.00  0.00    +0.000 N 
ATOM      4  H   UNL     1       3.713   4.857  20.003  0.00  0.00    +0.000 HD
ENDROOT
BRANCH   1   5
ATOM      5  C   UNL     1       1.420   5.648  20.909  0.00  0.00    +0.000 C 
BRANCH   5   6
ATOM      6  O   UNL     1       2.079   6.536  20.031  0.00  0.00    +0.000 OA
BRANCH   6  13
ATOM      7  C   UNL     1       2.255   8.501  17.532  0.00  0.00    +0.000 C 
ATOM      8  C   UNL     1       1.772   8.784  18.927  0.00  0.00    +0.000 A 
ATOM      9  C   UNL     1       1.322  10.106  19.160  0.00  0.00    +0.000 A 
ATOM     10  C   UNL     1       0.850  10.516  20.406  0.00  0.00    +0.000 A 
ATOM     11  C   UNL     1       0.819   9.608  21.452  0.00  0.00    +0.000 A 
ATOM     12  C   UNL     1       1.258   8.299  21.242  0.00  0.00    +0.000 A 
ATOM     13  C   UNL     1       1.733   7.863  19.990  0.00  0.00    +0.000 A 
ENDBRANCH   6  13
ENDBRANCH   5   6
ENDBRANCH   1   5
BRANCH   3  14
ATOM     14  C   UNL     1       3.791   2.733  20.170  0.00  0.00    +0.000 C 
BRANCH  14  15
ATOM     15  C   UNL     1       3.669   2.251  18.731  0.00  0.00    +0.000 C 
ATOM     16  O   UNL     1       3.777   1.077  18.393  0.00  0.00    +0.000 OA
BRANCH  15  17
ATOM     17  O   UNL     1       3.481   3.306  17.891  0.00  0.00    +0.000 OA
BRANCH  17  18
ATOM     18  C   UNL     1       4.516   3.538  16.923  0.00  0.00    +0.000 C 
BRANCH  18  19
ATOM     19  C   UNL     1       5.348   4.759  17.256  0.00  0.00    +0.000 A 
ATOM     20  C   UNL     1       6.598   4.661  17.884  0.00  0.00    +0.000 A 
ATOM     21  C   UNL     1       7.395   5.797  18.065  0.00  0.00    +0.000 A 
ATOM     22  C   UNL     1       6.951   7.036  17.608  0.00  0.00    +0.000 A 
ATOM     23 BR   UNL     1       8.061   8.557  17.784  0.00  0.00    +0.000 Br
ATOM     24  C   UNL     1       5.705   7.157  17.000  0.00  0.00    +0.000 A 
ATOM     25  C   UNL     1       4.908   6.023  16.826  0.00  0.00    +0.000 A 
ENDBRANCH  18  19
ENDBRANCH  17  18
ENDBRANCH  15  17
ENDBRANCH  14  15
ENDBRANCH   3  14
TORSDOF 8
ENDMDL
MODEL 7
REMARK VINA RESULT:      -7.0      3.428      9.255
REMARK  Name = 
REMARK  9 active torsions:
REMARK  status: ('A' for Active; 'I' for Inactive)
REMARK    1  A    between atoms: C_1  and  C_2
REMARK    2  A    between atoms: C_7  and  O_8
REMARK    3  A    between atoms: O_8  and  C_9
REMARK    4  A    between atoms: C_9  and  C_10
REMARK    5  A    between atoms: N_12  and  C_13
REMARK    6  A    between atoms: C_13  and  C_14
REMARK    7  A    between atoms: C_14  and  O_16
REMARK    8  A    between atoms: O_16  and  C_17
REMARK    9  A    between atoms: C_17  and  C_18
REMARK                            x       y       z     vdW  Elec       q    Type
REMARK                         _______ _______ _______ _____ _____    ______ ____
ROOT
ATOM      1  C   UNL     1       4.425   6.254  17.691  0.00  0.00    +0.000 C 
ATOM      2  O   UNL     1       4.553   5.793  16.557  0.00  0.00    +0.000 OA
ATOM      3  N   UNL     1       5.462   6.272  18.601  0.00  0.00    +0.000 N 
ATOM      4  H   UNL     1       5.373   6.817  19.454  0.00  0.00    +0.000 HD
ENDROOT
BRANCH   1   5
ATOM      5  C   UNL     1       3.091   6.781  18.230  0.00  0.00    +0.000 C 
BRANCH   5   6
ATOM      6  O   UNL     1       2.086   5.789  18.202  0.00  0.00    +0.000 OA
BRANCH   6  13
ATOM      7  C   UNL     1       2.536   2.759  17.335  0.00  0.00    +0.000 C 
ATOM      8  C   UNL     1       2.373   3.335  18.713  0.00  0.00    +0.000 A 
ATOM      9  C   UNL     1       2.439   2.403  19.777  0.00  0.00    +0.000 A 
ATOM     10  C   UNL     1       2.298   2.790  21.108  0.00  0.00    +0.000 A 
ATOM     11  C   UNL     1       2.088   4.126  21.407  0.00  0.00    +0.000 A 
ATOM     12  C   UNL     1       2.020   5.062  20.373  0.00  0.00    +0.000 A 
ATOM     13  C   UNL     1       2.164   4.692  19.022  0.00  0.00    +0.000 A 
ENDBRANCH   6  13
ENDBRANCH   5   6
ENDBRANCH   1   5
BRANCH   3  14
ATOM     14  C   UNL     1       6.772   5.723  18.273  0.00  0.00    +0.000 C 
BRANCH  14  15
ATOM     15  C   UNL     1       7.549   6.677  17.375  0.00  0.00    +0.000 C 
ATOM     16  O   UNL     1       7.758   6.475  16.185  0.00  0.00    +0.000 OA
BRANCH  15  17
ATOM     17  O   UNL     1       8.011   7.736  18.095  0.00  0.00    +0.000 OA
BRANCH  17  18
ATOM     18  C   UNL     1       7.671   9.040  17.596  0.00  0.00    +0.000 C 
BRANCH  18  19
ATOM     19  C   UNL     1       8.469  10.137  18.270  0.00  0.00    +0.000 A 
ATOM     20  C   UNL     1       9.228   9.903  19.426  0.00  0.00    +0.000 A 
ATOM     21  C   UNL     1      10.051  10.905  19.952  0.00  0.00    +0.000 A 
ATOM     22  C   UNL     1      10.130  12.143  19.317  0.00  0.00    +0.000 A 
ATOM     23 BR   UNL     1      11.301  13.470  19.983  0.00  0.00    +0.000 Br
ATOM     24  C   UNL     1       9.370  12.400  18.180  0.00  0.00    +0.000 A 
ATOM     25  C   UNL     1       8.543  11.401  17.660  0.00  0.00    +0.000 A 
ENDBRANCH  18  19
ENDBRANCH  17  18
ENDBRANCH  15  17
ENDBRANCH  14  15
ENDBRANCH   3  14
TORSDOF 8
ENDMDL
MODEL 8
REMARK VINA RESULT:      -7.0      5.209      7.179
REMARK  Name = 
REMARK  9 active torsions:
REMARK  status: ('A' for Active; 'I' for Inactive)
REMARK    1  A    between atoms: C_1  and  C_2
REMARK    2  A    between atoms: C_7  and  O_8
REMARK    3  A    between atoms: O_8  and  C_9
REMARK    4  A    between atoms: C_9  and  C_10
REMARK    5  A    between atoms: N_12  and  C_13
REMARK    6  A    between atoms: C_13  and  C_14
REMARK    7  A    between atoms: C_14  and  O_16
REMARK    8  A    between atoms: O_16  and  C_17
REMARK    9  A    between atoms: C_17  and  C_18
REMARK                            x       y       z     vdW  Elec       q    Type
REMARK                         _______ _______ _______ _____ _____    ______ ____
ROOT
ATOM      1  C   UNL     1       6.531   5.104  17.706  0.00  0.00    +0.000 C 
ATOM      2  O   UNL     1       6.256   6.243  18.084  0.00  0.00    +0.000 OA
ATOM      3  N   UNL     1       6.056   3.980  18.350  0.00  0.00    +0.000 N 
ATOM      4  H   UNL     1       6.153   3.070  17.909  0.00  0.00    +0.000 HD
ENDROOT
BRANCH   1   5
ATOM      5  C   UNL     1       7.480   4.821  16.538  0.00  0.00    +0.000 C 
BRANCH   5   6
ATOM      6  O   UNL     1       7.145   5.579  15.394  0.00  0.00    +0.000 OA
BRANCH   6  13
ATOM      7  C   UNL     1       8.785   5.912  12.686  0.00  0.00    +0.000 C 
ATOM      8  C   UNL     1       7.587   5.050  12.968  0.00  0.00    +0.000 A 
ATOM      9  C   UNL     1       7.129   4.267  11.880  0.00  0.00    +0.000 A 
ATOM     10  C   UNL     1       6.025   3.424  11.990  0.00  0.00    +0.000 A 
ATOM     11  C   UNL     1       5.350   3.344  13.198  0.00  0.00    +0.000 A 
ATOM     12  C   UNL     1       5.786   4.107  14.283  0.00  0.00    +0.000 A 
ATOM     13  C   UNL     1       6.902   4.961  14.194  0.00  0.00    +0.000 A 
ENDBRANCH   6  13
ENDBRANCH   5   6
ENDBRANCH   1   5
BRANCH   3  14
ATOM     14  C   UNL     1       5.213   4.080  19.535  0.00  0.00    +0.000 C 
BRANCH  14  15
ATOM     15  C   UNL     1       4.410   2.802  19.737  0.00  0.00    +0.000 C 
ATOM     16  O   UNL     1       4.818   1.831  20.362  0.00  0.00    +0.000 OA
BRANCH  15  17
ATOM     17  O   UNL     1       3.218   2.882  19.082  0.00  0.00    +0.000 OA
BRANCH  17  18
ATOM     18  C   UNL     1       2.199   3.672  19.716  0.00  0.00    +0.000 C 
BRANCH  18  19
ATOM     19  C   UNL     1       2.267   5.129  19.306  0.00  0.00    +0.000 A 
ATOM     20  C   UNL     1       2.396   5.521  17.966  0.00  0.00    +0.000 A 
ATOM     21  C   UNL     1       2.332   6.873  17.610  0.00  0.00    +0.000 A 
ATOM     22  C   UNL     1       2.126   7.840  18.592  0.00  0.00    +0.000 A 
ATOM     23 BR   UNL     1       1.962   9.659  18.102  0.00  0.00    +0.000 Br
ATOM     24  C   UNL     1       2.016   7.473  19.930  0.00  0.00    +0.000 A 
ATOM     25  C   UNL     1       2.087   6.123  20.284  0.00  0.00    +0.000 A 
ENDBRANCH  18  19
ENDBRANCH  17  18
ENDBRANCH  15  17
ENDBRANCH  14  15
ENDBRANCH   3  14
TORSDOF 8
ENDMDL
MODEL 9
REMARK VINA RESULT:      -6.9      3.327      9.414
REMARK  Name = 
REMARK  9 active torsions:
REMARK  status: ('A' for Active; 'I' for Inactive)
REMARK    1  A    between atoms: C_1  and  C_2
REMARK    2  A    between atoms: C_7  and  O_8
REMARK    3  A    between atoms: O_8  and  C_9
REMARK    4  A    between atoms: C_9  and  C_10
REMARK    5  A    between atoms: N_12  and  C_13
REMARK    6  A    between atoms: C_13  and  C_14
REMARK    7  A    between atoms: C_14  and  O_16
REMARK    8  A    between atoms: O_16  and  C_17
REMARK    9  A    between atoms: C_17  and  C_18
REMARK                            x       y       z     vdW  Elec       q    Type
REMARK                         _______ _______ _______ _____ _____    ______ ____
ROOT
ATOM      1  C   UNL     1       4.577   5.121  17.336  0.00  0.00    +0.000 C 
ATOM      2  O   UNL     1       3.813   6.085  17.351  0.00  0.00    +0.000 OA
ATOM      3  N   UNL     1       5.901   5.224  17.711  0.00  0.00    +0.000 N 
ATOM      4  H   UNL     1       6.449   4.382  17.858  0.00  0.00    +0.000 HD
ENDROOT
BRANCH   1   5
ATOM      5  C   UNL     1       4.161   3.736  16.833  0.00  0.00    +0.000 C 
BRANCH   5   6
ATOM      6  O   UNL     1       4.017   2.814  17.893  0.00  0.00    +0.000 OA
BRANCH   6  13
ATOM      7  C   UNL     1       1.118   4.081  17.539  0.00  0.00    +0.000 C 
ATOM      8  C   UNL     1       1.774   3.550  18.783  0.00  0.00    +0.000 A 
ATOM      9  C   UNL     1       0.991   3.612  19.961  0.00  0.00    +0.000 A 
ATOM     10  C   UNL     1       1.469   3.163  21.190  0.00  0.00    +0.000 A 
ATOM     11  C   UNL     1       2.748   2.638  21.269  0.00  0.00    +0.000 A 
ATOM     12  C   UNL     1       3.537   2.567  20.120  0.00  0.00    +0.000 A 
ATOM     13  C   UNL     1       3.072   3.011  18.867  0.00  0.00    +0.000 A 
ENDBRANCH   6  13
ENDBRANCH   5   6
ENDBRANCH   1   5
BRANCH   3  14
ATOM     14  C   UNL     1       6.477   6.497  18.129  0.00  0.00    +0.000 C 
BRANCH  14  15
ATOM     15  C   UNL     1       7.804   6.281  18.844  0.00  0.00    +0.000 C 
ATOM     16  O   UNL     1       8.059   5.294  19.526  0.00  0.00    +0.000 OA
BRANCH  15  17
ATOM     17  O   UNL     1       8.623   7.353  18.660  0.00  0.00    +0.000 OA
BRANCH  17  18
ATOM     18  C   UNL     1       8.067   8.457  17.927  0.00  0.00    +0.000 C 
BRANCH  18  19
ATOM     19  C   UNL     1       8.593   9.791  18.415  0.00  0.00    +0.000 A 
ATOM     20  C   UNL     1       9.241   9.929  19.651  0.00  0.00    +0.000 A 
ATOM     21  C   UNL     1       9.824  11.147  20.017  0.00  0.00    +0.000 A 
ATOM     22  C   UNL     1       9.772  12.232  19.144  0.00  0.00    +0.000 A 
ATOM     23 BR   UNL     1      10.626  13.854  19.606  0.00  0.00    +0.000 Br
ATOM     24  C   UNL     1       9.117  12.120  17.922  0.00  0.00    +0.000 A 
ATOM     25  C   UNL     1       8.529  10.905  17.561  0.00  0.00    +0.000 A 
ENDBRANCH  18  19
ENDBRANCH  17  18
ENDBRANCH  15  17
ENDBRANCH  14  15
ENDBRANCH   3  14
TORSDOF 8
ENDMDL
