MODEL 1
REMARK VINA RESULT:      -6.8      0.000      0.000
REMARK  Name = 
REMARK  5 active torsions:
REMARK  status: ('A' for Active; 'I' for Inactive)
REMARK    1  A    between atoms: C_1  and  C_2
REMARK    2  A    between atoms: C_2  and  C_3
REMARK    3  A    between atoms: C_2  and  N_12
REMARK    4  A    between atoms: C_3  and  C_5
REMARK    5  A    between atoms: C_8  and  N_9
REMARK                            x       y       z     vdW  Elec       q    Type
REMARK                         _______ _______ _______ _____ _____    ______ ____
ROOT
ATOM      1  C   UNL     1       2.232   4.055  17.754  0.00  0.00    +0.000 C 
ATOM      2  O   UNL     1       1.205   3.663  17.190  0.00  0.00    +0.000 OA
ENDROOT
BRANCH   1   3
ATOM      3  C   UNL     1       2.101   5.169  18.743  0.00  0.00    +0.000 A 
ATOM      4  C   UNL     1       1.720   4.975  20.073  0.00  0.00    +0.000 A 
ATOM      5  C   UNL     1       1.612   6.067  20.942  0.00  0.00    +0.000 A 
ATOM      6  C   UNL     1       1.914   7.363  20.516  0.00  0.00    +0.000 A 
ATOM      7  C   UNL     1       2.255   7.558  19.175  0.00  0.00    +0.000 A 
ATOM      8  C   UNL     1       2.374   6.470  18.305  0.00  0.00    +0.000 A 
BRANCH   6   9
ATOM      9  N   UNL     1       1.654   8.458  21.343  0.00  0.00    +0.000 N 
ATOM     10  H   UNL     1       0.825   8.355  21.921  0.00  0.00    +0.000 HD
ATOM     11  H   UNL     1       2.457   8.777  21.874  0.00  0.00    +0.000 HD
ENDBRANCH   6   9
ENDBRANCH   1   3
BRANCH   1  13
ATOM     12  C   UNL     1       3.726   2.130  18.344  0.00  0.00    +0.000 C 
ATOM     13  C   UNL     1       3.585   3.375  17.452  0.00  0.00    +0.000 C 
BRANCH  13  14
ATOM     14  N   UNL     1       4.756   4.305  17.512  0.00  0.00    +0.000 NA
ATOM     15  C   UNL     1       5.541   4.081  18.739  0.00  0.00    +0.000 C 
ATOM     16  C   UNL     1       6.110   5.402  19.258  0.00  0.00    +0.000 C 
ATOM     17  C   UNL     1       7.392   5.858  18.573  0.00  0.00    +0.000 C 
ATOM     18  C   UNL     1       7.298   5.989  17.058  0.00  0.00    +0.000 C 
ATOM     19  C   UNL     1       7.058   4.653  16.365  0.00  0.00    +0.000 C 
ATOM     20  C   UNL     1       5.588   4.221  16.291  0.00  0.00    +0.000 C 
ENDBRANCH  13  14
ENDBRANCH   1  13
TORSDOF 4
ENDMDL
MODEL 2
REMARK VINA RESULT:      -6.8      0.283      1.167
REMARK  Name = 
REMARK  5 active torsions:
REMARK  status: ('A' for Active; 'I' for Inactive)
REMARK    1  A    between atoms: C_1  and  C_2
REMARK    2  A    between atoms: C_2  and  C_3
REMARK    3  A    between atoms: C_2  and  N_12
REMARK    4  A    between atoms: C_3  and  C_5
REMARK    5  A    between atoms: C_8  and  N_9
REMARK                            x       y       z     vdW  Elec       q    Type
REMARK                         _______ _______ _______ _____ _____    ______ ____
ROOT
ATOM      1  C   UNL     1       2.204   3.713  17.933  0.00  0.00    +0.000 C 
ATOM      2  O   UNL     1       1.156   3.146  17.604  0.00  0.00    +0.000 OA
ENDROOT
BRANCH   1   3
ATOM      3  C   UNL     1       2.095   4.943  18.776  0.00  0.00    +0.000 A 
ATOM      4  C   UNL     1       2.421   6.221  18.317  0.00  0.00    +0.000 A 
ATOM      5  C   UNL     1       2.301   7.328  19.165  0.00  0.00    +0.000 A 
ATOM      6  C   UNL     1       1.821   7.189  20.469  0.00  0.00    +0.000 A 
ATOM      7  C   UNL     1       1.533   5.905  20.939  0.00  0.00    +0.000 A 
ATOM      8  C   UNL     1       1.643   4.797  20.093  0.00  0.00    +0.000 A 
BRANCH   6   9
ATOM      9  N   UNL     1       1.852   8.271  21.353  0.00  0.00    +0.000 N 
ATOM     10  H   UNL     1       2.736   8.772  21.366  0.00  0.00    +0.000 HD
ATOM     11  H   UNL     1       1.056   8.895  21.274  0.00  0.00    +0.000 HD
ENDBRANCH   6   9
ENDBRANCH   1   3
BRANCH   1  13
ATOM     12  C   UNL     1       3.817   1.825  18.285  0.00  0.00    +0.000 C 
ATOM     13  C   UNL     1       3.565   3.126  17.503  0.00  0.00    +0.000 C 
BRANCH  13  14
ATOM     14  N   UNL     1       4.695   4.105  17.569  0.00  0.00    +0.000 NA
ATOM     15  C   UNL     1       5.423   3.981  18.845  0.00  0.00    +0.000 C 
ATOM     16  C   UNL     1       5.912   5.351  19.316  0.00  0.00    +0.000 C 
ATOM     17  C   UNL     1       7.210   5.823  18.671  0.00  0.00    +0.000 C 
ATOM     18  C   UNL     1       7.189   5.868  17.148  0.00  0.00    +0.000 C 
ATOM     19  C   UNL     1       7.038   4.488  16.520  0.00  0.00    +0.000 C 
ATOM     20  C   UNL     1       5.592   3.991  16.398  0.00  0.00    +0.000 C 
ENDBRANCH  13  14
ENDBRANCH   1  13
TORSDOF 4
ENDMDL
MODEL 3
REMARK VINA RESULT:      -6.6      2.128      5.294
REMARK  Name = 
REMARK  5 active torsions:
REMARK  status: ('A' for Active; 'I' for Inactive)
REMARK    1  A    between atoms: C_1  and  C_2
REMARK    2  A    between atoms: C_2  and  C_3
REMARK    3  A    between atoms: C_2  and  N_12
REMARK    4  A    between atoms: C_3  and  C_5
REMARK    5  A    between atoms: C_8  and  N_9
REMARK                            x       y       z     vdW  Elec       q    Type
REMARK                         _______ _______ _______ _____ _____    ______ ____
ROOT
ATOM      1  C   UNL     1       3.138   7.114  18.088  0.00  0.00    +0.000 C 
ATOM      2  O   UNL     1       3.045   8.207  17.519  0.00  0.00    +0.000 OA
ENDROOT
BRANCH   1   3
ATOM      3  C   UNL     1       4.385   6.319  17.869  0.00  0.00    +0.000 A 
ATOM      4  C   UNL     1       5.046   5.629  18.889  0.00  0.00    +0.000 A 
ATOM      5  C   UNL     1       6.214   4.909  18.611  0.00  0.00    +0.000 A 
ATOM      6  C   UNL     1       6.725   4.833  17.313  0.00  0.00    +0.000 A 
ATOM      7  C   UNL     1       6.084   5.557  16.304  0.00  0.00    +0.000 A 
ATOM      8  C   UNL     1       4.912   6.270  16.573  0.00  0.00    +0.000 A 
BRANCH   6   9
ATOM      9  N   UNL     1       7.970   4.245  17.076  0.00  0.00    +0.000 N 
ATOM     10  H   UNL     1       8.031   3.743  16.195  0.00  0.00    +0.000 HD
ATOM     11  H   UNL     1       8.758   4.867  17.221  0.00  0.00    +0.000 HD
ENDBRANCH   6   9
ENDBRANCH   1   3
BRANCH   1  13
ATOM     12  C   UNL     1       1.929   7.558  20.240  0.00  0.00    +0.000 C 
ATOM     13  C   UNL     1       2.003   6.629  19.016  0.00  0.00    +0.000 C 
BRANCH  13  14
ATOM     14  N   UNL     1       2.080   5.174  19.358  0.00  0.00    +0.000 NA
ATOM     15  C   UNL     1       1.422   4.903  20.649  0.00  0.00    +0.000 C 
ATOM     16  C   UNL     1       2.160   3.796  21.403  0.00  0.00    +0.000 C 
ATOM     17  C   UNL     1       1.801   2.380  20.971  0.00  0.00    +0.000 C 
ATOM     18  C   UNL     1       1.989   2.095  19.486  0.00  0.00    +0.000 C 
ATOM     19  C   UNL     1       1.051   2.914  18.606  0.00  0.00    +0.000 C 
ATOM     20  C   UNL     1       1.552   4.324  18.269  0.00  0.00    +0.000 C 
ENDBRANCH  13  14
ENDBRANCH   1  13
TORSDOF 4
ENDMDL
MODEL 4
REMARK VINA RESULT:      -6.5      1.885      5.402
REMARK  Name = 
REMARK  5 active torsions:
REMARK  status: ('A' for Active; 'I' for Inactive)
REMARK    1  A    between atoms: C_1  and  C_2
REMARK    2  A    between atoms: C_2  and  C_3
REMARK    3  A    between atoms: C_2  and  N_12
REMARK    4  A    between atoms: C_3  and  C_5
REMARK    5  A    between atoms: C_8  and  N_9
REMARK                            x       y       z     vdW  Elec       q    Type
REMARK                         _______ _______ _______ _____ _____    ______ ____
ROOT
ATOM      1  C   UNL     1       4.500   3.417  19.117  0.00  0.00    +0.000 C 
ATOM      2  O   UNL     1       5.088   2.637  19.873  0.00  0.00    +0.000 OA
ENDROOT
BRANCH   1   3
ATOM      3  C   UNL     1       5.259   3.958  17.948  0.00  0.00    +0.000 A 
ATOM      4  C   UNL     1       4.858   3.780  16.621  0.00  0.00    +0.000 A 
ATOM      5  C   UNL     1       5.623   4.310  15.575  0.00  0.00    +0.000 A 
ATOM      6  C   UNL     1       6.777   5.055  15.830  0.00  0.00    +0.000 A 
ATOM      7  C   UNL     1       7.197   5.197  17.155  0.00  0.00    +0.000 A 
ATOM      8  C   UNL     1       6.432   4.678  18.204  0.00  0.00    +0.000 A 
BRANCH   6   9
ATOM      9  N   UNL     1       7.613   5.445  14.781  0.00  0.00    +0.000 N 
ATOM     10  H   UNL     1       7.300   6.275  14.287  0.00  0.00    +0.000 HD
ATOM     11  H   UNL     1       8.596   5.491  15.028  0.00  0.00    +0.000 HD
ENDBRANCH   6   9
ENDBRANCH   1   3
BRANCH   1  13
ATOM     12  C   UNL     1       2.147   3.074  18.321  0.00  0.00    +0.000 C 
ATOM     13  C   UNL     1       3.020   3.774  19.376  0.00  0.00    +0.000 C 
BRANCH  13  14
ATOM     14  N   UNL     1       2.765   5.244  19.501  0.00  0.00    +0.000 NA
ATOM     15  C   UNL     1       2.237   5.794  18.240  0.00  0.00    +0.000 C 
ATOM     16  C   UNL     1       2.758   7.214  18.016  0.00  0.00    +0.000 C 
ATOM     17  C   UNL     1       1.992   8.300  18.761  0.00  0.00    +0.000 C 
ATOM     18  C   UNL     1       1.901   8.102  20.269  0.00  0.00    +0.000 C 
ATOM     19  C   UNL     1       1.098   6.865  20.653  0.00  0.00    +0.000 C 
ATOM     20  C   UNL     1       1.896   5.555  20.657  0.00  0.00    +0.000 C 
ENDBRANCH  13  14
ENDBRANCH   1  13
TORSDOF 4
ENDMDL
MODEL 5
REMARK VINA RESULT:      -6.5      2.158      2.782
REMARK  Name = 
REMARK  5 active torsions:
REMARK  status: ('A' for Active; 'I' for Inactive)
REMARK    1  A    between atoms: C_1  and  C_2
REMARK    2  A    between atoms: C_2  and  C_3
REMARK    3  A    between atoms: C_2  and  N_12
REMARK    4  A    between atoms: C_3  and  C_5
REMARK    5  A    between atoms: C_8  and  N_9
REMARK                            x       y       z     vdW  Elec       q    Type
REMARK                         _______ _______ _______ _____ _____    ______ ____
ROOT
ATOM      1  C   UNL     1       2.681   5.582  18.030  0.00  0.00    +0.000 C 
ATOM      2  O   UNL     1       1.952   6.537  17.742  0.00  0.00    +0.000 OA
ENDROOT
BRANCH   1   3
ATOM      3  C   UNL     1       2.299   4.745  19.209  0.00  0.00    +0.000 A 
ATOM      4  C   UNL     1       2.894   4.871  20.467  0.00  0.00    +0.000 A 
ATOM      5  C   UNL     1       2.490   4.048  21.524  0.00  0.00    +0.000 A 
ATOM      6  C   UNL     1       1.466   3.112  21.360  0.00  0.00    +0.000 A 
ATOM      7  C   UNL     1       0.900   2.961  20.091  0.00  0.00    +0.000 A 
ATOM      8  C   UNL     1       1.293   3.787  19.033  0.00  0.00    +0.000 A 
BRANCH   6   9
ATOM      9  N   UNL     1       1.178   2.193  22.373  0.00  0.00    +0.000 N 
ATOM     10  H   UNL     1       0.569   2.555  23.101  0.00  0.00    +0.000 HD
ATOM     11  H   UNL     1       0.879   1.284  22.036  0.00  0.00    +0.000 HD
ENDBRANCH   6   9
ENDBRANCH   1   3
BRANCH   1  13
ATOM     12  C   UNL     1       3.981   3.751  16.914  0.00  0.00    +0.000 C 
ATOM     13  C   UNL     1       3.919   5.268  17.162  0.00  0.00    +0.000 C 
BRANCH  13  14
ATOM     14  N   UNL     1       5.192   5.852  17.690  0.00  0.00    +0.000 NA
ATOM     15  C   UNL     1       6.046   4.805  18.278  0.00  0.00    +0.000 C 
ATOM     16  C   UNL     1       6.807   5.351  19.486  0.00  0.00    +0.000 C 
ATOM     17  C   UNL     1       8.072   6.130  19.145  0.00  0.00    +0.000 C 
ATOM     18  C   UNL     1       7.866   7.302  18.193  0.00  0.00    +0.000 C 
ATOM     19  C   UNL     1       7.414   6.861  16.806  0.00  0.00    +0.000 C 
ATOM     20  C   UNL     1       5.903   6.643  16.661  0.00  0.00    +0.000 C 
ENDBRANCH  13  14
ENDBRANCH   1  13
TORSDOF 4
ENDMDL
MODEL 6
REMARK VINA RESULT:      -6.5      0.649      1.599
REMARK  Name = 
REMARK  5 active torsions:
REMARK  status: ('A' for Active; 'I' for Inactive)
REMARK    1  A    between atoms: C_1  and  C_2
REMARK    2  A    between atoms: C_2  and  C_3
REMARK    3  A    between atoms: C_2  and  N_12
REMARK    4  A    between atoms: C_3  and  C_5
REMARK    5  A    between atoms: C_8  and  N_9
REMARK                            x       y       z     vdW  Elec       q    Type
REMARK                         _______ _______ _______ _____ _____    ______ ____
ROOT
ATOM      1  C   UNL     1       2.283   3.846  17.965  0.00  0.00    +0.000 C 
ATOM      2  O   UNL     1       1.436   3.683  17.080  0.00  0.00    +0.000 OA
ENDROOT
BRANCH   1   3
ATOM      3  C   UNL     1       2.126   5.025  18.870  0.00  0.00    +0.000 A 
ATOM      4  C   UNL     1       1.649   4.931  20.180  0.00  0.00    +0.000 A 
ATOM      5  C   UNL     1       1.522   6.079  20.969  0.00  0.00    +0.000 A 
ATOM      6  C   UNL     1       1.899   7.334  20.485  0.00  0.00    +0.000 A 
ATOM      7  C   UNL     1       2.337   7.431  19.162  0.00  0.00    +0.000 A 
ATOM      8  C   UNL     1       2.476   6.285  18.371  0.00  0.00    +0.000 A 
BRANCH   6   9
ATOM      9  N   UNL     1       1.623   8.489  21.221  0.00  0.00    +0.000 N 
ATOM     10  H   UNL     1       1.971   9.344  20.798  0.00  0.00    +0.000 HD
ATOM     11  H   UNL     1       0.657   8.571  21.519  0.00  0.00    +0.000 HD
ENDBRANCH   6   9
ENDBRANCH   1   3
BRANCH   1  13
ATOM     12  C   UNL     1       3.393   2.254  19.552  0.00  0.00    +0.000 C 
ATOM     13  C   UNL     1       3.434   2.829  18.126  0.00  0.00    +0.000 C 
BRANCH  13  14
ATOM     14  N   UNL     1       4.773   3.361  17.722  0.00  0.00    +0.000 NA
ATOM     15  C   UNL     1       4.686   4.085  16.441  0.00  0.00    +0.000 C 
ATOM     16  C   UNL     1       5.960   3.876  15.621  0.00  0.00    +0.000 C 
ATOM     17  C   UNL     1       7.123   4.782  16.005  0.00  0.00    +0.000 C 
ATOM     18  C   UNL     1       7.532   4.714  17.471  0.00  0.00    +0.000 C 
ATOM     19  C   UNL     1       6.445   5.223  18.410  0.00  0.00    +0.000 C 
ATOM     20  C   UNL     1       5.384   4.183  18.790  0.00  0.00    +0.000 C 
ENDBRANCH  13  14
ENDBRANCH   1  13
TORSDOF 4
ENDMDL
MODEL 7
REMARK VINA RESULT:      -6.5      0.655      1.961
REMARK  Name = 
REMARK  5 active torsions:
REMARK  status: ('A' for Active; 'I' for Inactive)
REMARK    1  A    between atoms: C_1  and  C_2
REMARK    2  A    between atoms: C_2  and  C_3
REMARK    3  A    between atoms: C_2  and  N_12
REMARK    4  A    between atoms: C_3  and  C_5
REMARK    5  A    between atoms: C_8  and  N_9
REMARK                            x       y       z     vdW  Elec       q    Type
REMARK                         _______ _______ _______ _____ _____    ______ ____
ROOT
ATOM      1  C   UNL     1       2.296   3.835  17.982  0.00  0.00    +0.000 C 
ATOM      2  O   UNL     1       1.438   3.617  17.120  0.00  0.00    +0.000 OA
ENDROOT
BRANCH   1   3
ATOM      3  C   UNL     1       2.141   5.062  18.823  0.00  0.00    +0.000 A 
ATOM      4  C   UNL     1       2.504   6.340  18.392  0.00  0.00    +0.000 A 
ATOM      5  C   UNL     1       2.338   7.443  19.238  0.00  0.00    +0.000 A 
ATOM      6  C   UNL     1       1.776   7.301  20.509  0.00  0.00    +0.000 A 
ATOM      7  C   UNL     1       1.451   6.016  20.951  0.00  0.00    +0.000 A 
ATOM      8  C   UNL     1       1.606   4.912  20.108  0.00  0.00    +0.000 A 
BRANCH   6   9
ATOM      9  N   UNL     1       1.757   8.378  21.399  0.00  0.00    +0.000 N 
ATOM     10  H   UNL     1       2.031   9.264  20.984  0.00  0.00    +0.000 HD
ATOM     11  H   UNL     1       0.904   8.454  21.942  0.00  0.00    +0.000 HD
ENDBRANCH   6   9
ENDBRANCH   1   3
BRANCH   1  13
ATOM     12  C   UNL     1       3.423   2.321  19.632  0.00  0.00    +0.000 C 
ATOM     13  C   UNL     1       3.457   2.838  18.183  0.00  0.00    +0.000 C 
BRANCH  13  14
ATOM     14  N   UNL     1       4.791   3.367  17.755  0.00  0.00    +0.000 NA
ATOM     15  C   UNL     1       4.685   4.077  16.468  0.00  0.00    +0.000 C 
ATOM     16  C   UNL     1       5.948   3.860  15.633  0.00  0.00    +0.000 C 
ATOM     17  C   UNL     1       7.115   4.771  15.992  0.00  0.00    +0.000 C 
ATOM     18  C   UNL     1       7.545   4.718  17.452  0.00  0.00    +0.000 C 
ATOM     19  C   UNL     1       6.470   5.236  18.401  0.00  0.00    +0.000 C 
ATOM     20  C   UNL     1       5.415   4.199  18.806  0.00  0.00    +0.000 C 
ENDBRANCH  13  14
ENDBRANCH   1  13
TORSDOF 4
ENDMDL
MODEL 8
REMARK VINA RESULT:      -6.4      2.568      6.366
REMARK  Name = 
REMARK  5 active torsions:
REMARK  status: ('A' for Active; 'I' for Inactive)
REMARK    1  A    between atoms: C_1  and  C_2
REMARK    2  A    between atoms: C_2  and  C_3
REMARK    3  A    between atoms: C_2  and  N_12
REMARK    4  A    between atoms: C_3  and  C_5
REMARK    5  A    between atoms: C_8  and  N_9
REMARK                            x       y       z     vdW  Elec       q    Type
REMARK                         _______ _______ _______ _____ _____    ______ ____
ROOT
ATOM      1  C   UNL     1       5.341   4.729  17.101  0.00  0.00    +0.000 C 
ATOM      2  O   UNL     1       6.059   4.394  18.049  0.00  0.00    +0.000 OA
ENDROOT
BRANCH   1   3
ATOM      3  C   UNL     1       5.902   4.596  15.721  0.00  0.00    +0.000 A 
ATOM      4  C   UNL     1       7.105   5.183  15.320  0.00  0.00    +0.000 A 
ATOM      5  C   UNL     1       7.566   5.022  14.009  0.00  0.00    +0.000 A 
ATOM      6  C   UNL     1       6.861   4.247  13.085  0.00  0.00    +0.000 A 
ATOM      7  C   UNL     1       5.639   3.694  13.477  0.00  0.00    +0.000 A 
ATOM      8  C   UNL     1       5.177   3.844  14.789  0.00  0.00    +0.000 A 
BRANCH   6   9
ATOM      9  N   UNL     1       7.247   4.220  11.743  0.00  0.00    +0.000 N 
ATOM     10  H   UNL     1       7.018   3.355  11.262  0.00  0.00    +0.000 HD
ATOM     11  H   UNL     1       6.969   5.040  11.214  0.00  0.00    +0.000 HD
ENDBRANCH   6   9
ENDBRANCH   1   3
BRANCH   1  13
ATOM     12  C   UNL     1       3.949   6.741  17.647  0.00  0.00    +0.000 C 
ATOM     13  C   UNL     1       3.904   5.230  17.362  0.00  0.00    +0.000 C 
BRANCH  13  14
ATOM     14  N   UNL     1       3.164   4.437  18.393  0.00  0.00    +0.000 NA
ATOM     15  C   UNL     1       2.280   5.307  19.189  0.00  0.00    +0.000 C 
ATOM     16  C   UNL     1       2.216   4.822  20.638  0.00  0.00    +0.000 C 
ATOM     17  C   UNL     1       1.241   3.678  20.886  0.00  0.00    +0.000 C 
ATOM     18  C   UNL     1       1.469   2.443  20.023  0.00  0.00    +0.000 C 
ATOM     19  C   UNL     1       1.234   2.709  18.541  0.00  0.00    +0.000 C 
ATOM     20  C   UNL     1       2.437   3.297  17.793  0.00  0.00    +0.000 C 
ENDBRANCH  13  14
ENDBRANCH   1  13
TORSDOF 4
ENDMDL
MODEL 9
REMARK VINA RESULT:      -6.4      2.103      5.330
REMARK  Name = 
REMARK  5 active torsions:
REMARK  status: ('A' for Active; 'I' for Inactive)
REMARK    1  A    between atoms: C_1  and  C_2
REMARK    2  A    between atoms: C_2  and  C_3
REMARK    3  A    between atoms: C_2  and  N_12
REMARK    4  A    between atoms: C_3  and  C_5
REMARK    5  A    between atoms: C_8  and  N_9
REMARK                            x       y       z     vdW  Elec       q    Type
REMARK                         _______ _______ _______ _____ _____    ______ ____
ROOT
ATOM      1  C   UNL     1       3.081   7.176  18.039  0.00  0.00    +0.000 C 
ATOM      2  O   UNL     1       2.905   8.246  17.445  0.00  0.00    +0.000 OA
ENDROOT
BRANCH   1   3
ATOM      3  C   UNL     1       4.367   6.453  17.802  0.00  0.00    +0.000 A 
ATOM      4  C   UNL     1       4.975   6.352  16.548  0.00  0.00    +0.000 A 
ATOM      5  C   UNL     1       6.177   5.652  16.400  0.00  0.00    +0.000 A 
ATOM      6  C   UNL     1       6.815   5.072  17.498  0.00  0.00    +0.000 A 
ATOM      7  C   UNL     1       6.186   5.139  18.744  0.00  0.00    +0.000 A 
ATOM      8  C   UNL     1       4.989   5.845  18.900  0.00  0.00    +0.000 A 
BRANCH   6   9
ATOM      9  N   UNL     1       7.928   4.247  17.316  0.00  0.00    +0.000 N 
ATOM     10  H   UNL     1       8.168   3.687  18.129  0.00  0.00    +0.000 HD
ATOM     11  H   UNL     1       7.903   3.697  16.464  0.00  0.00    +0.000 HD
ENDBRANCH   6   9
ENDBRANCH   1   3
BRANCH   1  13
ATOM     12  C   UNL     1       1.987   7.540  20.266  0.00  0.00    +0.000 C 
ATOM     13  C   UNL     1       2.004   6.648  19.012  0.00  0.00    +0.000 C 
BRANCH  13  14
ATOM     14  N   UNL     1       2.118   5.185  19.305  0.00  0.00    +0.000 NA
ATOM     15  C   UNL     1       1.481   4.857  20.593  0.00  0.00    +0.000 C 
ATOM     16  C   UNL     1       2.252   3.743  21.302  0.00  0.00    +0.000 C 
ATOM     17  C   UNL     1       1.920   2.334  20.828  0.00  0.00    +0.000 C 
ATOM     18  C   UNL     1       2.098   2.102  19.332  0.00  0.00    +0.000 C 
ATOM     19  C   UNL     1       1.133   2.927  18.490  0.00  0.00    +0.000 C 
ATOM     20  C   UNL     1       1.598   4.359  18.194  0.00  0.00    +0.000 C 
ENDBRANCH  13  14
ENDBRANCH   1  13
TORSDOF 4
ENDMDL
