MODEL 1
REMARK VINA RESULT:      -8.1      0.000      0.000
REMARK  Name = 
REMARK  6 active torsions:
REMARK  status: ('A' for Active; 'I' for Inactive)
REMARK    1  A    between atoms: C_1  and  C_2
REMARK    2  A    between atoms: C_2  and  N_3
REMARK    3  A    between atoms: C_6  and  O_7
REMARK    4  A    between atoms: O_7  and  C_8
REMARK    5  A    between atoms: C_8  and  C_9
REMARK    6  A    between atoms: C_22  and  C_23
REMARK                            x       y       z     vdW  Elec       q    Type
REMARK                         _______ _______ _______ _____ _____    ______ ____
ROOT
ATOM      1  N   UNL     1       3.999   3.898  18.931  0.00  0.00    +0.000 N 
ATOM      2  C   UNL     1       4.644   4.503  17.874  0.00  0.00    +0.000 A 
ATOM      3  C   UNL     1       5.548   3.980  16.923  0.00  0.00    +0.000 A 
ATOM      4  C   UNL     1       6.061   4.820  15.912  0.00  0.00    +0.000 A 
ATOM      5  C   UNL     1       5.667   6.184  15.870  0.00  0.00    +0.000 A 
ATOM      6  C   UNL     1       4.763   6.693  16.806  0.00  0.00    +0.000 A 
ATOM      7  C   UNL     1       4.270   5.830  17.780  0.00  0.00    +0.000 A 
ATOM      8  C   UNL     1       3.366   6.066  18.775  0.00  0.00    +0.000 A 
ATOM      9  C   UNL     1       2.691   7.240  19.101  0.00  0.00    +0.000 A 
ATOM     10  C   UNL     1       1.790   7.182  20.167  0.00  0.00    +0.000 A 
ATOM     11  N   UNL     1       1.587   6.009  20.831  0.00  0.00    +0.000 NA
ATOM     12  C   UNL     1       2.246   4.849  20.527  0.00  0.00    +0.000 A 
ATOM     13  C   UNL     1       1.885   3.639  21.337  0.00  0.00    +0.000 C 
ATOM     14  C   UNL     1       3.189   4.881  19.459  0.00  0.00    +0.000 A 
ENDROOT
BRANCH   1  16
ATOM     15  C   UNL     1       3.565   1.384  18.572  0.00  0.00    +0.000 C 
ATOM     16  C   UNL     1       4.088   2.515  19.461  0.00  0.00    +0.000 C 
ENDBRANCH   1  16
BRANCH   4  17
ATOM     17  O   UNL     1       6.915   4.285  14.995  0.00  0.00    +0.000 OA
BRANCH  17  18
ATOM     18  C   UNL     1       7.051   4.710  13.685  0.00  0.00    +0.000 C 
BRANCH  18  19
ATOM     19  C   UNL     1       6.328   3.788  12.740  0.00  0.00    +0.000 A 
ATOM     20  C   UNL     1       4.948   3.944  12.511  0.00  0.00    +0.000 A 
ATOM     21  C   UNL     1       4.278   3.108  11.613  0.00  0.00    +0.000 A 
ATOM     22  C   UNL     1       4.975   2.105  10.940  0.00  0.00    +0.000 A 
ATOM     23  C   UNL     1       6.347   1.934  11.163  0.00  0.00    +0.000 A 
ATOM     24  C   UNL     1       7.024   2.773  12.055  0.00  0.00    +0.000 A 
ENDBRANCH  18  19
ENDBRANCH  17  18
ENDBRANCH   4  17
TORSDOF 4
ENDMDL
MODEL 2
REMARK VINA RESULT:      -8.1      0.337      1.037
REMARK  Name = 
REMARK  6 active torsions:
REMARK  status: ('A' for Active; 'I' for Inactive)
REMARK    1  A    between atoms: C_1  and  C_2
REMARK    2  A    between atoms: C_2  and  N_3
REMARK    3  A    between atoms: C_6  and  O_7
REMARK    4  A    between atoms: O_7  and  C_8
REMARK    5  A    between atoms: C_8  and  C_9
REMARK    6  A    between atoms: C_22  and  C_23
REMARK                            x       y       z     vdW  Elec       q    Type
REMARK                         _______ _______ _______ _____ _____    ______ ____
ROOT
ATOM      1  N   UNL     1       3.952   3.950  18.841  0.00  0.00    +0.000 N 
ATOM      2  C   UNL     1       4.565   4.567  17.772  0.00  0.00    +0.000 A 
ATOM      3  C   UNL     1       5.438   4.054  16.787  0.00  0.00    +0.000 A 
ATOM      4  C   UNL     1       5.920   4.905  15.771  0.00  0.00    +0.000 A 
ATOM      5  C   UNL     1       5.528   6.270  15.757  0.00  0.00    +0.000 A 
ATOM      6  C   UNL     1       4.654   6.768  16.727  0.00  0.00    +0.000 A 
ATOM      7  C   UNL     1       4.191   5.895  17.705  0.00  0.00    +0.000 A 
ATOM      8  C   UNL     1       3.318   6.121  18.731  0.00  0.00    +0.000 A 
ATOM      9  C   UNL     1       2.656   7.291  19.092  0.00  0.00    +0.000 A 
ATOM     10  C   UNL     1       1.788   7.222  20.184  0.00  0.00    +0.000 A 
ATOM     11  N   UNL     1       1.604   6.041  20.841  0.00  0.00    +0.000 NA
ATOM     12  C   UNL     1       2.251   4.884  20.502  0.00  0.00    +0.000 A 
ATOM     13  C   UNL     1       1.913   3.665  21.308  0.00  0.00    +0.000 C 
ATOM     14  C   UNL     1       3.160   4.927  19.405  0.00  0.00    +0.000 A 
ENDROOT
BRANCH   1  16
ATOM     15  C   UNL     1       3.491   1.442  18.471  0.00  0.00    +0.000 C 
ATOM     16  C   UNL     1       4.055   2.560  19.351  0.00  0.00    +0.000 C 
ENDBRANCH   1  16
BRANCH   4  17
ATOM     17  O   UNL     1       6.744   4.380  14.821  0.00  0.00    +0.000 OA
BRANCH  17  18
ATOM     18  C   UNL     1       6.827   4.808  13.507  0.00  0.00    +0.000 C 
BRANCH  18  19
ATOM     19  C   UNL     1       6.456   3.703  12.555  0.00  0.00    +0.000 A 
ATOM     20  C   UNL     1       7.456   2.912  11.959  0.00  0.00    +0.000 A 
ATOM     21  C   UNL     1       7.116   1.868  11.096  0.00  0.00    +0.000 A 
ATOM     22  C   UNL     1       5.776   1.606  10.811  0.00  0.00    +0.000 A 
ATOM     23  C   UNL     1       4.770   2.388  11.391  0.00  0.00    +0.000 A 
ATOM     24  C   UNL     1       5.106   3.431  12.263  0.00  0.00    +0.000 A 
ENDBRANCH  18  19
ENDBRANCH  17  18
ENDBRANCH   4  17
TORSDOF 4
ENDMDL
MODEL 3
REMARK VINA RESULT:      -7.9      3.963      7.958
REMARK  Name = 
REMARK  6 active torsions:
REMARK  status: ('A' for Active; 'I' for Inactive)
REMARK    1  A    between atoms: C_1  and  C_2
REMARK    2  A    between atoms: C_2  and  N_3
REMARK    3  A    between atoms: C_6  and  O_7
REMARK    4  A    between atoms: O_7  and  C_8
REMARK    5  A    between atoms: C_8  and  C_9
REMARK    6  A    between atoms: C_22  and  C_23
REMARK                            x       y       z     vdW  Elec       q    Type
REMARK                         _______ _______ _______ _____ _____    ______ ____
ROOT
ATOM      1  N   UNL     1       2.754   5.626  19.726  0.00  0.00    +0.000 N 
ATOM      2  C   UNL     1       2.393   6.893  19.323  0.00  0.00    +0.000 A 
ATOM      3  C   UNL     1       1.534   7.841  19.921  0.00  0.00    +0.000 A 
ATOM      4  C   UNL     1       1.344   9.096  19.305  0.00  0.00    +0.000 A 
ATOM      5  C   UNL     1       2.013   9.386  18.086  0.00  0.00    +0.000 A 
ATOM      6  C   UNL     1       2.871   8.448  17.506  0.00  0.00    +0.000 A 
ATOM      7  C   UNL     1       3.042   7.227  18.150  0.00  0.00    +0.000 A 
ATOM      8  C   UNL     1       3.836   6.168  17.813  0.00  0.00    +0.000 A 
ATOM      9  C   UNL     1       4.690   6.011  16.724  0.00  0.00    +0.000 A 
ATOM     10  C   UNL     1       5.411   4.817  16.647  0.00  0.00    +0.000 A 
ATOM     11  N   UNL     1       5.277   3.871  17.619  0.00  0.00    +0.000 NA
ATOM     12  C   UNL     1       4.439   4.008  18.692  0.00  0.00    +0.000 A 
ATOM     13  C   UNL     1       4.433   2.886  19.687  0.00  0.00    +0.000 C 
ATOM     14  C   UNL     1       3.673   5.206  18.788  0.00  0.00    +0.000 A 
ENDROOT
BRANCH   1  16
ATOM     15  C   UNL     1       1.101   3.895  20.682  0.00  0.00    +0.000 C 
ATOM     16  C   UNL     1       2.312   4.811  20.885  0.00  0.00    +0.000 C 
ENDBRANCH   1  16
BRANCH   4  17
ATOM     17  O   UNL     1       0.527  10.001  19.914  0.00  0.00    +0.000 OA
BRANCH  17  18
ATOM     18  C   UNL     1       0.087  11.188  19.353  0.00  0.00    +0.000 C 
BRANCH  18  19
ATOM     19  C   UNL     1      -1.283  11.027  18.752  0.00  0.00    +0.000 A 
ATOM     20  C   UNL     1      -2.354  11.821  19.204  0.00  0.00    +0.000 A 
ATOM     21  C   UNL     1      -3.623  11.695  18.630  0.00  0.00    +0.000 A 
ATOM     22  C   UNL     1      -3.837  10.772  17.607  0.00  0.00    +0.000 A 
ATOM     23  C   UNL     1      -2.783   9.971  17.152  0.00  0.00    +0.000 A 
ATOM     24  C   UNL     1      -1.509  10.099  17.717  0.00  0.00    +0.000 A 
ENDBRANCH  18  19
ENDBRANCH  17  18
ENDBRANCH   4  17
TORSDOF 4
ENDMDL
MODEL 4
REMARK VINA RESULT:      -7.9      4.264      6.819
REMARK  Name = 
REMARK  6 active torsions:
REMARK  status: ('A' for Active; 'I' for Inactive)
REMARK    1  A    between atoms: C_1  and  C_2
REMARK    2  A    between atoms: C_2  and  N_3
REMARK    3  A    between atoms: C_6  and  O_7
REMARK    4  A    between atoms: O_7  and  C_8
REMARK    5  A    between atoms: C_8  and  C_9
REMARK    6  A    between atoms: C_22  and  C_23
REMARK                            x       y       z     vdW  Elec       q    Type
REMARK                         _______ _______ _______ _____ _____    ______ ____
ROOT
ATOM      1  N   UNL     1       1.059  10.368  19.493  0.00  0.00    +0.000 N 
ATOM      2  C   UNL     1       1.533   9.079  19.379  0.00  0.00    +0.000 A 
ATOM      3  C   UNL     1       2.231   8.444  18.328  0.00  0.00    +0.000 A 
ATOM      4  C   UNL     1       2.628   7.097  18.468  0.00  0.00    +0.000 A 
ATOM      5  C   UNL     1       2.311   6.395  19.661  0.00  0.00    +0.000 A 
ATOM      6  C   UNL     1       1.631   7.033  20.702  0.00  0.00    +0.000 A 
ATOM      7  C   UNL     1       1.268   8.365  20.531  0.00  0.00    +0.000 A 
ATOM      8  C   UNL     1       0.634   9.213  21.394  0.00  0.00    +0.000 A 
ATOM      9  C   UNL     1       0.164   8.978  22.684  0.00  0.00    +0.000 A 
ATOM     10  C   UNL     1      -0.426  10.053  23.352  0.00  0.00    +0.000 A 
ATOM     11  N   UNL     1      -0.510  11.273  22.750  0.00  0.00    +0.000 NA
ATOM     12  C   UNL     1      -0.058  11.518  21.482  0.00  0.00    +0.000 A 
ATOM     13  C   UNL     1      -0.200  12.924  20.979  0.00  0.00    +0.000 C 
ATOM     14  C   UNL     1       0.529  10.436  20.765  0.00  0.00    +0.000 A 
ENDROOT
BRANCH   1  16
ATOM     15  C   UNL     1       2.377  12.266  18.354  0.00  0.00    +0.000 C 
ATOM     16  C   UNL     1       1.065  11.496  18.530  0.00  0.00    +0.000 C 
ENDBRANCH   1  16
BRANCH   4  17
ATOM     17  O   UNL     1       3.318   6.514  17.448  0.00  0.00    +0.000 OA
BRANCH  17  18
ATOM     18  C   UNL     1       4.181   5.439  17.577  0.00  0.00    +0.000 C 
BRANCH  18  19
ATOM     19  C   UNL     1       5.570   5.899  17.929  0.00  0.00    +0.000 A 
ATOM     20  C   UNL     1       6.188   6.925  17.189  0.00  0.00    +0.000 A 
ATOM     21  C   UNL     1       7.467   7.375  17.529  0.00  0.00    +0.000 A 
ATOM     22  C   UNL     1       8.145   6.802  18.605  0.00  0.00    +0.000 A 
ATOM     23  C   UNL     1       7.545   5.777  19.346  0.00  0.00    +0.000 A 
ATOM     24  C   UNL     1       6.262   5.328  19.014  0.00  0.00    +0.000 A 
ENDBRANCH  18  19
ENDBRANCH  17  18
ENDBRANCH   4  17
TORSDOF 4
ENDMDL
MODEL 5
REMARK VINA RESULT:      -7.5      3.922      7.924
REMARK  Name = 
REMARK  6 active torsions:
REMARK  status: ('A' for Active; 'I' for Inactive)
REMARK    1  A    between atoms: C_1  and  C_2
REMARK    2  A    between atoms: C_2  and  N_3
REMARK    3  A    between atoms: C_6  and  O_7
REMARK    4  A    between atoms: O_7  and  C_8
REMARK    5  A    between atoms: C_8  and  C_9
REMARK    6  A    between atoms: C_22  and  C_23
REMARK                            x       y       z     vdW  Elec       q    Type
REMARK                         _______ _______ _______ _____ _____    ______ ____
ROOT
ATOM      1  N   UNL     1       3.281   6.041  18.308  0.00  0.00    +0.000 N 
ATOM      2  C   UNL     1       2.545   7.034  18.917  0.00  0.00    +0.000 A 
ATOM      3  C   UNL     1       2.250   8.351  18.499  0.00  0.00    +0.000 A 
ATOM      4  C   UNL     1       1.445   9.176  19.313  0.00  0.00    +0.000 A 
ATOM      5  C   UNL     1       0.949   8.675  20.545  0.00  0.00    +0.000 A 
ATOM      6  C   UNL     1       1.235   7.367  20.947  0.00  0.00    +0.000 A 
ATOM      7  C   UNL     1       2.022   6.580  20.113  0.00  0.00    +0.000 A 
ATOM      8  C   UNL     1       2.414   5.280  20.257  0.00  0.00    +0.000 A 
ATOM      9  C   UNL     1       2.145   4.380  21.285  0.00  0.00    +0.000 A 
ATOM     10  C   UNL     1       2.659   3.089  21.152  0.00  0.00    +0.000 A 
ATOM     11  N   UNL     1       3.376   2.745  20.045  0.00  0.00    +0.000 NA
ATOM     12  C   UNL     1       3.654   3.619  19.029  0.00  0.00    +0.000 A 
ATOM     13  C   UNL     1       4.430   3.072  17.867  0.00  0.00    +0.000 C 
ATOM     14  C   UNL     1       3.162   4.951  19.145  0.00  0.00    +0.000 A 
ENDROOT
BRANCH   1  16
ATOM     15  C   UNL     1       5.472   6.634  17.089  0.00  0.00    +0.000 C 
ATOM     16  C   UNL     1       4.060   6.043  17.045  0.00  0.00    +0.000 C 
ENDBRANCH   1  16
BRANCH   4  17
ATOM     17  O   UNL     1       1.158  10.435  18.877  0.00  0.00    +0.000 OA
BRANCH  17  18
ATOM     18  C   UNL     1       0.142  11.239  19.364  0.00  0.00    +0.000 C 
BRANCH  18  19
ATOM     19  C   UNL     1      -1.143  10.999  18.618  0.00  0.00    +0.000 A 
ATOM     20  C   UNL     1      -2.304  11.720  18.953  0.00  0.00    +0.000 A 
ATOM     21  C   UNL     1      -3.493  11.522  18.245  0.00  0.00    +0.000 A 
ATOM     22  C   UNL     1      -3.537  10.598  17.201  0.00  0.00    +0.000 A 
ATOM     23  C   UNL     1      -2.392   9.868  16.861  0.00  0.00    +0.000 A 
ATOM     24  C   UNL     1      -1.197  10.069  17.562  0.00  0.00    +0.000 A 
ENDBRANCH  18  19
ENDBRANCH  17  18
ENDBRANCH   4  17
TORSDOF 4
ENDMDL
MODEL 6
REMARK VINA RESULT:      -7.5      4.452      7.057
REMARK  Name = 
REMARK  6 active torsions:
REMARK  status: ('A' for Active; 'I' for Inactive)
REMARK    1  A    between atoms: C_1  and  C_2
REMARK    2  A    between atoms: C_2  and  N_3
REMARK    3  A    between atoms: C_6  and  O_7
REMARK    4  A    between atoms: O_7  and  C_8
REMARK    5  A    between atoms: C_8  and  C_9
REMARK    6  A    between atoms: C_22  and  C_23
REMARK                            x       y       z     vdW  Elec       q    Type
REMARK                         _______ _______ _______ _____ _____    ______ ____
ROOT
ATOM      1  N   UNL     1       0.190  10.513  19.426  0.00  0.00    +0.000 N 
ATOM      2  C   UNL     1       0.963   9.374  19.358  0.00  0.00    +0.000 A 
ATOM      3  C   UNL     1       1.719   8.835  18.294  0.00  0.00    +0.000 A 
ATOM      4  C   UNL     1       2.450   7.644  18.490  0.00  0.00    +0.000 A 
ATOM      5  C   UNL     1       2.408   6.998  19.755  0.00  0.00    +0.000 A 
ATOM      6  C   UNL     1       1.668   7.544  20.807  0.00  0.00    +0.000 A 
ATOM      7  C   UNL     1       0.970   8.725  20.578  0.00  0.00    +0.000 A 
ATOM      8  C   UNL     1       0.209   9.468  21.434  0.00  0.00    +0.000 A 
ATOM      9  C   UNL     1      -0.091   9.245  22.776  0.00  0.00    +0.000 A 
ATOM     10  C   UNL     1      -0.881  10.199  23.419  0.00  0.00    +0.000 A 
ATOM     11  N   UNL     1      -1.313  11.302  22.743  0.00  0.00    +0.000 NA
ATOM     12  C   UNL     1      -1.031  11.533  21.424  0.00  0.00    +0.000 A 
ATOM     13  C   UNL     1      -1.557  12.810  20.839  0.00  0.00    +0.000 C 
ATOM     14  C   UNL     1      -0.245  10.566  20.733  0.00  0.00    +0.000 A 
ENDROOT
BRANCH   1  16
ATOM     15  C   UNL     1      -1.475  11.321  17.633  0.00  0.00    +0.000 C 
ATOM     16  C   UNL     1      -0.157  11.515  18.389  0.00  0.00    +0.000 C 
ENDBRANCH   1  16
BRANCH   4  17
ATOM     17  O   UNL     1       3.188   7.157  17.454  0.00  0.00    +0.000 OA
BRANCH  17  18
ATOM     18  C   UNL     1       3.857   5.945  17.448  0.00  0.00    +0.000 C 
BRANCH  18  19
ATOM     19  C   UNL     1       5.295   6.119  17.857  0.00  0.00    +0.000 A 
ATOM     20  C   UNL     1       6.128   7.018  17.164  0.00  0.00    +0.000 A 
ATOM     21  C   UNL     1       7.456   7.203  17.558  0.00  0.00    +0.000 A 
ATOM     22  C   UNL     1       7.969   6.490  18.641  0.00  0.00    +0.000 A 
ATOM     23  C   UNL     1       7.155   5.587  19.335  0.00  0.00    +0.000 A 
ATOM     24  C   UNL     1       5.822   5.404  18.950  0.00  0.00    +0.000 A 
ENDBRANCH  18  19
ENDBRANCH  17  18
ENDBRANCH   4  17
TORSDOF 4
ENDMDL
MODEL 7
REMARK VINA RESULT:      -7.5      4.124      9.125
REMARK  Name = 
REMARK  6 active torsions:
REMARK  status: ('A' for Active; 'I' for Inactive)
REMARK    1  A    between atoms: C_1  and  C_2
REMARK    2  A    between atoms: C_2  and  N_3
REMARK    3  A    between atoms: C_6  and  O_7
REMARK    4  A    between atoms: O_7  and  C_8
REMARK    5  A    between atoms: C_8  and  C_9
REMARK    6  A    between atoms: C_22  and  C_23
REMARK                            x       y       z     vdW  Elec       q    Type
REMARK                         _______ _______ _______ _____ _____    ______ ____
ROOT
ATOM      1  N   UNL     1       2.755   5.483  19.889  0.00  0.00    +0.000 N 
ATOM      2  C   UNL     1       2.329   6.763  19.610  0.00  0.00    +0.000 A 
ATOM      3  C   UNL     1       1.489   7.634  20.338  0.00  0.00    +0.000 A 
ATOM      4  C   UNL     1       1.217   8.924  19.834  0.00  0.00    +0.000 A 
ATOM      5  C   UNL     1       1.784   9.325  18.595  0.00  0.00    +0.000 A 
ATOM      6  C   UNL     1       2.623   8.462  17.885  0.00  0.00    +0.000 A 
ATOM      7  C   UNL     1       2.878   7.204  18.421  0.00  0.00    +0.000 A 
ATOM      8  C   UNL     1       3.675   6.201  17.948  0.00  0.00    +0.000 A 
ATOM      9  C   UNL     1       4.449   6.153  16.791  0.00  0.00    +0.000 A 
ATOM     10  C   UNL     1       5.197   4.994  16.573  0.00  0.00    +0.000 A 
ATOM     11  N   UNL     1       5.164   3.975  17.478  0.00  0.00    +0.000 NA
ATOM     12  C   UNL     1       4.405   4.004  18.616  0.00  0.00    +0.000 A 
ATOM     13  C   UNL     1       4.506   2.813  19.522  0.00  0.00    +0.000 C 
ATOM     14  C   UNL     1       3.613   5.165  18.857  0.00  0.00    +0.000 A 
ENDROOT
BRANCH   1  16
ATOM     15  C   UNL     1       1.216   3.648  20.838  0.00  0.00    +0.000 C 
ATOM     16  C   UNL     1       2.425   4.571  21.011  0.00  0.00    +0.000 C 
ENDBRANCH   1  16
BRANCH   4  17
ATOM     17  O   UNL     1       0.422   9.753  20.567  0.00  0.00    +0.000 OA
BRANCH  17  18
ATOM     18  C   UNL     1       0.153  11.077  20.266  0.00  0.00    +0.000 C 
BRANCH  18  19
ATOM     19  C   UNL     1      -1.021  11.584  21.060  0.00  0.00    +0.000 A 
ATOM     20  C   UNL     1      -1.101  11.342  22.444  0.00  0.00    +0.000 A 
ATOM     21  C   UNL     1      -2.175  11.834  23.191  0.00  0.00    +0.000 A 
ATOM     22  C   UNL     1      -3.182  12.567  22.564  0.00  0.00    +0.000 A 
ATOM     23  C   UNL     1      -3.120  12.811  21.187  0.00  0.00    +0.000 A 
ATOM     24  C   UNL     1      -2.043  12.326  20.436  0.00  0.00    +0.000 A 
ENDBRANCH  18  19
ENDBRANCH  17  18
ENDBRANCH   4  17
TORSDOF 4
ENDMDL
MODEL 8
REMARK VINA RESULT:      -7.4      3.965      8.058
REMARK  Name = 
REMARK  6 active torsions:
REMARK  status: ('A' for Active; 'I' for Inactive)
REMARK    1  A    between atoms: C_1  and  C_2
REMARK    2  A    between atoms: C_2  and  N_3
REMARK    3  A    between atoms: C_6  and  O_7
REMARK    4  A    between atoms: O_7  and  C_8
REMARK    5  A    between atoms: C_8  and  C_9
REMARK    6  A    between atoms: C_22  and  C_23
REMARK                            x       y       z     vdW  Elec       q    Type
REMARK                         _______ _______ _______ _____ _____    ______ ____
ROOT
ATOM      1  N   UNL     1       3.111   6.162  18.503  0.00  0.00    +0.000 N 
ATOM      2  C   UNL     1       2.372   7.051  19.252  0.00  0.00    +0.000 A 
ATOM      3  C   UNL     1       2.046   8.406  19.018  0.00  0.00    +0.000 A 
ATOM      4  C   UNL     1       1.244   9.101  19.949  0.00  0.00    +0.000 A 
ATOM      5  C   UNL     1       0.784   8.431  21.113  0.00  0.00    +0.000 A 
ATOM      6  C   UNL     1       1.100   7.088  21.333  0.00  0.00    +0.000 A 
ATOM      7  C   UNL     1       1.882   6.433  20.387  0.00  0.00    +0.000 A 
ATOM      8  C   UNL     1       2.299   5.133  20.350  0.00  0.00    +0.000 A 
ATOM      9  C   UNL     1       2.066   4.101  21.255  0.00  0.00    +0.000 A 
ATOM     10  C   UNL     1       2.599   2.848  20.942  0.00  0.00    +0.000 A 
ATOM     11  N   UNL     1       3.298   2.668  19.786  0.00  0.00    +0.000 NA
ATOM     12  C   UNL     1       3.540   3.673  18.889  0.00  0.00    +0.000 A 
ATOM     13  C   UNL     1       4.300   3.300  17.651  0.00  0.00    +0.000 C 
ATOM     14  C   UNL     1       3.028   4.969  19.190  0.00  0.00    +0.000 A 
ENDROOT
BRANCH   1  16
ATOM     15  C   UNL     1       5.320   6.806  17.343  0.00  0.00    +0.000 C 
ATOM     16  C   UNL     1       3.863   6.346  17.237  0.00  0.00    +0.000 C 
ENDBRANCH   1  16
BRANCH   4  17
ATOM     17  O   UNL     1       0.927  10.400  19.689  0.00  0.00    +0.000 OA
BRANCH  17  18
ATOM     18  C   UNL     1       0.573  10.906  18.450  0.00  0.00    +0.000 C 
BRANCH  18  19
ATOM     19  C   UNL     1      -0.919  10.862  18.254  0.00  0.00    +0.000 A 
ATOM     20  C   UNL     1      -1.499   9.885  17.423  0.00  0.00    +0.000 A 
ATOM     21  C   UNL     1      -2.885   9.823  17.260  0.00  0.00    +0.000 A 
ATOM     22  C   UNL     1      -3.707  10.739  17.917  0.00  0.00    +0.000 A 
ATOM     23  C   UNL     1      -3.144  11.721  18.741  0.00  0.00    +0.000 A 
ATOM     24  C   UNL     1      -1.756  11.782  18.914  0.00  0.00    +0.000 A 
ENDBRANCH  18  19
ENDBRANCH  17  18
ENDBRANCH   4  17
TORSDOF 4
ENDMDL
MODEL 9
REMARK VINA RESULT:      -7.4      3.526      7.692
REMARK  Name = 
REMARK  6 active torsions:
REMARK  status: ('A' for Active; 'I' for Inactive)
REMARK    1  A    between atoms: C_1  and  C_2
REMARK    2  A    between atoms: C_2  and  N_3
REMARK    3  A    between atoms: C_6  and  O_7
REMARK    4  A    between atoms: O_7  and  C_8
REMARK    5  A    between atoms: C_8  and  C_9
REMARK    6  A    between atoms: C_22  and  C_23
REMARK                            x       y       z     vdW  Elec       q    Type
REMARK                         _______ _______ _______ _____ _____    ______ ____
ROOT
ATOM      1  N   UNL     1       3.084   5.051  18.217  0.00  0.00    +0.000 N 
ATOM      2  C   UNL     1       2.585   6.233  18.720  0.00  0.00    +0.000 A 
ATOM      3  C   UNL     1       2.441   7.503  18.119  0.00  0.00    +0.000 A 
ATOM      4  C   UNL     1       1.874   8.564  18.857  0.00  0.00    +0.000 A 
ATOM      5  C   UNL     1       1.463   8.342  20.198  0.00  0.00    +0.000 A 
ATOM      6  C   UNL     1       1.597   7.080  20.783  0.00  0.00    +0.000 A 
ATOM      7  C   UNL     1       2.149   6.056  20.019  0.00  0.00    +0.000 A 
ATOM      8  C   UNL     1       2.357   4.745  20.339  0.00  0.00    +0.000 A 
ATOM      9  C   UNL     1       2.083   4.067  21.525  0.00  0.00    +0.000 A 
ATOM     10  C   UNL     1       2.377   2.702  21.560  0.00  0.00    +0.000 A 
ATOM     11  N   UNL     1       2.895   2.083  20.461  0.00  0.00    +0.000 NA
ATOM     12  C   UNL     1       3.174   2.736  19.292  0.00  0.00    +0.000 A 
ATOM     13  C   UNL     1       3.712   1.900  18.168  0.00  0.00    +0.000 C 
ATOM     14  C   UNL     1       2.905   4.134  19.231  0.00  0.00    +0.000 A 
ENDROOT
BRANCH   1  16
ATOM     15  C   UNL     1       5.179   5.060  16.718  0.00  0.00    +0.000 C 
ATOM     16  C   UNL     1       3.694   4.735  16.902  0.00  0.00    +0.000 C 
ENDBRANCH   1  16
BRANCH   4  17
ATOM     17  O   UNL     1       1.728   9.774  18.247  0.00  0.00    +0.000 OA
BRANCH  17  18
ATOM     18  C   UNL     1       1.147  10.893  18.818  0.00  0.00    +0.000 C 
BRANCH  18  19
ATOM     19  C   UNL     1      -0.334  10.928  18.553  0.00  0.00    +0.000 A 
ATOM     20  C   UNL     1      -0.914  10.030  17.638  0.00  0.00    +0.000 A 
ATOM     21  C   UNL     1      -2.293  10.041  17.409  0.00  0.00    +0.000 A 
ATOM     22  C   UNL     1      -3.106  10.950  18.084  0.00  0.00    +0.000 A 
ATOM     23  C   UNL     1      -2.542  11.854  18.993  0.00  0.00    +0.000 A 
ATOM     24  C   UNL     1      -1.163  11.843  19.232  0.00  0.00    +0.000 A 
ENDBRANCH  18  19
ENDBRANCH  17  18
ENDBRANCH   4  17
TORSDOF 4
ENDMDL
