MODEL 1
REMARK VINA RESULT:      -7.5      0.000      0.000
REMARK  Name = 
REMARK  9 active torsions:
REMARK  status: ('A' for Active; 'I' for Inactive)
REMARK    1  A    between atoms: C_1  and  N_2
REMARK    2  A    between atoms: N_2  and  C_3
REMARK    3  A    between atoms: N_2  and  C_4
REMARK    4  A    between atoms: C_9  and  C_10
REMARK    5  A    between atoms: C_10  and  S_11
REMARK    6  A    between atoms: S_11  and  C_13
REMARK    7  A    between atoms: C_15  and  C_16
REMARK    8  A    between atoms: N_23  and  C_24
REMARK    9  A    between atoms: C_24  and  C_25
REMARK                            x       y       z     vdW  Elec       q    Type
REMARK                         _______ _______ _______ _____ _____    ______ ____
ROOT
ATOM      1  C   UNL     1       2.213   7.671  19.246  0.00  0.00    +0.000 A 
ATOM      2  N   UNL     1       1.575   8.776  19.559  0.00  0.00    +0.000 NA
ATOM      3  C   UNL     1       1.126   8.625  20.841  0.00  0.00    +0.000 A 
ATOM      4  C   UNL     1       1.585   7.440  21.361  0.00  0.00    +0.000 A 
ATOM      5  N   UNL     1       2.326   6.853  20.352  0.00  0.00    +0.000 N 
ENDROOT
BRANCH   3   6
ATOM      6  C   UNL     1       0.237   9.606  21.436  0.00  0.00    +0.000 A 
ATOM      7  C   UNL     1      -0.232  10.652  20.623  0.00  0.00    +0.000 A 
ATOM      8  C   UNL     1      -1.129  11.598  21.114  0.00  0.00    +0.000 A 
ATOM      9  C   UNL     1      -1.565  11.510  22.430  0.00  0.00    +0.000 A 
ATOM     10  C   UNL     1      -1.102  10.482  23.254  0.00  0.00    +0.000 A 
ATOM     11  C   UNL     1      -0.202   9.532  22.760  0.00  0.00    +0.000 A 
ENDBRANCH   3   6
BRANCH   1  12
ATOM     12  S   UNL     1       2.763   7.437  17.610  0.00  0.00    +0.000 S 
ATOM     13  O   UNL     1       2.519   8.781  16.835  0.00  0.00    +0.000 OA
BRANCH  12  14
ATOM     14  C   UNL     1       4.574   7.188  17.960  0.00  0.00    +0.000 C 
BRANCH  14  20
ATOM     15  C   UNL     1       6.720   5.819  17.405  0.00  0.00    +0.000 A 
ATOM     16  C   UNL     1       7.291   4.799  16.602  0.00  0.00    +0.000 A 
ATOM     17  C   UNL     1       6.585   4.104  15.621  0.00  0.00    +0.000 A 
ATOM     18  C   UNL     1       5.258   4.405  15.403  0.00  0.00    +0.000 A 
ATOM     19  C   UNL     1       4.645   5.393  16.171  0.00  0.00    +0.000 A 
ATOM     20  C   UNL     1       5.333   6.113  17.179  0.00  0.00    +0.000 A 
BRANCH  15  22
ATOM     21  C   UNL     1       8.147   7.750  18.139  0.00  0.00    +0.000 C 
ATOM     22  N   UNL     1       7.533   6.432  18.363  0.00  0.00    +0.000 N 
ATOM     23  C   UNL     1       7.996   5.709  19.538  0.00  0.00    +0.000 C 
ENDBRANCH  15  22
ENDBRANCH  14  20
ENDBRANCH  12  14
ENDBRANCH   1  12
BRANCH   5  24
ATOM     24  C   UNL     1       2.962   5.549  20.477  0.00  0.00    +0.000 C 
BRANCH  24  25
ATOM     25  C   UNL     1       2.185   4.439  19.800  0.00  0.00    +0.000 A 
ATOM     26  C   UNL     1       2.599   3.900  18.569  0.00  0.00    +0.000 A 
ATOM     27  C   UNL     1       1.901   2.839  17.984  0.00  0.00    +0.000 A 
ATOM     28  C   UNL     1       0.781   2.306  18.617  0.00  0.00    +0.000 A 
ATOM     29  C   UNL     1       0.357   2.835  19.834  0.00  0.00    +0.000 A 
ATOM     30  C   UNL     1       1.053   3.895  20.422  0.00  0.00    +0.000 A 
ENDBRANCH  24  25
ENDBRANCH   5  24
TORSDOF 7
ENDMDL
MODEL 2
REMARK VINA RESULT:      -7.4      2.975      9.081
REMARK  Name = 
REMARK  9 active torsions:
REMARK  status: ('A' for Active; 'I' for Inactive)
REMARK    1  A    between atoms: C_1  and  N_2
REMARK    2  A    between atoms: N_2  and  C_3
REMARK    3  A    between atoms: N_2  and  C_4
REMARK    4  A    between atoms: C_9  and  C_10
REMARK    5  A    between atoms: C_10  and  S_11
REMARK    6  A    between atoms: S_11  and  C_13
REMARK    7  A    between atoms: C_15  and  C_16
REMARK    8  A    between atoms: N_23  and  C_24
REMARK    9  A    between atoms: C_24  and  C_25
REMARK                            x       y       z     vdW  Elec       q    Type
REMARK                         _______ _______ _______ _____ _____    ______ ____
ROOT
ATOM      1  C   UNL     1       0.925   9.305  19.999  0.00  0.00    +0.000 A 
ATOM      2  N   UNL     1       1.726   8.271  19.887  0.00  0.00    +0.000 NA
ATOM      3  C   UNL     1       2.126   8.219  18.580  0.00  0.00    +0.000 A 
ATOM      4  C   UNL     1       1.637   9.306  17.899  0.00  0.00    +0.000 A 
ATOM      5  N   UNL     1       0.908  10.029  18.825  0.00  0.00    +0.000 N 
ENDROOT
BRANCH   3   6
ATOM      6  C   UNL     1       2.892   7.091  18.083  0.00  0.00    +0.000 A 
ATOM      7  C   UNL     1       2.403   5.797  18.334  0.00  0.00    +0.000 A 
ATOM      8  C   UNL     1       3.059   4.672  17.840  0.00  0.00    +0.000 A 
ATOM      9  C   UNL     1       4.220   4.829  17.092  0.00  0.00    +0.000 A 
ATOM     10  C   UNL     1       4.724   6.107  16.842  0.00  0.00    +0.000 A 
ATOM     11  C   UNL     1       4.064   7.236  17.336  0.00  0.00    +0.000 A 
ENDBRANCH   3   6
BRANCH   1  12
ATOM     12  S   UNL     1       0.074   9.568  21.497  0.00  0.00    +0.000 S 
ATOM     13  O   UNL     1       0.869   8.818  22.625  0.00  0.00    +0.000 OA
BRANCH  12  14
ATOM     14  C   UNL     1       0.308  11.409  21.628  0.00  0.00    +0.000 C 
BRANCH  14  20
ATOM     15  C   UNL     1      -0.927  13.678  21.964  0.00  0.00    +0.000 A 
ATOM     16  C   UNL     1      -2.050  14.336  22.529  0.00  0.00    +0.000 A 
ATOM     17  C   UNL     1      -3.036  13.681  23.267  0.00  0.00    +0.000 A 
ATOM     18  C   UNL     1      -2.937  12.321  23.469  0.00  0.00    +0.000 A 
ATOM     19  C   UNL     1      -1.858  11.625  22.928  0.00  0.00    +0.000 A 
ATOM     20  C   UNL     1      -0.844  12.259  22.170  0.00  0.00    +0.000 A 
BRANCH  15  22
ATOM     21  C   UNL     1       1.133  15.110  21.873  0.00  0.00    +0.000 C 
ATOM     22  N   UNL     1      -0.015  14.448  21.235  0.00  0.00    +0.000 N 
ATOM     23  C   UNL     1      -0.272  14.817  19.851  0.00  0.00    +0.000 C 
ENDBRANCH  15  22
ENDBRANCH  14  20
ENDBRANCH  12  14
ENDBRANCH   1  12
BRANCH   5  24
ATOM     24  C   UNL     1       0.181  11.248  18.499  0.00  0.00    +0.000 C 
BRANCH  24  25
ATOM     25  C   UNL     1      -1.293  11.014  18.245  0.00  0.00    +0.000 A 
ATOM     26  C   UNL     1      -2.277  11.826  18.834  0.00  0.00    +0.000 A 
ATOM     27  C   UNL     1      -3.632  11.629  18.546  0.00  0.00    +0.000 A 
ATOM     28  C   UNL     1      -4.020  10.619  17.671  0.00  0.00    +0.000 A 
ATOM     29  C   UNL     1      -3.055   9.803  17.084  0.00  0.00    +0.000 A 
ATOM     30  C   UNL     1      -1.701   9.998  17.369  0.00  0.00    +0.000 A 
ENDBRANCH  24  25
ENDBRANCH   5  24
TORSDOF 7
ENDMDL
MODEL 3
REMARK VINA RESULT:      -7.4      0.280      1.426
REMARK  Name = 
REMARK  9 active torsions:
REMARK  status: ('A' for Active; 'I' for Inactive)
REMARK    1  A    between atoms: C_1  and  N_2
REMARK    2  A    between atoms: N_2  and  C_3
REMARK    3  A    between atoms: N_2  and  C_4
REMARK    4  A    between atoms: C_9  and  C_10
REMARK    5  A    between atoms: C_10  and  S_11
REMARK    6  A    between atoms: S_11  and  C_13
REMARK    7  A    between atoms: C_15  and  C_16
REMARK    8  A    between atoms: N_23  and  C_24
REMARK    9  A    between atoms: C_24  and  C_25
REMARK                            x       y       z     vdW  Elec       q    Type
REMARK                         _______ _______ _______ _____ _____    ______ ____
ROOT
ATOM      1  C   UNL     1       2.212   7.589  19.226  0.00  0.00    +0.000 A 
ATOM      2  N   UNL     1       1.559   8.700  19.480  0.00  0.00    +0.000 NA
ATOM      3  C   UNL     1       1.075   8.593  20.754  0.00  0.00    +0.000 A 
ATOM      4  C   UNL     1       1.526   7.432  21.329  0.00  0.00    +0.000 A 
ATOM      5  N   UNL     1       2.299   6.814  20.364  0.00  0.00    +0.000 N 
ENDROOT
BRANCH   3   6
ATOM      6  C   UNL     1       0.163   9.589  21.287  0.00  0.00    +0.000 A 
ATOM      7  C   UNL     1      -0.199   9.496  22.642  0.00  0.00    +0.000 A 
ATOM      8  C   UNL     1      -1.026  10.448  23.232  0.00  0.00    +0.000 A 
ATOM      9  C   UNL     1      -1.508  11.505  22.469  0.00  0.00    +0.000 A 
ATOM     10  C   UNL     1      -1.166  11.606  21.119  0.00  0.00    +0.000 A 
ATOM     11  C   UNL     1      -0.334  10.651  20.527  0.00  0.00    +0.000 A 
ENDBRANCH   3   6
BRANCH   1  12
ATOM     12  S   UNL     1       2.810   7.299  17.616  0.00  0.00    +0.000 S 
ATOM     13  O   UNL     1       2.770   8.668  16.846  0.00  0.00    +0.000 OA
BRANCH  12  14
ATOM     14  C   UNL     1       4.557   6.829  18.049  0.00  0.00    +0.000 C 
BRANCH  14  20
ATOM     15  C   UNL     1       6.794   5.964  17.033  0.00  0.00    +0.000 A 
ATOM     16  C   UNL     1       7.401   5.135  16.054  0.00  0.00    +0.000 A 
ATOM     17  C   UNL     1       6.680   4.375  15.133  0.00  0.00    +0.000 A 
ATOM     18  C   UNL     1       5.302   4.413  15.158  0.00  0.00    +0.000 A 
ATOM     19  C   UNL     1       4.656   5.205  16.105  0.00  0.00    +0.000 A 
ATOM     20  C   UNL     1       5.359   5.983  17.057  0.00  0.00    +0.000 A 
BRANCH  15  22
ATOM     21  C   UNL     1       8.077   6.099  19.187  0.00  0.00    +0.000 C 
ATOM     22  N   UNL     1       7.631   6.666  17.906  0.00  0.00    +0.000 N 
ATOM     23  C   UNL     1       7.928   8.076  17.700  0.00  0.00    +0.000 C 
ENDBRANCH  15  22
ENDBRANCH  14  20
ENDBRANCH  12  14
ENDBRANCH   1  12
BRANCH   5  24
ATOM     24  C   UNL     1       2.940   5.520  20.555  0.00  0.00    +0.000 C 
BRANCH  24  25
ATOM     25  C   UNL     1       2.183   4.378  19.910  0.00  0.00    +0.000 A 
ATOM     26  C   UNL     1       1.004   3.865  20.478  0.00  0.00    +0.000 A 
ATOM     27  C   UNL     1       0.288   2.847  19.840  0.00  0.00    +0.000 A 
ATOM     28  C   UNL     1       0.741   2.326  18.631  0.00  0.00    +0.000 A 
ATOM     29  C   UNL     1       1.911   2.822  18.060  0.00  0.00    +0.000 A 
ATOM     30  C   UNL     1       2.628   3.840  18.694  0.00  0.00    +0.000 A 
ENDBRANCH  24  25
ENDBRANCH   5  24
TORSDOF 7
ENDMDL
MODEL 4
REMARK VINA RESULT:      -7.4      2.948      9.006
REMARK  Name = 
REMARK  9 active torsions:
REMARK  status: ('A' for Active; 'I' for Inactive)
REMARK    1  A    between atoms: C_1  and  N_2
REMARK    2  A    between atoms: N_2  and  C_3
REMARK    3  A    between atoms: N_2  and  C_4
REMARK    4  A    between atoms: C_9  and  C_10
REMARK    5  A    between atoms: C_10  and  S_11
REMARK    6  A    between atoms: S_11  and  C_13
REMARK    7  A    between atoms: C_15  and  C_16
REMARK    8  A    between atoms: N_23  and  C_24
REMARK    9  A    between atoms: C_24  and  C_25
REMARK                            x       y       z     vdW  Elec       q    Type
REMARK                         _______ _______ _______ _____ _____    ______ ____
ROOT
ATOM      1  C   UNL     1       0.998   9.265  20.004  0.00  0.00    +0.000 A 
ATOM      2  N   UNL     1       1.763   8.206  19.868  0.00  0.00    +0.000 NA
ATOM      3  C   UNL     1       2.115   8.138  18.548  0.00  0.00    +0.000 A 
ATOM      4  C   UNL     1       1.635   9.237  17.880  0.00  0.00    +0.000 A 
ATOM      5  N   UNL     1       0.962   9.985  18.828  0.00  0.00    +0.000 N 
ENDROOT
BRANCH   3   6
ATOM      6  C   UNL     1       2.829   6.986  18.029  0.00  0.00    +0.000 A 
ATOM      7  C   UNL     1       4.067   7.203  17.401  0.00  0.00    +0.000 A 
ATOM      8  C   UNL     1       4.830   6.138  16.928  0.00  0.00    +0.000 A 
ATOM      9  C   UNL     1       4.359   4.840  17.073  0.00  0.00    +0.000 A 
ATOM     10  C   UNL     1       3.126   4.607  17.686  0.00  0.00    +0.000 A 
ATOM     11  C   UNL     1       2.361   5.676  18.163  0.00  0.00    +0.000 A 
ENDBRANCH   3   6
BRANCH   1  12
ATOM     12  S   UNL     1       0.210   9.558  21.530  0.00  0.00    +0.000 S 
ATOM     13  O   UNL     1       1.084   8.882  22.647  0.00  0.00    +0.000 OA
BRANCH  12  14
ATOM     14  C   UNL     1       0.382  11.410  21.579  0.00  0.00    +0.000 C 
BRANCH  14  20
ATOM     15  C   UNL     1      -0.863  13.663  21.977  0.00  0.00    +0.000 A 
ATOM     16  C   UNL     1      -1.987  14.300  22.563  0.00  0.00    +0.000 A 
ATOM     17  C   UNL     1      -2.967  13.623  23.288  0.00  0.00    +0.000 A 
ATOM     18  C   UNL     1      -2.861  12.258  23.454  0.00  0.00    +0.000 A 
ATOM     19  C   UNL     1      -1.780  11.582  22.892  0.00  0.00    +0.000 A 
ATOM     20  C   UNL     1      -0.772  12.240  22.146  0.00  0.00    +0.000 A 
BRANCH  15  22
ATOM     21  C   UNL     1       1.196  15.097  21.913  0.00  0.00    +0.000 C 
ATOM     22  N   UNL     1       0.042  14.456  21.266  0.00  0.00    +0.000 N 
ATOM     23  C   UNL     1      -0.227  14.869  19.897  0.00  0.00    +0.000 C 
ENDBRANCH  15  22
ENDBRANCH  14  20
ENDBRANCH  12  14
ENDBRANCH   1  12
BRANCH   5  24
ATOM     24  C   UNL     1       0.260  11.224  18.523  0.00  0.00    +0.000 C 
BRANCH  24  25
ATOM     25  C   UNL     1      -1.209  11.019  18.221  0.00  0.00    +0.000 A 
ATOM     26  C   UNL     1      -1.649   9.969  17.395  0.00  0.00    +0.000 A 
ATOM     27  C   UNL     1      -3.014   9.762  17.170  0.00  0.00    +0.000 A 
ATOM     28  C   UNL     1      -3.955  10.600  17.762  0.00  0.00    +0.000 A 
ATOM     29  C   UNL     1      -3.532  11.648  18.577  0.00  0.00    +0.000 A 
ATOM     30  C   UNL     1      -2.169  11.857  18.805  0.00  0.00    +0.000 A 
ENDBRANCH  24  25
ENDBRANCH   5  24
TORSDOF 7
ENDMDL
MODEL 5
REMARK VINA RESULT:      -6.9      1.581      7.480
REMARK  Name = 
REMARK  9 active torsions:
REMARK  status: ('A' for Active; 'I' for Inactive)
REMARK    1  A    between atoms: C_1  and  N_2
REMARK    2  A    between atoms: N_2  and  C_3
REMARK    3  A    between atoms: N_2  and  C_4
REMARK    4  A    between atoms: C_9  and  C_10
REMARK    5  A    between atoms: C_10  and  S_11
REMARK    6  A    between atoms: S_11  and  C_13
REMARK    7  A    between atoms: C_15  and  C_16
REMARK    8  A    between atoms: N_23  and  C_24
REMARK    9  A    between atoms: C_24  and  C_25
REMARK                            x       y       z     vdW  Elec       q    Type
REMARK                         _______ _______ _______ _____ _____    ______ ____
ROOT
ATOM      1  C   UNL     1       2.585   7.827  18.781  0.00  0.00    +0.000 A 
ATOM      2  N   UNL     1       2.082   7.021  19.688  0.00  0.00    +0.000 NA
ATOM      3  C   UNL     1       2.580   5.774  19.429  0.00  0.00    +0.000 A 
ATOM      4  C   UNL     1       3.486   5.836  18.401  0.00  0.00    +0.000 A 
ATOM      5  N   UNL     1       3.526   7.165  18.020  0.00  0.00    +0.000 N 
ENDROOT
BRANCH   3   6
ATOM      6  C   UNL     1       2.090   4.615  20.153  0.00  0.00    +0.000 A 
ATOM      7  C   UNL     1       1.172   3.770  19.506  0.00  0.00    +0.000 A 
ATOM      8  C   UNL     1       0.702   2.612  20.122  0.00  0.00    +0.000 A 
ATOM      9  C   UNL     1       1.143   2.288  21.399  0.00  0.00    +0.000 A 
ATOM     10  C   UNL     1       2.048   3.121  22.059  0.00  0.00    +0.000 A 
ATOM     11  C   UNL     1       2.521   4.283  21.440  0.00  0.00    +0.000 A 
ENDBRANCH   3   6
BRANCH   1  12
ATOM     12  S   UNL     1       2.017   9.471  18.692  0.00  0.00    +0.000 S 
ATOM     13  O   UNL     1       2.040   9.895  17.180  0.00  0.00    +0.000 OA
BRANCH  12  14
ATOM     14  C   UNL     1       0.273   9.194  19.280  0.00  0.00    +0.000 C 
BRANCH  14  20
ATOM     15  C   UNL     1      -0.642  11.211  20.651  0.00  0.00    +0.000 A 
ATOM     16  C   UNL     1      -1.021  11.689  21.932  0.00  0.00    +0.000 A 
ATOM     17  C   UNL     1      -0.946  10.923  23.095  0.00  0.00    +0.000 A 
ATOM     18  C   UNL     1      -0.484   9.626  23.020  0.00  0.00    +0.000 A 
ATOM     19  C   UNL     1      -0.106   9.103  21.785  0.00  0.00    +0.000 A 
ATOM     20  C   UNL     1      -0.177   9.854  20.585  0.00  0.00    +0.000 A 
BRANCH  15  22
ATOM     21  C   UNL     1      -1.941  12.027  18.664  0.00  0.00    +0.000 C 
ATOM     22  N   UNL     1      -0.777  12.077  19.562  0.00  0.00    +0.000 N 
ATOM     23  C   UNL     1       0.323  12.923  19.127  0.00  0.00    +0.000 C 
ENDBRANCH  15  22
ENDBRANCH  14  20
ENDBRANCH  12  14
ENDBRANCH   1  12
BRANCH   5  24
ATOM     24  C   UNL     1       4.342   7.661  16.920  0.00  0.00    +0.000 C 
BRANCH  24  25
ATOM     25  C   UNL     1       5.366   6.656  16.438  0.00  0.00    +0.000 A 
ATOM     26  C   UNL     1       6.529   6.379  17.179  0.00  0.00    +0.000 A 
ATOM     27  C   UNL     1       7.438   5.408  16.745  0.00  0.00    +0.000 A 
ATOM     28  C   UNL     1       7.201   4.706  15.567  0.00  0.00    +0.000 A 
ATOM     29  C   UNL     1       6.056   4.975  14.820  0.00  0.00    +0.000 A 
ATOM     30  C   UNL     1       5.144   5.943  15.251  0.00  0.00    +0.000 A 
ENDBRANCH  24  25
ENDBRANCH   5  24
TORSDOF 7
ENDMDL
MODEL 6
REMARK VINA RESULT:      -6.8      2.958      6.647
REMARK  Name = 
REMARK  9 active torsions:
REMARK  status: ('A' for Active; 'I' for Inactive)
REMARK    1  A    between atoms: C_1  and  N_2
REMARK    2  A    between atoms: N_2  and  C_3
REMARK    3  A    between atoms: N_2  and  C_4
REMARK    4  A    between atoms: C_9  and  C_10
REMARK    5  A    between atoms: C_10  and  S_11
REMARK    6  A    between atoms: S_11  and  C_13
REMARK    7  A    between atoms: C_15  and  C_16
REMARK    8  A    between atoms: N_23  and  C_24
REMARK    9  A    between atoms: C_24  and  C_25
REMARK                            x       y       z     vdW  Elec       q    Type
REMARK                         _______ _______ _______ _____ _____    ______ ____
ROOT
ATOM      1  C   UNL     1       0.444   9.800  19.697  0.00  0.00    +0.000 A 
ATOM      2  N   UNL     1      -0.162   9.706  18.536  0.00  0.00    +0.000 NA
ATOM      3  C   UNL     1      -1.225  10.566  18.574  0.00  0.00    +0.000 A 
ATOM      4  C   UNL     1      -1.211  11.275  19.748  0.00  0.00    +0.000 A 
ATOM      5  N   UNL     1      -0.108  10.818  20.446  0.00  0.00    +0.000 N 
ENDROOT
BRANCH   3   6
ATOM      6  C   UNL     1      -2.203  10.584  17.501  0.00  0.00    +0.000 A 
ATOM      7  C   UNL     1      -3.322  11.422  17.640  0.00  0.00    +0.000 A 
ATOM      8  C   UNL     1      -4.271  11.529  16.627  0.00  0.00    +0.000 A 
ATOM      9  C   UNL     1      -4.114  10.791  15.460  0.00  0.00    +0.000 A 
ATOM     10  C   UNL     1      -3.013   9.946  15.310  0.00  0.00    +0.000 A 
ATOM     11  C   UNL     1      -2.059   9.840  16.327  0.00  0.00    +0.000 A 
ENDBRANCH   3   6
BRANCH   1  12
ATOM     12  S   UNL     1       1.743   8.701  20.073  0.00  0.00    +0.000 S 
ATOM     13  O   UNL     1       1.324   7.902  21.359  0.00  0.00    +0.000 OA
BRANCH  12  14
ATOM     14  C   UNL     1       1.642   7.626  18.558  0.00  0.00    +0.000 C 
BRANCH  14  20
ATOM     15  C   UNL     1       3.016   5.412  18.517  0.00  0.00    +0.000 A 
ATOM     16  C   UNL     1       4.206   4.773  18.086  0.00  0.00    +0.000 A 
ATOM     17  C   UNL     1       5.213   5.420  17.369  0.00  0.00    +0.000 A 
ATOM     18  C   UNL     1       5.063   6.752  17.047  0.00  0.00    +0.000 A 
ATOM     19  C   UNL     1       3.908   7.426  17.439  0.00  0.00    +0.000 A 
ATOM     20  C   UNL     1       2.866   6.796  18.163  0.00  0.00    +0.000 A 
BRANCH  15  22
ATOM     21  C   UNL     1       2.021   4.640  20.688  0.00  0.00    +0.000 C 
ATOM     22  N   UNL     1       2.079   4.648  19.219  0.00  0.00    +0.000 N 
ATOM     23  C   UNL     1       1.256   3.654  18.547  0.00  0.00    +0.000 C 
ENDBRANCH  15  22
ENDBRANCH  14  20
ENDBRANCH  12  14
ENDBRANCH   1  12
BRANCH   5  24
ATOM     24  C   UNL     1       0.251  11.289  21.777  0.00  0.00    +0.000 C 
BRANCH  24  25
ATOM     25  C   UNL     1      -0.824  12.141  22.418  0.00  0.00    +0.000 A 
ATOM     26  C   UNL     1      -1.961  11.565  23.011  0.00  0.00    +0.000 A 
ATOM     27  C   UNL     1      -2.918  12.365  23.646  0.00  0.00    +0.000 A 
ATOM     28  C   UNL     1      -2.753  13.746  23.695  0.00  0.00    +0.000 A 
ATOM     29  C   UNL     1      -1.632  14.330  23.107  0.00  0.00    +0.000 A 
ATOM     30  C   UNL     1      -0.674  13.534  22.472  0.00  0.00    +0.000 A 
ENDBRANCH  24  25
ENDBRANCH   5  24
TORSDOF 7
ENDMDL
MODEL 7
REMARK VINA RESULT:      -6.8      3.006      8.731
REMARK  Name = 
REMARK  9 active torsions:
REMARK  status: ('A' for Active; 'I' for Inactive)
REMARK    1  A    between atoms: C_1  and  N_2
REMARK    2  A    between atoms: N_2  and  C_3
REMARK    3  A    between atoms: N_2  and  C_4
REMARK    4  A    between atoms: C_9  and  C_10
REMARK    5  A    between atoms: C_10  and  S_11
REMARK    6  A    between atoms: S_11  and  C_13
REMARK    7  A    between atoms: C_15  and  C_16
REMARK    8  A    between atoms: N_23  and  C_24
REMARK    9  A    between atoms: C_24  and  C_25
REMARK                            x       y       z     vdW  Elec       q    Type
REMARK                         _______ _______ _______ _____ _____    ______ ____
ROOT
ATOM      1  C   UNL     1       1.114   8.948  20.081  0.00  0.00    +0.000 A 
ATOM      2  N   UNL     1       1.770   7.816  20.195  0.00  0.00    +0.000 NA
ATOM      3  C   UNL     1       2.210   7.485  18.944  0.00  0.00    +0.000 A 
ATOM      4  C   UNL     1       1.901   8.488  18.059  0.00  0.00    +0.000 A 
ATOM      5  N   UNL     1       1.243   9.450  18.803  0.00  0.00    +0.000 N 
ENDROOT
BRANCH   3   6
ATOM      6  C   UNL     1       2.833   6.198  18.693  0.00  0.00    +0.000 A 
ATOM      7  C   UNL     1       2.116   5.250  17.945  0.00  0.00    +0.000 A 
ATOM      8  C   UNL     1       2.674   4.016  17.621  0.00  0.00    +0.000 A 
ATOM      9  C   UNL     1       3.961   3.713  18.050  0.00  0.00    +0.000 A 
ATOM     10  C   UNL     1       4.684   4.640  18.802  0.00  0.00    +0.000 A 
ATOM     11  C   UNL     1       4.124   5.880  19.125  0.00  0.00    +0.000 A 
ENDBRANCH   3   6
BRANCH   1  12
ATOM     12  S   UNL     1       0.250   9.576  21.457  0.00  0.00    +0.000 S 
ATOM     13  O   UNL     1       0.850   8.895  22.739  0.00  0.00    +0.000 OA
BRANCH  12  14
ATOM     14  C   UNL     1       0.788  11.353  21.334  0.00  0.00    +0.000 C 
BRANCH  14  20
ATOM     15  C   UNL     1       0.100  13.841  21.685  0.00  0.00    +0.000 A 
ATOM     16  C   UNL     1      -0.830  14.733  22.278  0.00  0.00    +0.000 A 
ATOM     17  C   UNL     1      -1.913  14.317  23.052  0.00  0.00    +0.000 A 
ATOM     18  C   UNL     1      -2.113  12.970  23.264  0.00  0.00    +0.000 A 
ATOM     19  C   UNL     1      -1.233  12.049  22.697  0.00  0.00    +0.000 A 
ATOM     20  C   UNL     1      -0.128  12.440  21.902  0.00  0.00    +0.000 A 
BRANCH  15  22
ATOM     21  C   UNL     1       1.068  14.467  19.455  0.00  0.00    +0.000 C 
ATOM     22  N   UNL     1       1.137  14.387  20.922  0.00  0.00    +0.000 N 
ATOM     23  C   UNL     1       2.427  14.703  21.514  0.00  0.00    +0.000 C 
ENDBRANCH  15  22
ENDBRANCH  14  20
ENDBRANCH  12  14
ENDBRANCH   1  12
BRANCH   5  24
ATOM     24  C   UNL     1       0.702  10.676  18.231  0.00  0.00    +0.000 C 
BRANCH  24  25
ATOM     25  C   UNL     1      -0.807  10.664  18.114  0.00  0.00    +0.000 A 
ATOM     26  C   UNL     1      -1.599  11.634  18.754  0.00  0.00    +0.000 A 
ATOM     27  C   UNL     1      -2.989  11.641  18.591  0.00  0.00    +0.000 A 
ATOM     28  C   UNL     1      -3.604  10.680  17.794  0.00  0.00    +0.000 A 
ATOM     29  C   UNL     1      -2.831   9.710  17.159  0.00  0.00    +0.000 A 
ATOM     30  C   UNL     1      -1.442   9.701  17.318  0.00  0.00    +0.000 A 
ENDBRANCH  24  25
ENDBRANCH   5  24
TORSDOF 7
ENDMDL
MODEL 8
REMARK VINA RESULT:      -6.8      1.580      7.480
REMARK  Name = 
REMARK  9 active torsions:
REMARK  status: ('A' for Active; 'I' for Inactive)
REMARK    1  A    between atoms: C_1  and  N_2
REMARK    2  A    between atoms: N_2  and  C_3
REMARK    3  A    between atoms: N_2  and  C_4
REMARK    4  A    between atoms: C_9  and  C_10
REMARK    5  A    between atoms: C_10  and  S_11
REMARK    6  A    between atoms: S_11  and  C_13
REMARK    7  A    between atoms: C_15  and  C_16
REMARK    8  A    between atoms: N_23  and  C_24
REMARK    9  A    between atoms: C_24  and  C_25
REMARK                            x       y       z     vdW  Elec       q    Type
REMARK                         _______ _______ _______ _____ _____    ______ ____
ROOT
ATOM      1  C   UNL     1       2.589   7.790  18.772  0.00  0.00    +0.000 A 
ATOM      2  N   UNL     1       2.096   6.992  19.691  0.00  0.00    +0.000 NA
ATOM      3  C   UNL     1       2.575   5.739  19.426  0.00  0.00    +0.000 A 
ATOM      4  C   UNL     1       3.462   5.789  18.380  0.00  0.00    +0.000 A 
ATOM      5  N   UNL     1       3.508   7.116  17.995  0.00  0.00    +0.000 N 
ENDROOT
BRANCH   3   6
ATOM      6  C   UNL     1       2.087   4.588  20.163  0.00  0.00    +0.000 A 
ATOM      7  C   UNL     1       1.182   3.726  19.520  0.00  0.00    +0.000 A 
ATOM      8  C   UNL     1       0.714   2.574  20.149  0.00  0.00    +0.000 A 
ATOM      9  C   UNL     1       1.145   2.273  21.435  0.00  0.00    +0.000 A 
ATOM     10  C   UNL     1       2.036   3.123  22.091  0.00  0.00    +0.000 A 
ATOM     11  C   UNL     1       2.507   4.279  21.460  0.00  0.00    +0.000 A 
ENDBRANCH   3   6
BRANCH   1  12
ATOM     12  S   UNL     1       2.038   9.441  18.689  0.00  0.00    +0.000 S 
ATOM     13  O   UNL     1       2.078   9.874  17.180  0.00  0.00    +0.000 OA
BRANCH  12  14
ATOM     14  C   UNL     1       0.287   9.176  19.259  0.00  0.00    +0.000 C 
BRANCH  14  20
ATOM     15  C   UNL     1      -0.658  11.163  20.655  0.00  0.00    +0.000 A 
ATOM     16  C   UNL     1      -1.033  11.624  21.943  0.00  0.00    +0.000 A 
ATOM     17  C   UNL     1      -0.929  10.851  23.100  0.00  0.00    +0.000 A 
ATOM     18  C   UNL     1      -0.440   9.566  23.011  0.00  0.00    +0.000 A 
ATOM     19  C   UNL     1      -0.064   9.060  21.768  0.00  0.00    +0.000 A 
ATOM     20  C   UNL     1      -0.163   9.817  20.575  0.00  0.00    +0.000 A 
BRANCH  15  22
ATOM     21  C   UNL     1       0.200  13.023  19.205  0.00  0.00    +0.000 C 
ATOM     22  N   UNL     1      -0.823  12.033  19.574  0.00  0.00    +0.000 N 
ATOM     23  C   UNL     1      -2.102  12.158  18.891  0.00  0.00    +0.000 C 
ENDBRANCH  15  22
ENDBRANCH  14  20
ENDBRANCH  12  14
ENDBRANCH   1  12
BRANCH   5  24
ATOM     24  C   UNL     1       4.309   7.600  16.878  0.00  0.00    +0.000 C 
BRANCH  24  25
ATOM     25  C   UNL     1       5.316   6.584  16.383  0.00  0.00    +0.000 A 
ATOM     26  C   UNL     1       5.141   5.913  15.160  0.00  0.00    +0.000 A 
ATOM     27  C   UNL     1       6.109   5.018  14.692  0.00  0.00    +0.000 A 
ATOM     28  C   UNL     1       7.259   4.779  15.438  0.00  0.00    +0.000 A 
ATOM     29  C   UNL     1       7.443   5.434  16.654  0.00  0.00    +0.000 A 
ATOM     30  C   UNL     1       6.479   6.330  17.125  0.00  0.00    +0.000 A 
ENDBRANCH  24  25
ENDBRANCH   5  24
TORSDOF 7
ENDMDL
MODEL 9
REMARK VINA RESULT:      -6.8      3.045      9.034
REMARK  Name = 
REMARK  9 active torsions:
REMARK  status: ('A' for Active; 'I' for Inactive)
REMARK    1  A    between atoms: C_1  and  N_2
REMARK    2  A    between atoms: N_2  and  C_3
REMARK    3  A    between atoms: N_2  and  C_4
REMARK    4  A    between atoms: C_9  and  C_10
REMARK    5  A    between atoms: C_10  and  S_11
REMARK    6  A    between atoms: S_11  and  C_13
REMARK    7  A    between atoms: C_15  and  C_16
REMARK    8  A    between atoms: N_23  and  C_24
REMARK    9  A    between atoms: C_24  and  C_25
REMARK                            x       y       z     vdW  Elec       q    Type
REMARK                         _______ _______ _______ _____ _____    ______ ____
ROOT
ATOM      1  C   UNL     1       1.061   9.397  20.070  0.00  0.00    +0.000 A 
ATOM      2  N   UNL     1       1.829   8.338  19.955  0.00  0.00    +0.000 NA
ATOM      3  C   UNL     1       2.120   8.202  18.626  0.00  0.00    +0.000 A 
ATOM      4  C   UNL     1       1.600   9.260  17.923  0.00  0.00    +0.000 A 
ATOM      5  N   UNL     1       0.964  10.053  18.860  0.00  0.00    +0.000 N 
ENDROOT
BRANCH   3   6
ATOM      6  C   UNL     1       2.820   7.028  18.136  0.00  0.00    +0.000 A 
ATOM      7  C   UNL     1       2.212   5.773  18.315  0.00  0.00    +0.000 A 
ATOM      8  C   UNL     1       2.802   4.612  17.823  0.00  0.00    +0.000 A 
ATOM      9  C   UNL     1       4.014   4.692  17.148  0.00  0.00    +0.000 A 
ATOM     10  C   UNL     1       4.635   5.930  16.970  0.00  0.00    +0.000 A 
ATOM     11  C   UNL     1       4.042   7.096  17.463  0.00  0.00    +0.000 A 
ENDBRANCH   3   6
BRANCH   1  12
ATOM     12  S   UNL     1       0.341   9.766  21.613  0.00  0.00    +0.000 S 
ATOM     13  O   UNL     1       1.330   9.262  22.725  0.00  0.00    +0.000 OA
BRANCH  12  14
ATOM     14  C   UNL     1       0.365  11.623  21.492  0.00  0.00    +0.000 C 
BRANCH  14  20
ATOM     15  C   UNL     1      -0.561  13.820  22.541  0.00  0.00    +0.000 A 
ATOM     16  C   UNL     1      -1.628  14.428  23.252  0.00  0.00    +0.000 A 
ATOM     17  C   UNL     1      -2.764  13.738  23.676  0.00  0.00    +0.000 A 
ATOM     18  C   UNL     1      -2.880  12.393  23.399  0.00  0.00    +0.000 A 
ATOM     19  C   UNL     1      -1.863  11.748  22.696  0.00  0.00    +0.000 A 
ATOM     20  C   UNL     1      -0.701  12.422  22.247  0.00  0.00    +0.000 A 
BRANCH  15  22
ATOM     21  C   UNL     1       0.583  16.054  22.507  0.00  0.00    +0.000 C 
ATOM     22  N   UNL     1       0.517  14.626  22.163  0.00  0.00    +0.000 N 
ATOM     23  C   UNL     1       1.523  14.153  21.224  0.00  0.00    +0.000 C 
ENDBRANCH  15  22
ENDBRANCH  14  20
ENDBRANCH  12  14
ENDBRANCH   1  12
BRANCH   5  24
ATOM     24  C   UNL     1       0.239  11.270  18.523  0.00  0.00    +0.000 C 
BRANCH  24  25
ATOM     25  C   UNL     1      -1.226  11.028  18.227  0.00  0.00    +0.000 A 
ATOM     26  C   UNL     1      -1.642   9.983  17.383  0.00  0.00    +0.000 A 
ATOM     27  C   UNL     1      -3.002   9.740  17.164  0.00  0.00    +0.000 A 
ATOM     28  C   UNL     1      -3.962  10.538  17.780  0.00  0.00    +0.000 A 
ATOM     29  C   UNL     1      -3.564  11.580  18.614  0.00  0.00    +0.000 A 
ATOM     30  C   UNL     1      -2.206  11.825  18.837  0.00  0.00    +0.000 A 
ENDBRANCH  24  25
ENDBRANCH   5  24
TORSDOF 7
ENDMDL
