MODEL 1
REMARK VINA RESULT:      -6.7      0.000      0.000
REMARK  Name = 
REMARK  11 active torsions:
REMARK  status: ('A' for Active; 'I' for Inactive)
REMARK    1  A    between atoms: C_1  and  O_2
REMARK    2  A    between atoms: O_2  and  C_3
REMARK    3  A    between atoms: C_3  and  C_5
REMARK    4  A    between atoms: C_5  and  O_6
REMARK    5  A    between atoms: O_6  and  N_7
REMARK    6  A    between atoms: C_8  and  C_9
REMARK    7  A    between atoms: CA_10  and  C_11
REMARK    8  A    between atoms: C_11  and  OXT_13
REMARK    9  A    between atoms: CA_17  and  N_18
REMARK   10  A    between atoms: C_19  and  C_21
REMARK   11  A    between atoms: C_21  and  C_22
REMARK                            x       y       z     vdW  Elec       q    Type
REMARK                         _______ _______ _______ _____ _____    ______ ____
ROOT
ATOM      1  C   UNL     1       4.435   5.285  17.263  0.00  0.00    +0.000 C 
ATOM      2  CA  UNL     1       3.842   4.531  18.219  0.00  0.00    +0.000 C 
ATOM      3  N   UNL     1       2.828   5.073  18.968  0.00  0.00    +0.000 N 
ATOM      4  C   UNL     1       2.485   5.049  20.280  0.00  0.00    +0.000 C 
ATOM      5  O   UNL     1       2.886   4.449  21.255  0.00  0.00    +0.000 OA
ATOM      6  CA  UNL     1       1.516   6.242  20.077  0.00  0.00    +0.000 C 
ATOM      7  C   UNL     1       2.123   6.306  18.646  0.00  0.00    +0.000 C 
ATOM      8  S   UNL     1       3.344   7.613  18.325  0.00  0.00    +0.000 S 
ATOM      9  C   UNL     1       4.124   6.729  16.950  0.00  0.00    +0.000 C 
ENDROOT
BRANCH   6  10
ATOM     10  N   UNL     1       1.718   7.414  20.975  0.00  0.00    +0.000 N 
ATOM     11  C   UNL     1       0.648   8.131  21.463  0.00  0.00    +0.000 C 
ATOM     12  O   UNL     1      -0.512   7.878  21.142  0.00  0.00    +0.000 OA
ATOM     13  H   UNL     1       2.653   7.636  21.305  0.00  0.00    +0.000 HD
BRANCH  11  14
ATOM     14  C   UNL     1       1.014   9.244  22.430  0.00  0.00    +0.000 C 
BRANCH  14  15
ATOM     15  C   UNL     1       0.259  10.488  22.077  0.00  0.00    +0.000 A 
ATOM     16  C   UNL     1       0.520  11.390  21.065  0.00  0.00    +0.000 A 
ATOM     17  C   UNL     1      -0.436  12.446  21.018  0.00  0.00    +0.000 A 
ATOM     18  C   UNL     1      -1.387  12.324  22.005  0.00  0.00    +0.000 A 
ATOM     19  S   UNL     1      -1.119  10.951  22.989  0.00  0.00    +0.000 S 
ENDBRANCH  14  15
ENDBRANCH  11  14
ENDBRANCH   6  10
BRANCH   1  21
ATOM     20  N   UNL     1       6.614   5.510  16.244  0.00  0.00    +0.000 NA
ATOM     21  C   UNL     1       5.561   4.781  16.436  0.00  0.00    +0.000 C 
BRANCH  20  22
ATOM     22  O   UNL     1       7.495   4.819  15.400  0.00  0.00    +0.000 OA
BRANCH  22  23
ATOM     23  C   UNL     1       6.798   4.430  14.220  0.00  0.00    +0.000 C 
BRANCH  23  24
ATOM     24  C   UNL     1       7.531   4.929  12.991  0.00  0.00    +0.000 C 
ATOM     25  O   UNL     1       8.312   5.869  12.951  0.00  0.00    +0.000 OA
BRANCH  24  27
ATOM     26  C   UNL     1       6.097   3.279  12.150  0.00  0.00    +0.000 C 
ATOM     27  O   UNL     1       7.201   4.156  11.915  0.00  0.00    +0.000 OA
ENDBRANCH  24  27
ENDBRANCH  23  24
ENDBRANCH  22  23
ENDBRANCH  20  22
ENDBRANCH   1  21
BRANCH   2  28
ATOM     28  C   UNL     1       4.190   3.091  18.514  0.00  0.00    +0.000 C 
ATOM     29  O   UNL     1       3.725   2.140  17.909  0.00  0.00    +0.000 OA
BRANCH  28  30
ATOM     30  OXT UNL     1       5.148   2.900  19.447  0.00  0.00    +0.000 OA
ATOM     31  HXT UNL     1       5.798   3.607  19.599  0.00  0.00    +0.000 HD
ENDBRANCH  28  30
ENDBRANCH   2  28
TORSDOF 10
ENDMDL
MODEL 2
REMARK VINA RESULT:      -6.2      0.865      1.314
REMARK  Name = 
REMARK  11 active torsions:
REMARK  status: ('A' for Active; 'I' for Inactive)
REMARK    1  A    between atoms: C_1  and  O_2
REMARK    2  A    between atoms: O_2  and  C_3
REMARK    3  A    between atoms: C_3  and  C_5
REMARK    4  A    between atoms: C_5  and  O_6
REMARK    5  A    between atoms: O_6  and  N_7
REMARK    6  A    between atoms: C_8  and  C_9
REMARK    7  A    between atoms: CA_10  and  C_11
REMARK    8  A    between atoms: C_11  and  OXT_13
REMARK    9  A    between atoms: CA_17  and  N_18
REMARK   10  A    between atoms: C_19  and  C_21
REMARK   11  A    between atoms: C_21  and  C_22
REMARK                            x       y       z     vdW  Elec       q    Type
REMARK                         _______ _______ _______ _____ _____    ______ ____
ROOT
ATOM      1  C   UNL     1       4.121   5.311  17.452  0.00  0.00    +0.000 C 
ATOM      2  CA  UNL     1       3.588   4.562  18.445  0.00  0.00    +0.000 C 
ATOM      3  N   UNL     1       2.587   5.091  19.221  0.00  0.00    +0.000 N 
ATOM      4  C   UNL     1       2.294   5.087  20.545  0.00  0.00    +0.000 C 
ATOM      5  O   UNL     1       2.750   4.521  21.517  0.00  0.00    +0.000 OA
ATOM      6  CA  UNL     1       1.282   6.244  20.353  0.00  0.00    +0.000 C 
ATOM      7  C   UNL     1       1.831   6.294  18.899  0.00  0.00    +0.000 C 
ATOM      8  S   UNL     1       2.999   7.630  18.503  0.00  0.00    +0.000 S 
ATOM      9  C   UNL     1       3.753   6.738  17.118  0.00  0.00    +0.000 C 
ENDROOT
BRANCH   6  10
ATOM     10  N   UNL     1       1.480   7.442  21.217  0.00  0.00    +0.000 N 
ATOM     11  C   UNL     1       0.408   8.169  21.686  0.00  0.00    +0.000 C 
ATOM     12  O   UNL     1      -0.751   7.903  21.375  0.00  0.00    +0.000 OA
ATOM     13  H   UNL     1       2.415   7.677  21.538  0.00  0.00    +0.000 HD
BRANCH  11  14
ATOM     14  C   UNL     1       0.772   9.311  22.621  0.00  0.00    +0.000 C 
BRANCH  14  15
ATOM     15  C   UNL     1      -0.167  10.458  22.405  0.00  0.00    +0.000 A 
ATOM     16  C   UNL     1      -1.239  10.845  23.185  0.00  0.00    +0.000 A 
ATOM     17  C   UNL     1      -1.889  12.006  22.676  0.00  0.00    +0.000 A 
ATOM     18  C   UNL     1      -1.303  12.458  21.516  0.00  0.00    +0.000 A 
ATOM     19  S   UNL     1       0.017  11.480  21.039  0.00  0.00    +0.000 S 
ENDBRANCH  14  15
ENDBRANCH  11  14
ENDBRANCH   6  10
BRANCH   1  21
ATOM     20  N   UNL     1       6.457   4.885  17.004  0.00  0.00    +0.000 NA
ATOM     21  C   UNL     1       5.230   4.823  16.593  0.00  0.00    +0.000 C 
BRANCH  20  22
ATOM     22  O   UNL     1       7.298   4.403  15.992  0.00  0.00    +0.000 OA
BRANCH  22  23
ATOM     23  C   UNL     1       6.507   3.752  15.002  0.00  0.00    +0.000 C 
BRANCH  23  24
ATOM     24  C   UNL     1       6.842   4.293  13.627  0.00  0.00    +0.000 C 
ATOM     25  O   UNL     1       6.617   3.738  12.560  0.00  0.00    +0.000 OA
BRANCH  24  27
ATOM     26  C   UNL     1       8.463   5.762  12.790  0.00  0.00    +0.000 C 
ATOM     27  O   UNL     1       7.431   5.519  13.748  0.00  0.00    +0.000 OA
ENDBRANCH  24  27
ENDBRANCH  23  24
ENDBRANCH  22  23
ENDBRANCH  20  22
ENDBRANCH   1  21
BRANCH   2  28
ATOM     28  C   UNL     1       3.991   3.141  18.758  0.00  0.00    +0.000 C 
ATOM     29  O   UNL     1       3.371   2.159  18.386  0.00  0.00    +0.000 OA
BRANCH  28  30
ATOM     30  OXT UNL     1       5.167   2.996  19.409  0.00  0.00    +0.000 OA
ATOM     31  HXT UNL     1       5.898   2.545  18.954  0.00  0.00    +0.000 HD
ENDBRANCH  28  30
ENDBRANCH   2  28
TORSDOF 10
ENDMDL
MODEL 3
REMARK VINA RESULT:      -6.0      3.658      6.793
REMARK  Name = 
REMARK  11 active torsions:
REMARK  status: ('A' for Active; 'I' for Inactive)
REMARK    1  A    between atoms: C_1  and  O_2
REMARK    2  A    between atoms: O_2  and  C_3
REMARK    3  A    between atoms: C_3  and  C_5
REMARK    4  A    between atoms: C_5  and  O_6
REMARK    5  A    between atoms: O_6  and  N_7
REMARK    6  A    between atoms: C_8  and  C_9
REMARK    7  A    between atoms: CA_10  and  C_11
REMARK    8  A    between atoms: C_11  and  OXT_13
REMARK    9  A    between atoms: CA_17  and  N_18
REMARK   10  A    between atoms: C_19  and  C_21
REMARK   11  A    between atoms: C_21  and  C_22
REMARK                            x       y       z     vdW  Elec       q    Type
REMARK                         _______ _______ _______ _____ _____    ______ ____
ROOT
ATOM      1  C   UNL     1       1.266   8.829  20.498  0.00  0.00    +0.000 C 
ATOM      2  CA  UNL     1       0.763   9.835  19.747  0.00  0.00    +0.000 C 
ATOM      3  N   UNL     1       0.122  10.880  20.365  0.00  0.00    +0.000 N 
ATOM      4  C   UNL     1      -1.001  11.599  20.119  0.00  0.00    +0.000 C 
ATOM      5  O   UNL     1      -1.793  11.656  19.201  0.00  0.00    +0.000 OA
ATOM      6  CA  UNL     1      -0.986  12.168  21.560  0.00  0.00    +0.000 C 
ATOM      7  C   UNL     1       0.176  11.160  21.794  0.00  0.00    +0.000 C 
ATOM      8  S   UNL     1      -0.223   9.638  22.704  0.00  0.00    +0.000 S 
ATOM      9  C   UNL     1       1.156   8.699  21.999  0.00  0.00    +0.000 C 
ENDROOT
BRANCH   6  10
ATOM     10  N   UNL     1      -2.236  11.989  22.351  0.00  0.00    +0.000 N 
ATOM     11  C   UNL     1      -2.800  13.040  23.042  0.00  0.00    +0.000 C 
ATOM     12  O   UNL     1      -2.276  14.152  23.086  0.00  0.00    +0.000 OA
ATOM     13  H   UNL     1      -2.731  11.103  22.311  0.00  0.00    +0.000 HD
BRANCH  11  14
ATOM     14  C   UNL     1      -4.116  12.717  23.730  0.00  0.00    +0.000 C 
BRANCH  14  15
ATOM     15  C   UNL     1      -5.256  13.220  22.900  0.00  0.00    +0.000 A 
ATOM     16  C   UNL     1      -5.719  12.729  21.695  0.00  0.00    +0.000 A 
ATOM     17  C   UNL     1      -6.846  13.454  21.211  0.00  0.00    +0.000 A 
ATOM     18  C   UNL     1      -7.197  14.484  22.053  0.00  0.00    +0.000 A 
ATOM     19  S   UNL     1      -6.165  14.582  23.413  0.00  0.00    +0.000 S 
ENDBRANCH  14  15
ENDBRANCH  11  14
ENDBRANCH   6  10
BRANCH   1  21
ATOM     20  N   UNL     1       1.937   6.508  20.512  0.00  0.00    +0.000 NA
ATOM     21  C   UNL     1       1.941   7.649  19.900  0.00  0.00    +0.000 C 
BRANCH  20  22
ATOM     22  O   UNL     1       2.674   5.585  19.757  0.00  0.00    +0.000 OA
BRANCH  22  23
ATOM     23  C   UNL     1       2.419   5.810  18.373  0.00  0.00    +0.000 C 
BRANCH  23  24
ATOM     24  C   UNL     1       2.163   4.493  17.668  0.00  0.00    +0.000 C 
ATOM     25  O   UNL     1       1.069   4.040  17.363  0.00  0.00    +0.000 OA
BRANCH  24  27
ATOM     26  C   UNL     1       3.464   2.569  17.975  0.00  0.00    +0.000 C 
ATOM     27  O   UNL     1       3.352   3.875  17.406  0.00  0.00    +0.000 OA
ENDBRANCH  24  27
ENDBRANCH  23  24
ENDBRANCH  22  23
ENDBRANCH  20  22
ENDBRANCH   1  21
BRANCH   2  28
ATOM     28  C   UNL     1       0.881   9.925  18.243  0.00  0.00    +0.000 C 
ATOM     29  O   UNL     1       1.938  10.046  17.648  0.00  0.00    +0.000 OA
BRANCH  28  30
ATOM     30  OXT UNL     1      -0.271   9.762  17.555  0.00  0.00    +0.000 OA
ATOM     31  HXT UNL     1      -0.777  10.552  17.301  0.00  0.00    +0.000 HD
ENDBRANCH  28  30
ENDBRANCH   2  28
TORSDOF 10
ENDMDL
MODEL 4
REMARK VINA RESULT:      -6.0      3.671      7.000
REMARK  Name = 
REMARK  11 active torsions:
REMARK  status: ('A' for Active; 'I' for Inactive)
REMARK    1  A    between atoms: C_1  and  O_2
REMARK    2  A    between atoms: O_2  and  C_3
REMARK    3  A    between atoms: C_3  and  C_5
REMARK    4  A    between atoms: C_5  and  O_6
REMARK    5  A    between atoms: O_6  and  N_7
REMARK    6  A    between atoms: C_8  and  C_9
REMARK    7  A    between atoms: CA_10  and  C_11
REMARK    8  A    between atoms: C_11  and  OXT_13
REMARK    9  A    between atoms: CA_17  and  N_18
REMARK   10  A    between atoms: C_19  and  C_21
REMARK   11  A    between atoms: C_21  and  C_22
REMARK                            x       y       z     vdW  Elec       q    Type
REMARK                         _______ _______ _______ _____ _____    ______ ____
ROOT
ATOM      1  C   UNL     1       1.134   9.033  20.687  0.00  0.00    +0.000 C 
ATOM      2  CA  UNL     1       0.554   9.974  19.906  0.00  0.00    +0.000 C 
ATOM      3  N   UNL     1      -0.135  11.004  20.496  0.00  0.00    +0.000 N 
ATOM      4  C   UNL     1      -1.305  11.644  20.247  0.00  0.00    +0.000 C 
ATOM      5  O   UNL     1      -2.118  11.614  19.348  0.00  0.00    +0.000 OA
ATOM      6  CA  UNL     1      -1.292  12.275  21.662  0.00  0.00    +0.000 C 
ATOM      7  C   UNL     1      -0.067  11.349  21.910  0.00  0.00    +0.000 C 
ATOM      8  S   UNL     1      -0.352   9.847  22.893  0.00  0.00    +0.000 S 
ATOM      9  C   UNL     1       1.065   8.962  22.194  0.00  0.00    +0.000 C 
ENDROOT
BRANCH   6  10
ATOM     10  N   UNL     1      -2.511  12.056  22.492  0.00  0.00    +0.000 N 
ATOM     11  C   UNL     1      -3.071  13.082  23.222  0.00  0.00    +0.000 C 
ATOM     12  O   UNL     1      -2.566  14.203  23.270  0.00  0.00    +0.000 OA
ATOM     13  H   UNL     1      -2.990  11.162  22.450  0.00  0.00    +0.000 HD
BRANCH  11  14
ATOM     14  C   UNL     1      -4.356  12.721  23.947  0.00  0.00    +0.000 C 
BRANCH  14  15
ATOM     15  C   UNL     1      -5.505  13.462  23.336  0.00  0.00    +0.000 A 
ATOM     16  C   UNL     1      -6.069  14.655  23.745  0.00  0.00    +0.000 A 
ATOM     17  C   UNL     1      -7.137  15.069  22.898  0.00  0.00    +0.000 A 
ATOM     18  C   UNL     1      -7.365  14.172  21.880  0.00  0.00    +0.000 A 
ATOM     19  S   UNL     1      -6.303  12.833  21.954  0.00  0.00    +0.000 S 
ENDBRANCH  14  15
ENDBRANCH  11  14
ENDBRANCH   6  10
BRANCH   1  21
ATOM     20  N   UNL     1       1.684   6.681  20.603  0.00  0.00    +0.000 NA
ATOM     21  C   UNL     1       1.865   7.870  20.122  0.00  0.00    +0.000 C 
BRANCH  20  22
ATOM     22  O   UNL     1       2.520   5.785  19.924  0.00  0.00    +0.000 OA
BRANCH  22  23
ATOM     23  C   UNL     1       2.315   5.932  18.521  0.00  0.00    +0.000 C 
BRANCH  23  24
ATOM     24  C   UNL     1       2.113   4.574  17.878  0.00  0.00    +0.000 C 
ATOM     25  O   UNL     1       1.092   4.182  17.330  0.00  0.00    +0.000 OA
BRANCH  24  27
ATOM     26  C   UNL     1       4.211   4.095  16.954  0.00  0.00    +0.000 C 
ATOM     27  O   UNL     1       3.258   3.840  17.988  0.00  0.00    +0.000 OA
ENDBRANCH  24  27
ENDBRANCH  23  24
ENDBRANCH  22  23
ENDBRANCH  20  22
ENDBRANCH   1  21
BRANCH   2  28
ATOM     28  C   UNL     1       0.633  10.005  18.398  0.00  0.00    +0.000 C 
ATOM     29  O   UNL     1      -0.238   9.575  17.660  0.00  0.00    +0.000 OA
BRANCH  28  30
ATOM     30  OXT UNL     1       1.707  10.643  17.882  0.00  0.00    +0.000 OA
ATOM     31  HXT UNL     1       2.504  10.124  17.680  0.00  0.00    +0.000 HD
ENDBRANCH  28  30
ENDBRANCH   2  28
TORSDOF 10
ENDMDL
MODEL 5
REMARK VINA RESULT:      -5.9      3.484      6.501
REMARK  Name = 
REMARK  11 active torsions:
REMARK  status: ('A' for Active; 'I' for Inactive)
REMARK    1  A    between atoms: C_1  and  O_2
REMARK    2  A    between atoms: O_2  and  C_3
REMARK    3  A    between atoms: C_3  and  C_5
REMARK    4  A    between atoms: C_5  and  O_6
REMARK    5  A    between atoms: O_6  and  N_7
REMARK    6  A    between atoms: C_8  and  C_9
REMARK    7  A    between atoms: CA_10  and  C_11
REMARK    8  A    between atoms: C_11  and  OXT_13
REMARK    9  A    between atoms: CA_17  and  N_18
REMARK   10  A    between atoms: C_19  and  C_21
REMARK   11  A    between atoms: C_21  and  C_22
REMARK                            x       y       z     vdW  Elec       q    Type
REMARK                         _______ _______ _______ _____ _____    ______ ____
ROOT
ATOM      1  C   UNL     1       1.360   8.626  20.338  0.00  0.00    +0.000 C 
ATOM      2  CA  UNL     1       0.902   9.691  19.641  0.00  0.00    +0.000 C 
ATOM      3  N   UNL     1       0.360  10.755  20.318  0.00  0.00    +0.000 N 
ATOM      4  C   UNL     1      -0.717  11.559  20.140  0.00  0.00    +0.000 C 
ATOM      5  O   UNL     1      -1.535  11.705  19.255  0.00  0.00    +0.000 OA
ATOM      6  CA  UNL     1      -0.609  12.074  21.597  0.00  0.00    +0.000 C 
ATOM      7  C   UNL     1       0.485  10.979  21.752  0.00  0.00    +0.000 C 
ATOM      8  S   UNL     1       0.013   9.457  22.626  0.00  0.00    +0.000 S 
ATOM      9  C   UNL     1       1.295   8.450  21.837  0.00  0.00    +0.000 C 
ENDROOT
BRANCH   6  10
ATOM     10  N   UNL     1      -1.839  11.954  22.430  0.00  0.00    +0.000 N 
ATOM     11  C   UNL     1      -2.554  13.069  22.812  0.00  0.00    +0.000 C 
ATOM     12  O   UNL     1      -2.186  14.210  22.535  0.00  0.00    +0.000 OA
ATOM     13  H   UNL     1      -2.209  11.033  22.647  0.00  0.00    +0.000 HD
BRANCH  11  14
ATOM     14  C   UNL     1      -3.827  12.776  23.587  0.00  0.00    +0.000 C 
BRANCH  14  15
ATOM     15  C   UNL     1      -5.005  12.834  22.663  0.00  0.00    +0.000 A 
ATOM     16  C   UNL     1      -5.026  12.667  21.292  0.00  0.00    +0.000 A 
ATOM     17  C   UNL     1      -6.341  12.767  20.753  0.00  0.00    +0.000 A 
ATOM     18  C   UNL     1      -7.279  13.022  21.728  0.00  0.00    +0.000 A 
ATOM     19  S   UNL     1      -6.573  13.152  23.280  0.00  0.00    +0.000 S 
ENDBRANCH  14  15
ENDBRANCH  11  14
ENDBRANCH   6  10
BRANCH   1  21
ATOM     20  N   UNL     1       1.924   6.277  20.278  0.00  0.00    +0.000 NA
ATOM     21  C   UNL     1       1.926   7.423  19.676  0.00  0.00    +0.000 C 
BRANCH  20  22
ATOM     22  O   UNL     1       2.551   5.332  19.454  0.00  0.00    +0.000 OA
BRANCH  22  23
ATOM     23  C   UNL     1       3.945   5.622  19.393  0.00  0.00    +0.000 C 
BRANCH  23  24
ATOM     24  C   UNL     1       4.704   4.429  18.846  0.00  0.00    +0.000 C 
ATOM     25  O   UNL     1       5.737   3.962  19.305  0.00  0.00    +0.000 OA
BRANCH  24  27
ATOM     26  C   UNL     1       3.753   2.536  17.846  0.00  0.00    +0.000 C 
ATOM     27  O   UNL     1       4.051   3.931  17.755  0.00  0.00    +0.000 OA
ENDBRANCH  24  27
ENDBRANCH  23  24
ENDBRANCH  22  23
ENDBRANCH  20  22
ENDBRANCH   1  21
BRANCH   2  28
ATOM     28  C   UNL     1       0.972   9.827  18.138  0.00  0.00    +0.000 C 
ATOM     29  O   UNL     1       2.011   9.936  17.511  0.00  0.00    +0.000 OA
BRANCH  28  30
ATOM     30  OXT UNL     1      -0.207   9.719  17.486  0.00  0.00    +0.000 OA
ATOM     31  HXT UNL     1      -1.007   9.521  18.001  0.00  0.00    +0.000 HD
ENDBRANCH  28  30
ENDBRANCH   2  28
TORSDOF 10
ENDMDL
MODEL 6
REMARK VINA RESULT:      -5.9      3.346      6.332
REMARK  Name = 
REMARK  11 active torsions:
REMARK  status: ('A' for Active; 'I' for Inactive)
REMARK    1  A    between atoms: C_1  and  O_2
REMARK    2  A    between atoms: O_2  and  C_3
REMARK    3  A    between atoms: C_3  and  C_5
REMARK    4  A    between atoms: C_5  and  O_6
REMARK    5  A    between atoms: O_6  and  N_7
REMARK    6  A    between atoms: C_8  and  C_9
REMARK    7  A    between atoms: CA_10  and  C_11
REMARK    8  A    between atoms: C_11  and  OXT_13
REMARK    9  A    between atoms: CA_17  and  N_18
REMARK   10  A    between atoms: C_19  and  C_21
REMARK   11  A    between atoms: C_21  and  C_22
REMARK                            x       y       z     vdW  Elec       q    Type
REMARK                         _______ _______ _______ _____ _____    ______ ____
ROOT
ATOM      1  C   UNL     1       1.491   8.514  20.304  0.00  0.00    +0.000 C 
ATOM      2  CA  UNL     1       1.025   9.546  19.561  0.00  0.00    +0.000 C 
ATOM      3  N   UNL     1       0.428  10.610  20.189  0.00  0.00    +0.000 N 
ATOM      4  C   UNL     1      -0.666  11.374  19.952  0.00  0.00    +0.000 C 
ATOM      5  O   UNL     1      -1.458  11.470  19.037  0.00  0.00    +0.000 OA
ATOM      6  CA  UNL     1      -0.625  11.932  21.397  0.00  0.00    +0.000 C 
ATOM      7  C   UNL     1       0.498  10.877  21.620  0.00  0.00    +0.000 C 
ATOM      8  S   UNL     1       0.042   9.366  22.521  0.00  0.00    +0.000 S 
ATOM      9  C   UNL     1       1.381   8.378  21.804  0.00  0.00    +0.000 C 
ENDROOT
BRANCH   6  10
ATOM     10  N   UNL     1      -1.878  11.797  22.192  0.00  0.00    +0.000 N 
ATOM     11  C   UNL     1      -2.186  12.689  23.195  0.00  0.00    +0.000 C 
ATOM     12  O   UNL     1      -1.425  13.599  23.520  0.00  0.00    +0.000 OA
ATOM     13  H   UNL     1      -2.560  11.090  21.934  0.00  0.00    +0.000 HD
BRANCH  11  14
ATOM     14  C   UNL     1      -3.537  12.465  23.855  0.00  0.00    +0.000 C 
BRANCH  14  15
ATOM     15  C   UNL     1      -4.583  13.269  23.148  0.00  0.00    +0.000 A 
ATOM     16  C   UNL     1      -5.363  12.899  22.069  0.00  0.00    +0.000 A 
ATOM     17  C   UNL     1      -6.273  13.924  21.680  0.00  0.00    +0.000 A 
ATOM     18  C   UNL     1      -6.149  15.048  22.464  0.00  0.00    +0.000 A 
ATOM     19  S   UNL     1      -4.932  14.871  23.653  0.00  0.00    +0.000 S 
ENDBRANCH  14  15
ENDBRANCH  11  14
ENDBRANCH   6  10
BRANCH   1  21
ATOM     20  N   UNL     1       2.066   6.168  20.296  0.00  0.00    +0.000 NA
ATOM     21  C   UNL     1       2.117   7.313  19.695  0.00  0.00    +0.000 C 
BRANCH  20  22
ATOM     22  O   UNL     1       2.764   5.223  19.532  0.00  0.00    +0.000 OA
BRANCH  22  23
ATOM     23  C   UNL     1       3.948   5.826  19.018  0.00  0.00    +0.000 C 
BRANCH  23  24
ATOM     24  C   UNL     1       5.019   4.775  18.801  0.00  0.00    +0.000 C 
ATOM     25  O   UNL     1       5.162   3.748  19.450  0.00  0.00    +0.000 OA
BRANCH  24  27
ATOM     26  C   UNL     1       7.180   4.759  17.899  0.00  0.00    +0.000 C 
ATOM     27  O   UNL     1       5.810   5.137  17.749  0.00  0.00    +0.000 OA
ENDBRANCH  24  27
ENDBRANCH  23  24
ENDBRANCH  22  23
ENDBRANCH  20  22
ENDBRANCH   1  21
BRANCH   2  28
ATOM     28  C   UNL     1       1.142   9.642  18.058  0.00  0.00    +0.000 C 
ATOM     29  O   UNL     1       2.202   9.695  17.458  0.00  0.00    +0.000 OA
BRANCH  28  30
ATOM     30  OXT UNL     1      -0.022   9.564  17.375  0.00  0.00    +0.000 OA
ATOM     31  HXT UNL     1      -0.824   9.291  17.852  0.00  0.00    +0.000 HD
ENDBRANCH  28  30
ENDBRANCH   2  28
TORSDOF 10
ENDMDL
MODEL 7
REMARK VINA RESULT:      -5.9      4.639      7.366
REMARK  Name = 
REMARK  11 active torsions:
REMARK  status: ('A' for Active; 'I' for Inactive)
REMARK    1  A    between atoms: C_1  and  O_2
REMARK    2  A    between atoms: O_2  and  C_3
REMARK    3  A    between atoms: C_3  and  C_5
REMARK    4  A    between atoms: C_5  and  O_6
REMARK    5  A    between atoms: O_6  and  N_7
REMARK    6  A    between atoms: C_8  and  C_9
REMARK    7  A    between atoms: CA_10  and  C_11
REMARK    8  A    between atoms: C_11  and  OXT_13
REMARK    9  A    between atoms: CA_17  and  N_18
REMARK   10  A    between atoms: C_19  and  C_21
REMARK   11  A    between atoms: C_21  and  C_22
REMARK                            x       y       z     vdW  Elec       q    Type
REMARK                         _______ _______ _______ _____ _____    ______ ____
ROOT
ATOM      1  C   UNL     1       1.356   8.633  19.886  0.00  0.00    +0.000 C 
ATOM      2  CA  UNL     1       0.712   9.463  20.739  0.00  0.00    +0.000 C 
ATOM      3  N   UNL     1       0.287  10.689  20.291  0.00  0.00    +0.000 N 
ATOM      4  C   UNL     1       0.287  11.948  20.794  0.00  0.00    +0.000 C 
ATOM      5  O   UNL     1       0.563  12.437  21.870  0.00  0.00    +0.000 OA
ATOM      6  CA  UNL     1      -0.006  12.538  19.391  0.00  0.00    +0.000 C 
ATOM      7  C   UNL     1       0.208  11.081  18.890  0.00  0.00    +0.000 C 
ATOM      8  S   UNL     1       1.796  10.709  18.087  0.00  0.00    +0.000 S 
ATOM      9  C   UNL     1       1.714   8.937  18.450  0.00  0.00    +0.000 C 
ENDROOT
BRANCH   6  10
ATOM     10  N   UNL     1       0.935  13.588  18.908  0.00  0.00    +0.000 N 
ATOM     11  C   UNL     1       0.606  14.925  18.972  0.00  0.00    +0.000 C 
ATOM     12  O   UNL     1      -0.491  15.312  19.372  0.00  0.00    +0.000 OA
ATOM     13  H   UNL     1       1.869  13.324  18.610  0.00  0.00    +0.000 HD
BRANCH  11  14
ATOM     14  C   UNL     1       1.703  15.874  18.519  0.00  0.00    +0.000 C 
BRANCH  14  15
ATOM     15  C   UNL     1       2.935  15.649  19.340  0.00  0.00    +0.000 A 
ATOM     16  C   UNL     1       3.087  15.773  20.707  0.00  0.00    +0.000 A 
ATOM     17  C   UNL     1       4.407  15.451  21.137  0.00  0.00    +0.000 A 
ATOM     18  C   UNL     1       5.223  15.107  20.084  0.00  0.00    +0.000 A 
ATOM     19  S   UNL     1       4.404  15.183  18.585  0.00  0.00    +0.000 S 
ENDBRANCH  14  15
ENDBRANCH  11  14
ENDBRANCH   6  10
BRANCH   1  21
ATOM     20  N   UNL     1       2.603   6.600  19.500  0.00  0.00    +0.000 NA
ATOM     21  C   UNL     1       1.876   7.307  20.305  0.00  0.00    +0.000 C 
BRANCH  20  22
ATOM     22  O   UNL     1       2.922   5.386  20.124  0.00  0.00    +0.000 OA
BRANCH  22  23
ATOM     23  C   UNL     1       1.873   5.038  21.023  0.00  0.00    +0.000 C 
BRANCH  23  24
ATOM     24  C   UNL     1       1.791   3.531  21.171  0.00  0.00    +0.000 C 
ATOM     25  O   UNL     1       2.303   2.866  22.060  0.00  0.00    +0.000 OA
BRANCH  24  27
ATOM     26  C   UNL     1       1.753   2.115  19.306  0.00  0.00    +0.000 C 
ATOM     27  O   UNL     1       1.038   3.012  20.157  0.00  0.00    +0.000 OA
ENDBRANCH  24  27
ENDBRANCH  23  24
ENDBRANCH  22  23
ENDBRANCH  20  22
ENDBRANCH   1  21
BRANCH   2  28
ATOM     28  C   UNL     1       0.382   9.130  22.175  0.00  0.00    +0.000 C 
ATOM     29  O   UNL     1       1.063   9.470  23.128  0.00  0.00    +0.000 OA
BRANCH  28  30
ATOM     30  OXT UNL     1      -0.797   8.499  22.372  0.00  0.00    +0.000 OA
ATOM     31  HXT UNL     1      -1.469   8.931  22.925  0.00  0.00    +0.000 HD
ENDBRANCH  28  30
ENDBRANCH   2  28
TORSDOF 10
ENDMDL
MODEL 8
REMARK VINA RESULT:      -5.8      4.191      7.009
REMARK  Name = 
REMARK  11 active torsions:
REMARK  status: ('A' for Active; 'I' for Inactive)
REMARK    1  A    between atoms: C_1  and  O_2
REMARK    2  A    between atoms: O_2  and  C_3
REMARK    3  A    between atoms: C_3  and  C_5
REMARK    4  A    between atoms: C_5  and  O_6
REMARK    5  A    between atoms: O_6  and  N_7
REMARK    6  A    between atoms: C_8  and  C_9
REMARK    7  A    between atoms: CA_10  and  C_11
REMARK    8  A    between atoms: C_11  and  OXT_13
REMARK    9  A    between atoms: CA_17  and  N_18
REMARK   10  A    between atoms: C_19  and  C_21
REMARK   11  A    between atoms: C_21  and  C_22
REMARK                            x       y       z     vdW  Elec       q    Type
REMARK                         _______ _______ _______ _____ _____    ______ ____
ROOT
ATOM      1  C   UNL     1       1.327   8.759  20.458  0.00  0.00    +0.000 C 
ATOM      2  CA  UNL     1       0.844   9.782  19.714  0.00  0.00    +0.000 C 
ATOM      3  N   UNL     1       0.221  10.832  20.341  0.00  0.00    +0.000 N 
ATOM      4  C   UNL     1      -0.887  11.574  20.098  0.00  0.00    +0.000 C 
ATOM      5  O   UNL     1      -1.674  11.656  19.178  0.00  0.00    +0.000 OA
ATOM      6  CA  UNL     1      -0.866  12.130  21.544  0.00  0.00    +0.000 C 
ATOM      7  C   UNL     1       0.276  11.098  21.773  0.00  0.00    +0.000 C 
ATOM      8  S   UNL     1      -0.154   9.575  22.667  0.00  0.00    +0.000 S 
ATOM      9  C   UNL     1       1.209   8.617  21.958  0.00  0.00    +0.000 C 
ENDROOT
BRANCH   6  10
ATOM     10  N   UNL     1      -2.122  11.967  22.331  0.00  0.00    +0.000 N 
ATOM     11  C   UNL     1      -2.511  12.910  23.257  0.00  0.00    +0.000 C 
ATOM     12  O   UNL     1      -1.822  13.894  23.519  0.00  0.00    +0.000 OA
ATOM     13  H   UNL     1      -2.747  11.195  22.119  0.00  0.00    +0.000 HD
BRANCH  11  14
ATOM     14  C   UNL     1      -3.855  12.642  23.914  0.00  0.00    +0.000 C 
BRANCH  14  15
ATOM     15  C   UNL     1      -4.939  13.330  23.144  0.00  0.00    +0.000 A 
ATOM     16  C   UNL     1      -5.555  12.918  21.979  0.00  0.00    +0.000 A 
ATOM     17  C   UNL     1      -6.566  13.825  21.549  0.00  0.00    +0.000 A 
ATOM     18  C   UNL     1      -6.679  14.908  22.391  0.00  0.00    +0.000 A 
ATOM     19  S   UNL     1      -5.562  14.834  23.685  0.00  0.00    +0.000 S 
ENDBRANCH  14  15
ENDBRANCH  11  14
ENDBRANCH   6  10
BRANCH   1  21
ATOM     20  N   UNL     1       1.817   6.395  20.366  0.00  0.00    +0.000 NA
ATOM     21  C   UNL     1       1.981   7.572  19.851  0.00  0.00    +0.000 C 
BRANCH  20  22
ATOM     22  O   UNL     1       2.572   5.470  19.630  0.00  0.00    +0.000 OA
BRANCH  22  23
ATOM     23  C   UNL     1       2.947   4.394  20.486  0.00  0.00    +0.000 C 
BRANCH  23  24
ATOM     24  C   UNL     1       2.226   3.125  20.075  0.00  0.00    +0.000 C 
ATOM     25  O   UNL     1       1.131   2.756  20.476  0.00  0.00    +0.000 OA
BRANCH  24  27
ATOM     26  C   UNL     1       2.386   2.351  17.870  0.00  0.00    +0.000 C 
ATOM     27  O   UNL     1       2.983   2.443  19.166  0.00  0.00    +0.000 OA
ENDBRANCH  24  27
ENDBRANCH  23  24
ENDBRANCH  22  23
ENDBRANCH  20  22
ENDBRANCH   1  21
BRANCH   2  28
ATOM     28  C   UNL     1       0.969   9.883  18.213  0.00  0.00    +0.000 C 
ATOM     29  O   UNL     1       2.027  10.033  17.625  0.00  0.00    +0.000 OA
BRANCH  28  30
ATOM     30  OXT UNL     1      -0.174   9.696  17.517  0.00  0.00    +0.000 OA
ATOM     31  HXT UNL     1      -1.020   9.723  17.996  0.00  0.00    +0.000 HD
ENDBRANCH  28  30
ENDBRANCH   2  28
TORSDOF 10
ENDMDL
MODEL 9
REMARK VINA RESULT:      -5.8      4.288      7.686
REMARK  Name = 
REMARK  11 active torsions:
REMARK  status: ('A' for Active; 'I' for Inactive)
REMARK    1  A    between atoms: C_1  and  O_2
REMARK    2  A    between atoms: O_2  and  C_3
REMARK    3  A    between atoms: C_3  and  C_5
REMARK    4  A    between atoms: C_5  and  O_6
REMARK    5  A    between atoms: O_6  and  N_7
REMARK    6  A    between atoms: C_8  and  C_9
REMARK    7  A    between atoms: CA_10  and  C_11
REMARK    8  A    between atoms: C_11  and  OXT_13
REMARK    9  A    between atoms: CA_17  and  N_18
REMARK   10  A    between atoms: C_19  and  C_21
REMARK   11  A    between atoms: C_21  and  C_22
REMARK                            x       y       z     vdW  Elec       q    Type
REMARK                         _______ _______ _______ _____ _____    ______ ____
ROOT
ATOM      1  C   UNL     1       0.777   9.499  20.901  0.00  0.00    +0.000 C 
ATOM      2  CA  UNL     1       0.157  10.422  20.129  0.00  0.00    +0.000 C 
ATOM      3  N   UNL     1      -0.594  11.402  20.728  0.00  0.00    +0.000 N 
ATOM      4  C   UNL     1      -1.793  11.982  20.474  0.00  0.00    +0.000 C 
ATOM      5  O   UNL     1      -2.593  11.926  19.563  0.00  0.00    +0.000 OA
ATOM      6  CA  UNL     1      -1.833  12.587  21.901  0.00  0.00    +0.000 C 
ATOM      7  C   UNL     1      -0.562  11.724  22.148  0.00  0.00    +0.000 C 
ATOM      8  S   UNL     1      -0.779  10.191  23.101  0.00  0.00    +0.000 S 
ATOM      9  C   UNL     1       0.693   9.397  22.406  0.00  0.00    +0.000 C 
ENDROOT
BRANCH   6  10
ATOM     10  N   UNL     1      -3.049  12.288  22.709  0.00  0.00    +0.000 N 
ATOM     11  C   UNL     1      -3.342  13.005  23.849  0.00  0.00    +0.000 C 
ATOM     12  O   UNL     1      -2.594  13.880  24.283  0.00  0.00    +0.000 OA
ATOM     13  H   UNL     1      -3.720  11.606  22.369  0.00  0.00    +0.000 HD
BRANCH  11  14
ATOM     14  C   UNL     1      -4.657  12.636  24.514  0.00  0.00    +0.000 C 
BRANCH  14  15
ATOM     15  C   UNL     1      -5.793  13.274  23.775  0.00  0.00    +0.000 A 
ATOM     16  C   UNL     1      -6.923  12.672  23.258  0.00  0.00    +0.000 A 
ATOM     17  C   UNL     1      -7.801  13.607  22.638  0.00  0.00    +0.000 A 
ATOM     18  C   UNL     1      -7.305  14.890  22.687  0.00  0.00    +0.000 A 
ATOM     19  S   UNL     1      -5.785  14.962  23.467  0.00  0.00    +0.000 S 
ENDBRANCH  14  15
ENDBRANCH  11  14
ENDBRANCH   6  10
BRANCH   1  21
ATOM     20  N   UNL     1       1.378   7.167  20.708  0.00  0.00    +0.000 NA
ATOM     21  C   UNL     1       1.577   8.388  20.326  0.00  0.00    +0.000 C 
BRANCH  20  22
ATOM     22  O   UNL     1       2.288   6.331  20.046  0.00  0.00    +0.000 OA
BRANCH  22  23
ATOM     23  C   UNL     1       2.256   5.041  20.651  0.00  0.00    +0.000 C 
BRANCH  23  24
ATOM     24  C   UNL     1       2.765   3.995  19.679  0.00  0.00    +0.000 C 
ATOM     25  O   UNL     1       3.354   4.214  18.629  0.00  0.00    +0.000 OA
BRANCH  24  27
ATOM     26  C   UNL     1       2.336   2.691  21.576  0.00  0.00    +0.000 C 
ATOM     27  O   UNL     1       2.479   2.748  20.155  0.00  0.00    +0.000 OA
ENDBRANCH  24  27
ENDBRANCH  23  24
ENDBRANCH  22  23
ENDBRANCH  20  22
ENDBRANCH   1  21
BRANCH   2  28
ATOM     28  C   UNL     1       0.253  10.485  18.623  0.00  0.00    +0.000 C 
ATOM     29  O   UNL     1      -0.514   9.915  17.866  0.00  0.00    +0.000 OA
BRANCH  28  30
ATOM     30  OXT UNL     1       1.203  11.311  18.132  0.00  0.00    +0.000 OA
ATOM     31  HXT UNL     1       2.134  11.124  18.338  0.00  0.00    +0.000 HD
ENDBRANCH  28  30
ENDBRANCH   2  28
TORSDOF 10
ENDMDL
