MODEL 1
REMARK VINA RESULT:      -7.7      0.000      0.000
REMARK  Name = 
REMARK  3 active torsions:
REMARK  status: ('A' for Active; 'I' for Inactive)
REMARK    1  A    between atoms: C_2  and  C_4
REMARK    2  A    between atoms: C_4  and  C_5
REMARK    3  A    between atoms: C_11  and  C_12
REMARK                            x       y       z     vdW  Elec       q    Type
REMARK                         _______ _______ _______ _____ _____    ______ ____
ROOT
ATOM      1  C   UNL     1       3.210   4.113  19.780  0.00  0.00    +0.000 A 
ATOM      2  C   UNL     1       2.136   4.480  20.624  0.00  0.00    +0.000 A 
ATOM      3  F   UNL     1       1.546   3.540  21.379  0.00  0.00    +0.000 F 
ATOM      4  C   UNL     1       1.632   5.770  20.681  0.00  0.00    +0.000 A 
ATOM      5  C   UNL     1       2.198   6.740  19.873  0.00  0.00    +0.000 A 
ATOM      6  C   UNL     1       3.248   6.401  19.011  0.00  0.00    +0.000 A 
ATOM      7  C   UNL     1       3.794   5.094  18.931  0.00  0.00    +0.000 A 
ENDROOT
BRANCH   7   8
ATOM      8  C   UNL     1       4.926   4.853  17.978  0.00  0.00    +0.000 A 
ATOM      9  C   UNL     1       4.719   4.552  16.620  0.00  0.00    +0.000 A 
ATOM     10  C   UNL     1       5.776   4.313  15.730  0.00  0.00    +0.000 A 
ATOM     11  C   UNL     1       7.090   4.438  16.156  0.00  0.00    +0.000 A 
ATOM     12  C   UNL     1       7.341   4.786  17.477  0.00  0.00    +0.000 A 
ATOM     13  C   UNL     1       6.277   4.968  18.369  0.00  0.00    +0.000 A 
ATOM     14  F   UNL     1       6.599   5.276  19.637  0.00  0.00    +0.000 F 
ENDBRANCH   7   8
BRANCH   1  15
ATOM     15  C   UNL     1       3.646   2.664  19.867  0.00  0.00    +0.000 C 
BRANCH  15  17
ATOM     16  N   UNL     1       4.077   0.736  18.370  0.00  0.00    +0.000 N 
ATOM     17  C   UNL     1       3.275   1.792  18.675  0.00  0.00    +0.000 C 
ATOM     18  O   UNL     1       2.280   2.015  17.985  0.00  0.00    +0.000 OA
ATOM     19  H   UNL     1       3.839   0.191  17.553  0.00  0.00    +0.000 HD
ATOM     20  H   UNL     1       5.003   0.620  18.763  0.00  0.00    +0.000 HD
ENDBRANCH  15  17
ENDBRANCH   1  15
TORSDOF 3
ENDMDL
MODEL 2
REMARK VINA RESULT:      -7.6      1.098      1.570
REMARK  Name = 
REMARK  3 active torsions:
REMARK  status: ('A' for Active; 'I' for Inactive)
REMARK    1  A    between atoms: C_2  and  C_4
REMARK    2  A    between atoms: C_4  and  C_5
REMARK    3  A    between atoms: C_11  and  C_12
REMARK                            x       y       z     vdW  Elec       q    Type
REMARK                         _______ _______ _______ _____ _____    ______ ____
ROOT
ATOM      1  C   UNL     1       3.161   4.021  19.899  0.00  0.00    +0.000 A 
ATOM      2  C   UNL     1       1.972   4.293  20.615  0.00  0.00    +0.000 A 
ATOM      3  F   UNL     1       1.315   3.280  21.202  0.00  0.00    +0.000 F 
ATOM      4  C   UNL     1       1.424   5.563  20.709  0.00  0.00    +0.000 A 
ATOM      5  C   UNL     1       2.064   6.610  20.068  0.00  0.00    +0.000 A 
ATOM      6  C   UNL     1       3.230   6.367  19.334  0.00  0.00    +0.000 A 
ATOM      7  C   UNL     1       3.823   5.082  19.222  0.00  0.00    +0.000 A 
ENDROOT
BRANCH   7   8
ATOM      8  C   UNL     1       5.081   4.947  18.417  0.00  0.00    +0.000 A 
ATOM      9  C   UNL     1       6.352   5.229  18.950  0.00  0.00    +0.000 A 
ATOM     10  C   UNL     1       7.528   5.117  18.194  0.00  0.00    +0.000 A 
ATOM     11  C   UNL     1       7.479   4.647  16.891  0.00  0.00    +0.000 A 
ATOM     12  C   UNL     1       6.249   4.306  16.341  0.00  0.00    +0.000 A 
ATOM     13  C   UNL     1       5.077   4.475  17.087  0.00  0.00    +0.000 A 
ATOM     14  F   UNL     1       3.923   4.151  16.480  0.00  0.00    +0.000 F 
ENDBRANCH   7   8
BRANCH   1  15
ATOM     15  C   UNL     1       3.627   2.579  19.925  0.00  0.00    +0.000 C 
BRANCH  15  17
ATOM     16  N   UNL     1       4.097   0.726  18.347  0.00  0.00    +0.000 N 
ATOM     17  C   UNL     1       3.272   1.750  18.698  0.00  0.00    +0.000 C 
ATOM     18  O   UNL     1       2.272   1.980  18.020  0.00  0.00    +0.000 OA
ATOM     19  H   UNL     1       3.869   0.211  17.508  0.00  0.00    +0.000 HD
ATOM     20  H   UNL     1       5.026   0.614  18.734  0.00  0.00    +0.000 HD
ENDBRANCH  15  17
ENDBRANCH   1  15
TORSDOF 3
ENDMDL
MODEL 3
REMARK VINA RESULT:      -7.5      2.552      4.998
REMARK  Name = 
REMARK  3 active torsions:
REMARK  status: ('A' for Active; 'I' for Inactive)
REMARK    1  A    between atoms: C_2  and  C_4
REMARK    2  A    between atoms: C_4  and  C_5
REMARK    3  A    between atoms: C_11  and  C_12
REMARK                            x       y       z     vdW  Elec       q    Type
REMARK                         _______ _______ _______ _____ _____    ______ ____
ROOT
ATOM      1  C   UNL     1       4.053   5.823  17.903  0.00  0.00    +0.000 A 
ATOM      2  C   UNL     1       4.459   6.967  17.177  0.00  0.00    +0.000 A 
ATOM      3  F   UNL     1       5.608   6.930  16.485  0.00  0.00    +0.000 F 
ATOM      4  C   UNL     1       3.739   8.152  17.177  0.00  0.00    +0.000 A 
ATOM      5  C   UNL     1       2.576   8.222  17.925  0.00  0.00    +0.000 A 
ATOM      6  C   UNL     1       2.162   7.113  18.671  0.00  0.00    +0.000 A 
ATOM      7  C   UNL     1       2.869   5.882  18.689  0.00  0.00    +0.000 A 
ENDROOT
BRANCH   7   8
ATOM      8  C   UNL     1       2.321   4.759  19.517  0.00  0.00    +0.000 A 
ATOM      9  C   UNL     1       2.629   4.607  20.882  0.00  0.00    +0.000 A 
ATOM     10  C   UNL     1       2.128   3.550  21.655  0.00  0.00    +0.000 A 
ATOM     11  C   UNL     1       1.238   2.641  21.103  0.00  0.00    +0.000 A 
ATOM     12  C   UNL     1       0.865   2.784  19.772  0.00  0.00    +0.000 A 
ATOM     13  C   UNL     1       1.415   3.811  18.996  0.00  0.00    +0.000 A 
ATOM     14  F   UNL     1       1.027   3.869  17.711  0.00  0.00    +0.000 F 
ENDBRANCH   7   8
BRANCH   1  15
ATOM     15  C   UNL     1       4.949   4.608  17.766  0.00  0.00    +0.000 C 
BRANCH  15  17
ATOM     16  N   UNL     1       7.403   4.293  17.907  0.00  0.00    +0.000 N 
ATOM     17  C   UNL     1       6.259   4.665  18.541  0.00  0.00    +0.000 C 
ATOM     18  O   UNL     1       6.309   5.032  19.715  0.00  0.00    +0.000 OA
ATOM     19  H   UNL     1       8.257   4.298  18.447  0.00  0.00    +0.000 HD
ATOM     20  H   UNL     1       7.404   3.797  17.025  0.00  0.00    +0.000 HD
ENDBRANCH  15  17
ENDBRANCH   1  15
TORSDOF 3
ENDMDL
MODEL 4
REMARK VINA RESULT:      -7.3      1.165      1.216
REMARK  Name = 
REMARK  3 active torsions:
REMARK  status: ('A' for Active; 'I' for Inactive)
REMARK    1  A    between atoms: C_2  and  C_4
REMARK    2  A    between atoms: C_4  and  C_5
REMARK    3  A    between atoms: C_11  and  C_12
REMARK                            x       y       z     vdW  Elec       q    Type
REMARK                         _______ _______ _______ _____ _____    ______ ____
ROOT
ATOM      1  C   UNL     1       2.821   4.306  19.472  0.00  0.00    +0.000 A 
ATOM      2  C   UNL     1       1.757   4.753  20.289  0.00  0.00    +0.000 A 
ATOM      3  F   UNL     1       0.966   3.849  20.888  0.00  0.00    +0.000 F 
ATOM      4  C   UNL     1       1.463   6.095  20.473  0.00  0.00    +0.000 A 
ATOM      5  C   UNL     1       2.239   7.040  19.823  0.00  0.00    +0.000 A 
ATOM      6  C   UNL     1       3.285   6.626  18.991  0.00  0.00    +0.000 A 
ATOM      7  C   UNL     1       3.620   5.262  18.784  0.00  0.00    +0.000 A 
ENDROOT
BRANCH   7   8
ATOM      8  C   UNL     1       4.770   4.941  17.878  0.00  0.00    +0.000 A 
ATOM      9  C   UNL     1       4.598   4.667  16.509  0.00  0.00    +0.000 A 
ATOM     10  C   UNL     1       5.671   4.353  15.663  0.00  0.00    +0.000 A 
ATOM     11  C   UNL     1       6.971   4.371  16.145  0.00  0.00    +0.000 A 
ATOM     12  C   UNL     1       7.191   4.688  17.480  0.00  0.00    +0.000 A 
ATOM     13  C   UNL     1       6.107   4.945  18.328  0.00  0.00    +0.000 A 
ATOM     14  F   UNL     1       6.397   5.217  19.612  0.00  0.00    +0.000 F 
ENDBRANCH   7   8
BRANCH   1  15
ATOM     15  C   UNL     1       3.011   2.804  19.407  0.00  0.00    +0.000 C 
BRANCH  15  17
ATOM     16  N   UNL     1       5.169   1.766  20.047  0.00  0.00    +0.000 N 
ATOM     17  C   UNL     1       3.950   2.213  20.451  0.00  0.00    +0.000 C 
ATOM     18  O   UNL     1       3.638   2.129  21.639  0.00  0.00    +0.000 OA
ATOM     19  H   UNL     1       5.764   1.341  20.745  0.00  0.00    +0.000 HD
ATOM     20  H   UNL     1       5.404   1.621  19.073  0.00  0.00    +0.000 HD
ENDBRANCH  15  17
ENDBRANCH   1  15
TORSDOF 3
ENDMDL
MODEL 5
REMARK VINA RESULT:      -7.3      1.907      2.192
REMARK  Name = 
REMARK  3 active torsions:
REMARK  status: ('A' for Active; 'I' for Inactive)
REMARK    1  A    between atoms: C_2  and  C_4
REMARK    2  A    between atoms: C_4  and  C_5
REMARK    3  A    between atoms: C_11  and  C_12
REMARK                            x       y       z     vdW  Elec       q    Type
REMARK                         _______ _______ _______ _____ _____    ______ ____
ROOT
ATOM      1  C   UNL     1       2.918   4.006  19.022  0.00  0.00    +0.000 A 
ATOM      2  C   UNL     1       1.652   3.738  19.593  0.00  0.00    +0.000 A 
ATOM      3  F   UNL     1       1.051   2.566  19.332  0.00  0.00    +0.000 F 
ATOM      4  C   UNL     1       0.975   4.652  20.385  0.00  0.00    +0.000 A 
ATOM      5  C   UNL     1       1.560   5.883  20.624  0.00  0.00    +0.000 A 
ATOM      6  C   UNL     1       2.802   6.185  20.055  0.00  0.00    +0.000 A 
ATOM      7  C   UNL     1       3.527   5.272  19.244  0.00  0.00    +0.000 A 
ENDROOT
BRANCH   7   8
ATOM      8  C   UNL     1       4.854   5.704  18.699  0.00  0.00    +0.000 A 
ATOM      9  C   UNL     1       6.074   5.287  19.263  0.00  0.00    +0.000 A 
ATOM     10  C   UNL     1       7.317   5.701  18.763  0.00  0.00    +0.000 A 
ATOM     11  C   UNL     1       7.384   6.496  17.629  0.00  0.00    +0.000 A 
ATOM     12  C   UNL     1       6.205   6.889  17.008  0.00  0.00    +0.000 A 
ATOM     13  C   UNL     1       4.969   6.515  17.549  0.00  0.00    +0.000 A 
ATOM     14  F   UNL     1       3.872   6.955  16.911  0.00  0.00    +0.000 F 
ENDBRANCH   7   8
BRANCH   1  15
ATOM     15  C   UNL     1       3.520   2.881  18.205  0.00  0.00    +0.000 C 
BRANCH  15  17
ATOM     16  N   UNL     1       4.200   0.518  18.522  0.00  0.00    +0.000 N 
ATOM     17  C   UNL     1       4.225   1.791  19.002  0.00  0.00    +0.000 C 
ATOM     18  O   UNL     1       4.808   2.027  20.060  0.00  0.00    +0.000 OA
ATOM     19  H   UNL     1       4.638  -0.199  19.083  0.00  0.00    +0.000 HD
ATOM     20  H   UNL     1       3.577   0.225  17.779  0.00  0.00    +0.000 HD
ENDBRANCH  15  17
ENDBRANCH   1  15
TORSDOF 3
ENDMDL
MODEL 6
REMARK VINA RESULT:      -7.2      2.959      3.797
REMARK  Name = 
REMARK  3 active torsions:
REMARK  status: ('A' for Active; 'I' for Inactive)
REMARK    1  A    between atoms: C_2  and  C_4
REMARK    2  A    between atoms: C_4  and  C_5
REMARK    3  A    between atoms: C_11  and  C_12
REMARK                            x       y       z     vdW  Elec       q    Type
REMARK                         _______ _______ _______ _____ _____    ______ ____
ROOT
ATOM      1  C   UNL     1       2.810   4.869  19.187  0.00  0.00    +0.000 A 
ATOM      2  C   UNL     1       1.659   4.048  19.141  0.00  0.00    +0.000 A 
ATOM      3  F   UNL     1       0.664   4.265  20.015  0.00  0.00    +0.000 F 
ATOM      4  C   UNL     1       1.524   2.992  18.253  0.00  0.00    +0.000 A 
ATOM      5  C   UNL     1       2.562   2.724  17.377  0.00  0.00    +0.000 A 
ATOM      6  C   UNL     1       3.722   3.506  17.415  0.00  0.00    +0.000 A 
ATOM      7  C   UNL     1       3.893   4.599  18.305  0.00  0.00    +0.000 A 
ENDROOT
BRANCH   7   8
ATOM      8  C   UNL     1       5.176   5.372  18.245  0.00  0.00    +0.000 A 
ATOM      9  C   UNL     1       6.267   5.091  19.088  0.00  0.00    +0.000 A 
ATOM     10  C   UNL     1       7.463   5.821  19.043  0.00  0.00    +0.000 A 
ATOM     11  C   UNL     1       7.637   6.820  18.096  0.00  0.00    +0.000 A 
ATOM     12  C   UNL     1       6.604   7.095  17.208  0.00  0.00    +0.000 A 
ATOM     13  C   UNL     1       5.395   6.397  17.300  0.00  0.00    +0.000 A 
ATOM     14  F   UNL     1       4.434   6.737  16.425  0.00  0.00    +0.000 F 
ENDBRANCH   7   8
BRANCH   1  15
ATOM     15  C   UNL     1       2.774   5.992  20.204  0.00  0.00    +0.000 C 
BRANCH  15  17
ATOM     16  N   UNL     1       1.539   8.104  20.603  0.00  0.00    +0.000 N 
ATOM     17  C   UNL     1       2.189   7.309  19.711  0.00  0.00    +0.000 C 
ATOM     18  O   UNL     1       2.287   7.669  18.538  0.00  0.00    +0.000 OA
ATOM     19  H   UNL     1       1.123   8.955  20.251  0.00  0.00    +0.000 HD
ATOM     20  H   UNL     1       1.251   7.779  21.518  0.00  0.00    +0.000 HD
ENDBRANCH  15  17
ENDBRANCH   1  15
TORSDOF 3
ENDMDL
MODEL 7
REMARK VINA RESULT:      -7.1      1.080      1.131
REMARK  Name = 
REMARK  3 active torsions:
REMARK  status: ('A' for Active; 'I' for Inactive)
REMARK    1  A    between atoms: C_2  and  C_4
REMARK    2  A    between atoms: C_4  and  C_5
REMARK    3  A    between atoms: C_11  and  C_12
REMARK                            x       y       z     vdW  Elec       q    Type
REMARK                         _______ _______ _______ _____ _____    ______ ____
ROOT
ATOM      1  C   UNL     1       2.731   4.146  18.699  0.00  0.00    +0.000 A 
ATOM      2  C   UNL     1       1.665   4.414  19.589  0.00  0.00    +0.000 A 
ATOM      3  F   UNL     1       0.790   3.437  19.877  0.00  0.00    +0.000 F 
ATOM      4  C   UNL     1       1.455   5.661  20.156  0.00  0.00    +0.000 A 
ATOM      5  C   UNL     1       2.321   6.692  19.832  0.00  0.00    +0.000 A 
ATOM      6  C   UNL     1       3.371   6.461  18.936  0.00  0.00    +0.000 A 
ATOM      7  C   UNL     1       3.621   5.196  18.342  0.00  0.00    +0.000 A 
ENDROOT
BRANCH   7   8
ATOM      8  C   UNL     1       4.784   5.068  17.406  0.00  0.00    +0.000 A 
ATOM      9  C   UNL     1       4.682   5.351  16.032  0.00  0.00    +0.000 A 
ATOM     10  C   UNL     1       5.766   5.218  15.151  0.00  0.00    +0.000 A 
ATOM     11  C   UNL     1       7.017   4.862  15.632  0.00  0.00    +0.000 A 
ATOM     12  C   UNL     1       7.176   4.624  16.992  0.00  0.00    +0.000 A 
ATOM     13  C   UNL     1       6.074   4.707  17.851  0.00  0.00    +0.000 A 
ATOM     14  F   UNL     1       6.299   4.436  19.148  0.00  0.00    +0.000 F 
ENDBRANCH   7   8
BRANCH   1  15
ATOM     15  C   UNL     1       2.822   2.718  18.196  0.00  0.00    +0.000 C 
BRANCH  15  17
ATOM     16  N   UNL     1       4.092   0.602  18.418  0.00  0.00    +0.000 N 
ATOM     17  C   UNL     1       3.783   1.813  18.955  0.00  0.00    +0.000 C 
ATOM     18  O   UNL     1       4.281   2.143  20.030  0.00  0.00    +0.000 OA
ATOM     19  H   UNL     1       4.700  -0.003  18.953  0.00  0.00    +0.000 HD
ATOM     20  H   UNL     1       3.570   0.192  17.653  0.00  0.00    +0.000 HD
ENDBRANCH  15  17
ENDBRANCH   1  15
TORSDOF 3
ENDMDL
MODEL 8
REMARK VINA RESULT:      -7.1      3.023      5.195
REMARK  Name = 
REMARK  3 active torsions:
REMARK  status: ('A' for Active; 'I' for Inactive)
REMARK    1  A    between atoms: C_2  and  C_4
REMARK    2  A    between atoms: C_4  and  C_5
REMARK    3  A    between atoms: C_11  and  C_12
REMARK                            x       y       z     vdW  Elec       q    Type
REMARK                         _______ _______ _______ _____ _____    ______ ____
ROOT
ATOM      1  C   UNL     1       6.075   5.704  17.063  0.00  0.00    +0.000 A 
ATOM      2  C   UNL     1       7.294   6.370  17.326  0.00  0.00    +0.000 A 
ATOM      3  F   UNL     1       7.958   6.946  16.310  0.00  0.00    +0.000 F 
ATOM      4  C   UNL     1       7.865   6.425  18.587  0.00  0.00    +0.000 A 
ATOM      5  C   UNL     1       7.218   5.795  19.637  0.00  0.00    +0.000 A 
ATOM      6  C   UNL     1       6.020   5.109  19.403  0.00  0.00    +0.000 A 
ATOM      7  C   UNL     1       5.403   5.038  18.126  0.00  0.00    +0.000 A 
ENDROOT
BRANCH   7   8
ATOM      8  C   UNL     1       4.114   4.283  18.001  0.00  0.00    +0.000 A 
ATOM      9  C   UNL     1       4.055   2.878  18.037  0.00  0.00    +0.000 A 
ATOM     10  C   UNL     1       2.852   2.170  17.906  0.00  0.00    +0.000 A 
ATOM     11  C   UNL     1       1.648   2.850  17.804  0.00  0.00    +0.000 A 
ATOM     12  C   UNL     1       1.654   4.240  17.818  0.00  0.00    +0.000 A 
ATOM     13  C   UNL     1       2.867   4.935  17.893  0.00  0.00    +0.000 A 
ATOM     14  F   UNL     1       2.796   6.277  17.873  0.00  0.00    +0.000 F 
ENDBRANCH   7   8
BRANCH   1  15
ATOM     15  C   UNL     1       5.588   5.767  15.629  0.00  0.00    +0.000 C 
BRANCH  15  17
ATOM     16  N   UNL     1       6.082   3.533  14.677  0.00  0.00    +0.000 N 
ATOM     17  C   UNL     1       6.325   4.871  14.643  0.00  0.00    +0.000 C 
ATOM     18  O   UNL     1       7.128   5.320  13.826  0.00  0.00    +0.000 OA
ATOM     19  H   UNL     1       6.608   2.948  14.043  0.00  0.00    +0.000 HD
ATOM     20  H   UNL     1       5.597   3.084  15.444  0.00  0.00    +0.000 HD
ENDBRANCH  15  17
ENDBRANCH   1  15
TORSDOF 3
ENDMDL
MODEL 9
REMARK VINA RESULT:      -7.1      2.351      4.632
REMARK  Name = 
REMARK  3 active torsions:
REMARK  status: ('A' for Active; 'I' for Inactive)
REMARK    1  A    between atoms: C_2  and  C_4
REMARK    2  A    between atoms: C_4  and  C_5
REMARK    3  A    between atoms: C_11  and  C_12
REMARK                            x       y       z     vdW  Elec       q    Type
REMARK                         _______ _______ _______ _____ _____    ______ ____
ROOT
ATOM      1  C   UNL     1       3.955   5.811  17.721  0.00  0.00    +0.000 A 
ATOM      2  C   UNL     1       4.467   7.020  17.195  0.00  0.00    +0.000 A 
ATOM      3  F   UNL     1       5.706   7.037  16.679  0.00  0.00    +0.000 F 
ATOM      4  C   UNL     1       3.759   8.211  17.222  0.00  0.00    +0.000 A 
ATOM      5  C   UNL     1       2.498   8.221  17.794  0.00  0.00    +0.000 A 
ATOM      6  C   UNL     1       1.975   7.045  18.342  0.00  0.00    +0.000 A 
ATOM      7  C   UNL     1       2.667   5.806  18.326  0.00  0.00    +0.000 A 
ENDROOT
BRANCH   7   8
ATOM      8  C   UNL     1       1.999   4.610  18.934  0.00  0.00    +0.000 A 
ATOM      9  C   UNL     1       1.474   3.561  18.157  0.00  0.00    +0.000 A 
ATOM     10  C   UNL     1       0.837   2.448  18.723  0.00  0.00    +0.000 A 
ATOM     11  C   UNL     1       0.764   2.310  20.100  0.00  0.00    +0.000 A 
ATOM     12  C   UNL     1       1.317   3.296  20.908  0.00  0.00    +0.000 A 
ATOM     13  C   UNL     1       1.902   4.429  20.331  0.00  0.00    +0.000 A 
ATOM     14  F   UNL     1       2.390   5.353  21.175  0.00  0.00    +0.000 F 
ENDBRANCH   7   8
BRANCH   1  15
ATOM     15  C   UNL     1       4.857   4.601  17.582  0.00  0.00    +0.000 C 
BRANCH  15  17
ATOM     16  N   UNL     1       5.191   2.965  19.413  0.00  0.00    +0.000 N 
ATOM     17  C   UNL     1       5.557   4.152  18.859  0.00  0.00    +0.000 C 
ATOM     18  O   UNL     1       6.433   4.827  19.397  0.00  0.00    +0.000 OA
ATOM     19  H   UNL     1       5.637   2.700  20.281  0.00  0.00    +0.000 HD
ATOM     20  H   UNL     1       4.353   2.467  19.140  0.00  0.00    +0.000 HD
ENDBRANCH  15  17
ENDBRANCH   1  15
TORSDOF 3
ENDMDL
