MODEL 1
REMARK VINA RESULT:      -8.1      0.000      0.000
REMARK  Name = 
REMARK  10 active torsions:
REMARK  status: ('A' for Active; 'I' for Inactive)
REMARK    1  A    between atoms: C_1  and  C_2
REMARK    2  A    between atoms: C_2  and  N_3
REMARK    3  A    between atoms: N_3  and  C_4
REMARK    4  A    between atoms: N_3  and  C_6
REMARK    5  A    between atoms: C_4  and  C_5
REMARK    6  A    between atoms: C_9  and  N_10
REMARK    7  A    between atoms: C_11  and  C_13
REMARK    8  A    between atoms: N_16  and  S_17
REMARK    9  A    between atoms: S_17  and  C_20
REMARK   10  A    between atoms: C_29  and  C_30
REMARK                            x       y       z     vdW  Elec       q    Type
REMARK                         _______ _______ _______ _____ _____    ______ ____
ROOT
ATOM      1  N   UNL     1       0.561   9.240  20.390  0.00  0.00    +0.000 N 
ATOM      2  C   UNL     1       1.439   9.322  19.323  0.00  0.00    +0.000 C 
ATOM      3  O   UNL     1       1.660  10.316  18.646  0.00  0.00    +0.000 OA
ATOM      4  H   UNL     1       0.475   8.356  20.863  0.00  0.00    +0.000 HD
ENDROOT
BRANCH   1   8
ATOM      5  C   UNL     1      -2.083  12.322  21.754  0.00  0.00    +0.000 A 
ATOM      6  C   UNL     1      -1.815  12.144  20.398  0.00  0.00    +0.000 A 
ATOM      7  C   UNL     1      -0.943  11.142  19.951  0.00  0.00    +0.000 A 
ATOM      8  C   UNL     1      -0.310  10.268  20.840  0.00  0.00    +0.000 A 
ATOM      9  C   UNL     1      -0.568  10.419  22.214  0.00  0.00    +0.000 A 
ATOM     10  C   UNL     1       0.000   9.544  23.299  0.00  0.00    +0.000 C 
ATOM     11  C   UNL     1      -1.428  11.456  22.641  0.00  0.00    +0.000 A 
BRANCH   5  12
ATOM     12  N   UNL     1      -2.978  13.310  22.186  0.00  0.00    +0.000 N 
BRANCH  12  14
ATOM     13  C   UNL     1      -3.211  14.609  24.308  0.00  0.00    +0.000 C 
ATOM     14  C   UNL     1      -2.430  14.388  23.021  0.00  0.00    +0.000 C 
ENDBRANCH  12  14
BRANCH  12  15
ATOM     15  C   UNL     1      -4.114  13.600  21.291  0.00  0.00    +0.000 C 
ATOM     16  C   UNL     1      -5.318  12.691  21.522  0.00  0.00    +0.000 C 
ENDBRANCH  12  15
ENDBRANCH   5  12
ENDBRANCH   1   8
BRANCH   2  17
ATOM     17  C   UNL     1       2.089   8.023  18.936  0.00  0.00    +0.000 C 
ATOM     18  C   UNL     1       2.111   7.050  19.867  0.00  0.00    +0.000 C 
ATOM     19  C   UNL     1       2.922   5.791  19.797  0.00  0.00    +0.000 C 
ATOM     20  N   UNL     1       3.724   5.678  18.545  0.00  0.00    +0.000 NA
ATOM     21  C   UNL     1       4.108   6.989  17.948  0.00  0.00    +0.000 C 
ATOM     22  C   UNL     1       2.885   7.862  17.684  0.00  0.00    +0.000 C 
BRANCH  20  23
ATOM     23  S   UNL     1       5.105   4.650  18.701  0.00  0.00    +0.000 S 
ATOM     24  O   UNL     1       6.092   5.349  19.493  0.00  0.00    +0.000 OA
ATOM     25  O   UNL     1       4.632   3.342  19.087  0.00  0.00    +0.000 OA
BRANCH  23  26
ATOM     26  C   UNL     1       5.751   4.555  17.052  0.00  0.00    +0.000 A 
ATOM     27  C   UNL     1       4.887   4.193  16.009  0.00  0.00    +0.000 A 
ATOM     28  C   UNL     1       5.361   4.192  14.696  0.00  0.00    +0.000 A 
ATOM     29  C   UNL     1       6.679   4.560  14.441  0.00  0.00    +0.000 A 
ATOM     30  F   UNL     1       7.127   4.570  13.179  0.00  0.00    +0.000 F 
ATOM     31  C   UNL     1       7.539   4.928  15.474  0.00  0.00    +0.000 A 
ATOM     32  C   UNL     1       7.075   4.928  16.791  0.00  0.00    +0.000 A 
ENDBRANCH  23  26
ENDBRANCH  20  23
ENDBRANCH   2  17
TORSDOF 7
ENDMDL
MODEL 2
REMARK VINA RESULT:      -8.1      0.677      1.249
REMARK  Name = 
REMARK  10 active torsions:
REMARK  status: ('A' for Active; 'I' for Inactive)
REMARK    1  A    between atoms: C_1  and  C_2
REMARK    2  A    between atoms: C_2  and  N_3
REMARK    3  A    between atoms: N_3  and  C_4
REMARK    4  A    between atoms: N_3  and  C_6
REMARK    5  A    between atoms: C_4  and  C_5
REMARK    6  A    between atoms: C_9  and  N_10
REMARK    7  A    between atoms: C_11  and  C_13
REMARK    8  A    between atoms: N_16  and  S_17
REMARK    9  A    between atoms: S_17  and  C_20
REMARK   10  A    between atoms: C_29  and  C_30
REMARK                            x       y       z     vdW  Elec       q    Type
REMARK                         _______ _______ _______ _____ _____    ______ ____
ROOT
ATOM      1  N   UNL     1       0.519   9.251  20.562  0.00  0.00    +0.000 N 
ATOM      2  C   UNL     1       1.343   9.338  19.453  0.00  0.00    +0.000 C 
ATOM      3  O   UNL     1       1.528  10.335  18.770  0.00  0.00    +0.000 OA
ATOM      4  H   UNL     1       0.459   8.365  21.036  0.00  0.00    +0.000 HD
ENDROOT
BRANCH   1   8
ATOM      5  C   UNL     1      -2.065  12.321  22.062  0.00  0.00    +0.000 A 
ATOM      6  C   UNL     1      -1.836  12.169  20.696  0.00  0.00    +0.000 A 
ATOM      7  C   UNL     1      -0.984  11.171  20.204  0.00  0.00    +0.000 A 
ATOM      8  C   UNL     1      -0.332  10.275  21.057  0.00  0.00    +0.000 A 
ATOM      9  C   UNL     1      -0.551  10.399  22.440  0.00  0.00    +0.000 A 
ATOM     10  C   UNL     1       0.041   9.499  23.491  0.00  0.00    +0.000 C 
ATOM     11  C   UNL     1      -1.392  11.432  22.912  0.00  0.00    +0.000 A 
BRANCH   5  12
ATOM     12  N   UNL     1      -2.942  13.305  22.539  0.00  0.00    +0.000 N 
BRANCH  12  14
ATOM     13  C   UNL     1      -4.193  15.274  21.645  0.00  0.00    +0.000 C 
ATOM     14  C   UNL     1      -2.841  14.639  21.930  0.00  0.00    +0.000 C 
ENDBRANCH  12  14
BRANCH  12  15
ATOM     15  C   UNL     1      -4.251  12.834  23.027  0.00  0.00    +0.000 C 
ATOM     16  C   UNL     1      -4.284  12.585  24.532  0.00  0.00    +0.000 C 
ENDBRANCH  12  15
ENDBRANCH   5  12
ENDBRANCH   1   8
BRANCH   2  17
ATOM     17  C   UNL     1       1.978   8.043  19.032  0.00  0.00    +0.000 C 
ATOM     18  C   UNL     1       2.061   7.072  19.962  0.00  0.00    +0.000 C 
ATOM     19  C   UNL     1       2.874   5.818  19.846  0.00  0.00    +0.000 C 
ATOM     20  N   UNL     1       3.602   5.707  18.550  0.00  0.00    +0.000 NA
ATOM     21  C   UNL     1       3.943   7.020  17.930  0.00  0.00    +0.000 C 
ATOM     22  C   UNL     1       2.701   7.885  17.735  0.00  0.00    +0.000 C 
BRANCH  20  23
ATOM     23  S   UNL     1       4.996   4.689  18.628  0.00  0.00    +0.000 S 
ATOM     24  O   UNL     1       5.973   5.335  19.474  0.00  0.00    +0.000 OA
ATOM     25  O   UNL     1       4.540   3.348  18.907  0.00  0.00    +0.000 OA
BRANCH  23  26
ATOM     26  C   UNL     1       5.646   4.732  16.977  0.00  0.00    +0.000 A 
ATOM     27  C   UNL     1       6.960   5.178  16.782  0.00  0.00    +0.000 A 
ATOM     28  C   UNL     1       7.512   5.142  15.501  0.00  0.00    +0.000 A 
ATOM     29  C   UNL     1       6.755   4.654  14.439  0.00  0.00    +0.000 A 
ATOM     30  F   UNL     1       7.293   4.609  13.214  0.00  0.00    +0.000 F 
ATOM     31  C   UNL     1       5.451   4.202  14.631  0.00  0.00    +0.000 A 
ATOM     32  C   UNL     1       4.889   4.239  15.908  0.00  0.00    +0.000 A 
ENDBRANCH  23  26
ENDBRANCH  20  23
ENDBRANCH   2  17
TORSDOF 7
ENDMDL
MODEL 3
REMARK VINA RESULT:      -8.1      0.425      1.173
REMARK  Name = 
REMARK  10 active torsions:
REMARK  status: ('A' for Active; 'I' for Inactive)
REMARK    1  A    between atoms: C_1  and  C_2
REMARK    2  A    between atoms: C_2  and  N_3
REMARK    3  A    between atoms: N_3  and  C_4
REMARK    4  A    between atoms: N_3  and  C_6
REMARK    5  A    between atoms: C_4  and  C_5
REMARK    6  A    between atoms: C_9  and  N_10
REMARK    7  A    between atoms: C_11  and  C_13
REMARK    8  A    between atoms: N_16  and  S_17
REMARK    9  A    between atoms: S_17  and  C_20
REMARK   10  A    between atoms: C_29  and  C_30
REMARK                            x       y       z     vdW  Elec       q    Type
REMARK                         _______ _______ _______ _____ _____    ______ ____
ROOT
ATOM      1  N   UNL     1       0.579   9.211  20.372  0.00  0.00    +0.000 N 
ATOM      2  C   UNL     1       1.433   9.286  19.286  0.00  0.00    +0.000 C 
ATOM      3  O   UNL     1       1.635  10.275  18.595  0.00  0.00    +0.000 OA
ATOM      4  H   UNL     1       0.508   8.331  20.856  0.00  0.00    +0.000 HD
ENDROOT
BRANCH   1   8
ATOM      5  C   UNL     1      -2.051  12.294  21.763  0.00  0.00    +0.000 A 
ATOM      6  C   UNL     1      -1.801  12.111  20.404  0.00  0.00    +0.000 A 
ATOM      7  C   UNL     1      -0.934  11.110  19.948  0.00  0.00    +0.000 A 
ATOM      8  C   UNL     1      -0.287  10.239  20.831  0.00  0.00    +0.000 A 
ATOM      9  C   UNL     1      -0.527  10.394  22.208  0.00  0.00    +0.000 A 
ATOM     10  C   UNL     1       0.057   9.523  23.288  0.00  0.00    +0.000 C 
ATOM     11  C   UNL     1      -1.383  11.431  22.643  0.00  0.00    +0.000 A 
BRANCH   5  12
ATOM     12  N   UNL     1      -2.942  13.282  22.204  0.00  0.00    +0.000 N 
BRANCH  12  14
ATOM     13  C   UNL     1      -5.302  12.724  21.603  0.00  0.00    +0.000 C 
ATOM     14  C   UNL     1      -4.250  12.828  22.697  0.00  0.00    +0.000 C 
ENDBRANCH  12  14
BRANCH  12  15
ATOM     15  C   UNL     1      -2.337  14.498  22.779  0.00  0.00    +0.000 C 
ATOM     16  C   UNL     1      -3.107  15.773  22.452  0.00  0.00    +0.000 C 
ENDBRANCH  12  15
ENDBRANCH   5  12
ENDBRANCH   1   8
BRANCH   2  17
ATOM     17  C   UNL     1       2.081   7.987  18.898  0.00  0.00    +0.000 C 
ATOM     18  C   UNL     1       2.119   7.019  19.835  0.00  0.00    +0.000 C 
ATOM     19  C   UNL     1       2.933   5.762  19.761  0.00  0.00    +0.000 C 
ATOM     20  N   UNL     1       3.717   5.644  18.499  0.00  0.00    +0.000 NA
ATOM     21  C   UNL     1       4.089   6.952  17.889  0.00  0.00    +0.000 C 
ATOM     22  C   UNL     1       2.860   7.820  17.635  0.00  0.00    +0.000 C 
BRANCH  20  23
ATOM     23  S   UNL     1       5.102   4.621  18.642  0.00  0.00    +0.000 S 
ATOM     24  O   UNL     1       6.088   5.316  19.439  0.00  0.00    +0.000 OA
ATOM     25  O   UNL     1       4.637   3.306  19.015  0.00  0.00    +0.000 OA
BRANCH  23  26
ATOM     26  C   UNL     1       5.746   4.545  16.991  0.00  0.00    +0.000 A 
ATOM     27  C   UNL     1       4.907   4.101  15.959  0.00  0.00    +0.000 A 
ATOM     28  C   UNL     1       5.374   4.113  14.644  0.00  0.00    +0.000 A 
ATOM     29  C   UNL     1       6.659   4.574  14.375  0.00  0.00    +0.000 A 
ATOM     30  F   UNL     1       7.099   4.596  13.110  0.00  0.00    +0.000 F 
ATOM     31  C   UNL     1       7.494   5.024  15.396  0.00  0.00    +0.000 A 
ATOM     32  C   UNL     1       7.037   5.012  16.715  0.00  0.00    +0.000 A 
ENDBRANCH  23  26
ENDBRANCH  20  23
ENDBRANCH   2  17
TORSDOF 7
ENDMDL
MODEL 4
REMARK VINA RESULT:      -7.9      1.038      1.597
REMARK  Name = 
REMARK  10 active torsions:
REMARK  status: ('A' for Active; 'I' for Inactive)
REMARK    1  A    between atoms: C_1  and  C_2
REMARK    2  A    between atoms: C_2  and  N_3
REMARK    3  A    between atoms: N_3  and  C_4
REMARK    4  A    between atoms: N_3  and  C_6
REMARK    5  A    between atoms: C_4  and  C_5
REMARK    6  A    between atoms: C_9  and  N_10
REMARK    7  A    between atoms: C_11  and  C_13
REMARK    8  A    between atoms: N_16  and  S_17
REMARK    9  A    between atoms: S_17  and  C_20
REMARK   10  A    between atoms: C_29  and  C_30
REMARK                            x       y       z     vdW  Elec       q    Type
REMARK                         _______ _______ _______ _____ _____    ______ ____
ROOT
ATOM      1  N   UNL     1       1.434   9.579  20.529  0.00  0.00    +0.000 N 
ATOM      2  C   UNL     1       1.325   9.195  19.204  0.00  0.00    +0.000 C 
ATOM      3  O   UNL     1       0.625   9.729  18.355  0.00  0.00    +0.000 OA
ATOM      4  H   UNL     1       2.052   9.050  21.124  0.00  0.00    +0.000 HD
ENDROOT
BRANCH   1   8
ATOM      5  C   UNL     1      -0.834  12.664  22.450  0.00  0.00    +0.000 A 
ATOM      6  C   UNL     1       0.113  12.962  21.473  0.00  0.00    +0.000 A 
ATOM      7  C   UNL     1       0.863  11.955  20.850  0.00  0.00    +0.000 A 
ATOM      8  C   UNL     1       0.689  10.604  21.170  0.00  0.00    +0.000 A 
ATOM      9  C   UNL     1      -0.266  10.273  22.147  0.00  0.00    +0.000 A 
ATOM     10  C   UNL     1      -0.603   8.873  22.583  0.00  0.00    +0.000 C 
ATOM     11  C   UNL     1      -0.988  11.310  22.781  0.00  0.00    +0.000 A 
BRANCH   5  12
ATOM     12  N   UNL     1      -1.596  13.678  23.045  0.00  0.00    +0.000 N 
BRANCH  12  14
ATOM     13  C   UNL     1      -4.091  13.779  22.959  0.00  0.00    +0.000 C 
ATOM     14  C   UNL     1      -2.855  13.276  23.689  0.00  0.00    +0.000 C 
ENDBRANCH  12  14
BRANCH  12  15
ATOM     15  C   UNL     1      -0.847  14.829  23.584  0.00  0.00    +0.000 C 
ATOM     16  C   UNL     1      -1.334  15.282  24.957  0.00  0.00    +0.000 C 
ENDBRANCH  12  15
ENDBRANCH   5  12
ENDBRANCH   1   8
BRANCH   2  17
ATOM     17  C   UNL     1       2.082   7.949  18.840  0.00  0.00    +0.000 C 
ATOM     18  C   UNL     1       2.242   7.026  19.809  0.00  0.00    +0.000 C 
ATOM     19  C   UNL     1       3.168   5.850  19.752  0.00  0.00    +0.000 C 
ATOM     20  N   UNL     1       3.920   5.756  18.468  0.00  0.00    +0.000 NA
ATOM     21  C   UNL     1       4.146   7.069  17.798  0.00  0.00    +0.000 C 
ATOM     22  C   UNL     1       2.833   7.807  17.558  0.00  0.00    +0.000 C 
BRANCH  20  23
ATOM     23  S   UNL     1       5.400   4.874  18.599  0.00  0.00    +0.000 S 
ATOM     24  O   UNL     1       6.376   5.734  19.229  0.00  0.00    +0.000 OA
ATOM     25  O   UNL     1       5.087   3.576  19.148  0.00  0.00    +0.000 OA
BRANCH  23  26
ATOM     26  C   UNL     1       5.920   4.666  16.916  0.00  0.00    +0.000 A 
ATOM     27  C   UNL     1       5.043   4.054  16.009  0.00  0.00    +0.000 A 
ATOM     28  C   UNL     1       5.405   3.956  14.665  0.00  0.00    +0.000 A 
ATOM     29  C   UNL     1       6.626   4.476  14.243  0.00  0.00    +0.000 A 
ATOM     30  F   UNL     1       6.964   4.391  12.950  0.00  0.00    +0.000 F 
ATOM     31  C   UNL     1       7.497   5.092  15.138  0.00  0.00    +0.000 A 
ATOM     32  C   UNL     1       7.145   5.191  16.485  0.00  0.00    +0.000 A 
ENDBRANCH  23  26
ENDBRANCH  20  23
ENDBRANCH   2  17
TORSDOF 7
ENDMDL
MODEL 5
REMARK VINA RESULT:      -7.9      1.069      1.110
REMARK  Name = 
REMARK  10 active torsions:
REMARK  status: ('A' for Active; 'I' for Inactive)
REMARK    1  A    between atoms: C_1  and  C_2
REMARK    2  A    between atoms: C_2  and  N_3
REMARK    3  A    between atoms: N_3  and  C_4
REMARK    4  A    between atoms: N_3  and  C_6
REMARK    5  A    between atoms: C_4  and  C_5
REMARK    6  A    between atoms: C_9  and  N_10
REMARK    7  A    between atoms: C_11  and  C_13
REMARK    8  A    between atoms: N_16  and  S_17
REMARK    9  A    between atoms: S_17  and  C_20
REMARK   10  A    between atoms: C_29  and  C_30
REMARK                            x       y       z     vdW  Elec       q    Type
REMARK                         _______ _______ _______ _____ _____    ______ ____
ROOT
ATOM      1  N   UNL     1       1.351   9.534  20.621  0.00  0.00    +0.000 N 
ATOM      2  C   UNL     1       1.301   9.222  19.273  0.00  0.00    +0.000 C 
ATOM      3  O   UNL     1       0.674   9.830  18.416  0.00  0.00    +0.000 OA
ATOM      4  H   UNL     1       1.910   8.947  21.219  0.00  0.00    +0.000 HD
ENDROOT
BRANCH   1   8
ATOM      5  C   UNL     1      -0.885  12.620  22.577  0.00  0.00    +0.000 A 
ATOM      6  C   UNL     1       0.020  12.914  21.559  0.00  0.00    +0.000 A 
ATOM      7  C   UNL     1       0.760  11.907  20.924  0.00  0.00    +0.000 A 
ATOM      8  C   UNL     1       0.616  10.559  21.273  0.00  0.00    +0.000 A 
ATOM      9  C   UNL     1      -0.296  10.232  22.291  0.00  0.00    +0.000 A 
ATOM     10  C   UNL     1      -0.597   8.835  22.762  0.00  0.00    +0.000 C 
ATOM     11  C   UNL     1      -1.007  11.269  22.935  0.00  0.00    +0.000 A 
BRANCH   5  12
ATOM     12  N   UNL     1      -1.638  13.634  23.184  0.00  0.00    +0.000 N 
BRANCH  12  14
ATOM     13  C   UNL     1      -1.654  15.785  24.455  0.00  0.00    +0.000 C 
ATOM     14  C   UNL     1      -0.964  14.920  23.411  0.00  0.00    +0.000 C 
ENDBRANCH  12  14
BRANCH  12  15
ATOM     15  C   UNL     1      -3.089  13.618  22.920  0.00  0.00    +0.000 C 
ATOM     16  C   UNL     1      -3.892  12.868  23.979  0.00  0.00    +0.000 C 
ENDBRANCH  12  15
ENDBRANCH   5  12
ENDBRANCH   1   8
BRANCH   2  17
ATOM     17  C   UNL     1       2.020   7.961  18.886  0.00  0.00    +0.000 C 
ATOM     18  C   UNL     1       2.107   6.995  19.822  0.00  0.00    +0.000 C 
ATOM     19  C   UNL     1       2.988   5.785  19.750  0.00  0.00    +0.000 C 
ATOM     20  N   UNL     1       3.784   5.711  18.491  0.00  0.00    +0.000 NA
ATOM     21  C   UNL     1       4.087   7.039  17.885  0.00  0.00    +0.000 C 
ATOM     22  C   UNL     1       2.813   7.840  17.627  0.00  0.00    +0.000 C 
BRANCH  20  23
ATOM     23  S   UNL     1       5.222   4.766  18.639  0.00  0.00    +0.000 S 
ATOM     24  O   UNL     1       6.197   5.549  19.363  0.00  0.00    +0.000 OA
ATOM     25  O   UNL     1       4.835   3.452  19.098  0.00  0.00    +0.000 OA
BRANCH  23  26
ATOM     26  C   UNL     1       5.815   4.630  16.973  0.00  0.00    +0.000 A 
ATOM     27  C   UNL     1       4.948   4.139  15.986  0.00  0.00    +0.000 A 
ATOM     28  C   UNL     1       5.373   4.103  14.657  0.00  0.00    +0.000 A 
ATOM     29  C   UNL     1       6.645   4.565  14.330  0.00  0.00    +0.000 A 
ATOM     30  F   UNL     1       7.044   4.540  13.052  0.00  0.00    +0.000 F 
ATOM     31  C   UNL     1       7.506   5.062  15.306  0.00  0.00    +0.000 A 
ATOM     32  C   UNL     1       7.092   5.098  16.638  0.00  0.00    +0.000 A 
ENDBRANCH  23  26
ENDBRANCH  20  23
ENDBRANCH   2  17
TORSDOF 7
ENDMDL
MODEL 6
REMARK VINA RESULT:      -7.8      0.938      1.568
REMARK  Name = 
REMARK  10 active torsions:
REMARK  status: ('A' for Active; 'I' for Inactive)
REMARK    1  A    between atoms: C_1  and  C_2
REMARK    2  A    between atoms: C_2  and  N_3
REMARK    3  A    between atoms: N_3  and  C_4
REMARK    4  A    between atoms: N_3  and  C_6
REMARK    5  A    between atoms: C_4  and  C_5
REMARK    6  A    between atoms: C_9  and  N_10
REMARK    7  A    between atoms: C_11  and  C_13
REMARK    8  A    between atoms: N_16  and  S_17
REMARK    9  A    between atoms: S_17  and  C_20
REMARK   10  A    between atoms: C_29  and  C_30
REMARK                            x       y       z     vdW  Elec       q    Type
REMARK                         _______ _______ _______ _____ _____    ______ ____
ROOT
ATOM      1  N   UNL     1       0.418   9.466  19.819  0.00  0.00    +0.000 N 
ATOM      2  C   UNL     1       1.487   9.489  18.939  0.00  0.00    +0.000 C 
ATOM      3  O   UNL     1       1.902  10.468  18.335  0.00  0.00    +0.000 OA
ATOM      4  H   UNL     1       0.182   8.588  20.252  0.00  0.00    +0.000 HD
ENDROOT
BRANCH   1   8
ATOM      5  C   UNL     1      -2.183  12.755  20.695  0.00  0.00    +0.000 A 
ATOM      6  C   UNL     1      -1.189  12.359  21.588  0.00  0.00    +0.000 A 
ATOM      7  C   UNL     1      -0.343  11.278  21.307  0.00  0.00    +0.000 A 
ATOM      8  C   UNL     1      -0.448  10.552  20.115  0.00  0.00    +0.000 A 
ATOM      9  C   UNL     1      -1.437  10.934  19.192  0.00  0.00    +0.000 A 
ATOM     10  C   UNL     1      -1.662  10.287  17.853  0.00  0.00    +0.000 C 
ATOM     11  C   UNL     1      -2.296  12.010  19.513  0.00  0.00    +0.000 A 
BRANCH   5  12
ATOM     12  N   UNL     1      -3.004  13.856  20.977  0.00  0.00    +0.000 N 
BRANCH  12  14
ATOM     13  C   UNL     1      -2.261  15.919  22.173  0.00  0.00    +0.000 C 
ATOM     14  C   UNL     1      -2.400  15.189  20.846  0.00  0.00    +0.000 C 
ENDBRANCH  12  14
BRANCH  12  15
ATOM     15  C   UNL     1      -4.442  13.687  20.698  0.00  0.00    +0.000 C 
ATOM     16  C   UNL     1      -5.188  12.926  21.790  0.00  0.00    +0.000 C 
ENDBRANCH  12  15
ENDBRANCH   5  12
ENDBRANCH   1   8
BRANCH   2  17
ATOM     17  C   UNL     1       2.106   8.149  18.659  0.00  0.00    +0.000 C 
ATOM     18  C   UNL     1       2.174   7.280  19.687  0.00  0.00    +0.000 C 
ATOM     19  C   UNL     1       2.971   6.011  19.707  0.00  0.00    +0.000 C 
ATOM     20  N   UNL     1       3.702   5.755  18.433  0.00  0.00    +0.000 NA
ATOM     21  C   UNL     1       4.060   6.990  17.679  0.00  0.00    +0.000 C 
ATOM     22  C   UNL     1       2.830   7.846  17.389  0.00  0.00    +0.000 C 
BRANCH  20  23
ATOM     23  S   UNL     1       5.082   4.733  18.623  0.00  0.00    +0.000 S 
ATOM     24  O   UNL     1       6.063   5.451  19.404  0.00  0.00    +0.000 OA
ATOM     25  O   UNL     1       4.608   3.433  19.036  0.00  0.00    +0.000 OA
BRANCH  23  26
ATOM     26  C   UNL     1       5.740   4.599  16.981  0.00  0.00    +0.000 A 
ATOM     27  C   UNL     1       4.901   4.147  15.952  0.00  0.00    +0.000 A 
ATOM     28  C   UNL     1       5.380   4.114  14.642  0.00  0.00    +0.000 A 
ATOM     29  C   UNL     1       6.678   4.539  14.374  0.00  0.00    +0.000 A 
ATOM     30  F   UNL     1       7.130   4.518  13.114  0.00  0.00    +0.000 F 
ATOM     31  C   UNL     1       7.513   4.998  15.392  0.00  0.00    +0.000 A 
ATOM     32  C   UNL     1       7.043   5.030  16.706  0.00  0.00    +0.000 A 
ENDBRANCH  23  26
ENDBRANCH  20  23
ENDBRANCH   2  17
TORSDOF 7
ENDMDL
MODEL 7
REMARK VINA RESULT:      -7.8      2.272      2.943
REMARK  Name = 
REMARK  10 active torsions:
REMARK  status: ('A' for Active; 'I' for Inactive)
REMARK    1  A    between atoms: C_1  and  C_2
REMARK    2  A    between atoms: C_2  and  N_3
REMARK    3  A    between atoms: N_3  and  C_4
REMARK    4  A    between atoms: N_3  and  C_6
REMARK    5  A    between atoms: C_4  and  C_5
REMARK    6  A    between atoms: C_9  and  N_10
REMARK    7  A    between atoms: C_11  and  C_13
REMARK    8  A    between atoms: N_16  and  S_17
REMARK    9  A    between atoms: S_17  and  C_20
REMARK   10  A    between atoms: C_29  and  C_30
REMARK                            x       y       z     vdW  Elec       q    Type
REMARK                         _______ _______ _______ _____ _____    ______ ____
ROOT
ATOM      1  N   UNL     1       1.338  10.036  18.620  0.00  0.00    +0.000 N 
ATOM      2  C   UNL     1       1.453   9.067  19.602  0.00  0.00    +0.000 C 
ATOM      3  O   UNL     1       1.156   9.198  20.781  0.00  0.00    +0.000 OA
ATOM      4  H   UNL     1       1.618   9.793  17.684  0.00  0.00    +0.000 HD
ENDROOT
BRANCH   1   8
ATOM      5  C   UNL     1       0.128  14.107  19.182  0.00  0.00    +0.000 A 
ATOM      6  C   UNL     1       1.469  13.732  19.248  0.00  0.00    +0.000 A 
ATOM      7  C   UNL     1       1.865  12.400  19.074  0.00  0.00    +0.000 A 
ATOM      8  C   UNL     1       0.938  11.385  18.814  0.00  0.00    +0.000 A 
ATOM      9  C   UNL     1      -0.421  11.734  18.733  0.00  0.00    +0.000 A 
ATOM     10  C   UNL     1      -1.541  10.777  18.426  0.00  0.00    +0.000 C 
ATOM     11  C   UNL     1      -0.797  13.081  18.942  0.00  0.00    +0.000 A 
BRANCH   5  12
ATOM     12  N   UNL     1      -0.252  15.448  19.330  0.00  0.00    +0.000 N 
BRANCH  12  14
ATOM     13  C   UNL     1      -1.112  15.910  21.630  0.00  0.00    +0.000 C 
ATOM     14  C   UNL     1      -1.437  15.717  20.157  0.00  0.00    +0.000 C 
ENDBRANCH  12  14
BRANCH  12  15
ATOM     15  C   UNL     1       0.834  16.444  19.282  0.00  0.00    +0.000 C 
ATOM     16  C   UNL     1       0.850  17.264  17.995  0.00  0.00    +0.000 C 
ENDBRANCH  12  15
ENDBRANCH   5  12
ENDBRANCH   1   8
BRANCH   2  17
ATOM     17  C   UNL     1       2.093   7.784  19.155  0.00  0.00    +0.000 C 
ATOM     18  C   UNL     1       2.124   6.773  20.046  0.00  0.00    +0.000 C 
ATOM     19  C   UNL     1       2.930   5.516  19.914  0.00  0.00    +0.000 C 
ATOM     20  N   UNL     1       3.714   5.451  18.648  0.00  0.00    +0.000 NA
ATOM     21  C   UNL     1       4.094   6.784  18.099  0.00  0.00    +0.000 C 
ATOM     22  C   UNL     1       2.871   7.671  17.886  0.00  0.00    +0.000 C 
BRANCH  20  23
ATOM     23  S   UNL     1       5.092   4.414  18.743  0.00  0.00    +0.000 S 
ATOM     24  O   UNL     1       6.068   5.049  19.600  0.00  0.00    +0.000 OA
ATOM     25  O   UNL     1       4.616   3.079  19.021  0.00  0.00    +0.000 OA
BRANCH  23  26
ATOM     26  C   UNL     1       5.762   4.445  17.101  0.00  0.00    +0.000 A 
ATOM     27  C   UNL     1       4.941   4.064  16.030  0.00  0.00    +0.000 A 
ATOM     28  C   UNL     1       5.427   4.160  14.726  0.00  0.00    +0.000 A 
ATOM     29  C   UNL     1       6.714   4.642  14.506  0.00  0.00    +0.000 A 
ATOM     30  F   UNL     1       7.172   4.745  13.252  0.00  0.00    +0.000 F 
ATOM     31  C   UNL     1       7.531   5.030  15.567  0.00  0.00    +0.000 A 
ATOM     32  C   UNL     1       7.055   4.933  16.875  0.00  0.00    +0.000 A 
ENDBRANCH  23  26
ENDBRANCH  20  23
ENDBRANCH   2  17
TORSDOF 7
ENDMDL
MODEL 8
REMARK VINA RESULT:      -7.8      2.330      3.006
REMARK  Name = 
REMARK  10 active torsions:
REMARK  status: ('A' for Active; 'I' for Inactive)
REMARK    1  A    between atoms: C_1  and  C_2
REMARK    2  A    between atoms: C_2  and  N_3
REMARK    3  A    between atoms: N_3  and  C_4
REMARK    4  A    between atoms: N_3  and  C_6
REMARK    5  A    between atoms: C_4  and  C_5
REMARK    6  A    between atoms: C_9  and  N_10
REMARK    7  A    between atoms: C_11  and  C_13
REMARK    8  A    between atoms: N_16  and  S_17
REMARK    9  A    between atoms: S_17  and  C_20
REMARK   10  A    between atoms: C_29  and  C_30
REMARK                            x       y       z     vdW  Elec       q    Type
REMARK                         _______ _______ _______ _____ _____    ______ ____
ROOT
ATOM      1  N   UNL     1       1.467  10.261  18.615  0.00  0.00    +0.000 N 
ATOM      2  C   UNL     1       1.357   9.214  19.513  0.00  0.00    +0.000 C 
ATOM      3  O   UNL     1       0.840   9.267  20.620  0.00  0.00    +0.000 OA
ATOM      4  H   UNL     1       1.917  10.080  17.732  0.00  0.00    +0.000 HD
ENDROOT
BRANCH   1   8
ATOM      5  C   UNL     1       0.304  14.330  19.285  0.00  0.00    +0.000 A 
ATOM      6  C   UNL     1       1.617  13.907  19.489  0.00  0.00    +0.000 A 
ATOM      7  C   UNL     1       1.997  12.575  19.280  0.00  0.00    +0.000 A 
ATOM      8  C   UNL     1       1.082  11.609  18.845  0.00  0.00    +0.000 A 
ATOM      9  C   UNL     1      -0.247  12.008  18.623  0.00  0.00    +0.000 A 
ATOM     10  C   UNL     1      -1.345  11.109  18.122  0.00  0.00    +0.000 C 
ATOM     11  C   UNL     1      -0.611  13.352  18.870  0.00  0.00    +0.000 A 
BRANCH   5  12
ATOM     12  N   UNL     1      -0.056  15.671  19.472  0.00  0.00    +0.000 N 
BRANCH  12  14
ATOM     13  C   UNL     1      -0.639  17.432  17.798  0.00  0.00    +0.000 C 
ATOM     14  C   UNL     1       0.458  16.642  18.496  0.00  0.00    +0.000 C 
ENDBRANCH  12  14
BRANCH  12  15
ATOM     15  C   UNL     1      -1.363  15.914  20.109  0.00  0.00    +0.000 C 
ATOM     16  C   UNL     1      -1.296  15.973  21.632  0.00  0.00    +0.000 C 
ENDBRANCH  12  15
ENDBRANCH   5  12
ENDBRANCH   1   8
BRANCH   2  17
ATOM     17  C   UNL     1       2.029   7.940  19.087  0.00  0.00    +0.000 C 
ATOM     18  C   UNL     1       2.057   6.934  19.983  0.00  0.00    +0.000 C 
ATOM     19  C   UNL     1       2.887   5.690  19.876  0.00  0.00    +0.000 C 
ATOM     20  N   UNL     1       3.702   5.633  18.629  0.00  0.00    +0.000 NA
ATOM     21  C   UNL     1       4.072   6.970  18.083  0.00  0.00    +0.000 C 
ATOM     22  C   UNL     1       2.839   7.835  17.837  0.00  0.00    +0.000 C 
BRANCH  20  23
ATOM     23  S   UNL     1       5.095   4.621  18.762  0.00  0.00    +0.000 S 
ATOM     24  O   UNL     1       6.076   5.317  19.564  0.00  0.00    +0.000 OA
ATOM     25  O   UNL     1       4.641   3.299  19.124  0.00  0.00    +0.000 OA
BRANCH  23  26
ATOM     26  C   UNL     1       5.738   4.564  17.109  0.00  0.00    +0.000 A 
ATOM     27  C   UNL     1       4.895   4.142  16.072  0.00  0.00    +0.000 A 
ATOM     28  C   UNL     1       5.362   4.170  14.757  0.00  0.00    +0.000 A 
ATOM     29  C   UNL     1       6.651   4.625  14.494  0.00  0.00    +0.000 A 
ATOM     30  F   UNL     1       7.089   4.662  13.229  0.00  0.00    +0.000 F 
ATOM     31  C   UNL     1       7.488   5.054  15.521  0.00  0.00    +0.000 A 
ATOM     32  C   UNL     1       7.032   5.026  16.840  0.00  0.00    +0.000 A 
ENDBRANCH  23  26
ENDBRANCH  20  23
ENDBRANCH   2  17
TORSDOF 7
ENDMDL
MODEL 9
REMARK VINA RESULT:      -7.8      0.945      1.852
REMARK  Name = 
REMARK  10 active torsions:
REMARK  status: ('A' for Active; 'I' for Inactive)
REMARK    1  A    between atoms: C_1  and  C_2
REMARK    2  A    between atoms: C_2  and  N_3
REMARK    3  A    between atoms: N_3  and  C_4
REMARK    4  A    between atoms: N_3  and  C_6
REMARK    5  A    between atoms: C_4  and  C_5
REMARK    6  A    between atoms: C_9  and  N_10
REMARK    7  A    between atoms: C_11  and  C_13
REMARK    8  A    between atoms: N_16  and  S_17
REMARK    9  A    between atoms: S_17  and  C_20
REMARK   10  A    between atoms: C_29  and  C_30
REMARK                            x       y       z     vdW  Elec       q    Type
REMARK                         _______ _______ _______ _____ _____    ______ ____
ROOT
ATOM      1  N   UNL     1       0.457   9.518  19.905  0.00  0.00    +0.000 N 
ATOM      2  C   UNL     1       1.481   9.504  18.974  0.00  0.00    +0.000 C 
ATOM      3  O   UNL     1       1.866  10.458  18.312  0.00  0.00    +0.000 OA
ATOM      4  H   UNL     1       0.241   8.658  20.382  0.00  0.00    +0.000 HD
ENDROOT
BRANCH   1   8
ATOM      5  C   UNL     1      -2.097  12.845  20.779  0.00  0.00    +0.000 A 
ATOM      6  C   UNL     1      -1.072  12.470  21.645  0.00  0.00    +0.000 A 
ATOM      7  C   UNL     1      -0.242  11.376  21.366  0.00  0.00    +0.000 A 
ATOM      8  C   UNL     1      -0.394  10.617  20.200  0.00  0.00    +0.000 A 
ATOM      9  C   UNL     1      -1.414  10.978  19.303  0.00  0.00    +0.000 A 
ATOM     10  C   UNL     1      -1.691  10.293  17.992  0.00  0.00    +0.000 C 
ATOM     11  C   UNL     1      -2.256  12.067  19.623  0.00  0.00    +0.000 A 
BRANCH   5  12
ATOM     12  N   UNL     1      -2.902  13.958  21.057  0.00  0.00    +0.000 N 
BRANCH  12  14
ATOM     13  C   UNL     1      -5.241  13.185  21.470  0.00  0.00    +0.000 C 
ATOM     14  C   UNL     1      -3.967  13.778  22.053  0.00  0.00    +0.000 C 
ENDBRANCH  12  14
BRANCH  12  15
ATOM     15  C   UNL     1      -2.261  15.279  20.919  0.00  0.00    +0.000 C 
ATOM     16  C   UNL     1      -2.256  16.091  22.211  0.00  0.00    +0.000 C 
ENDBRANCH  12  15
ENDBRANCH   5  12
ENDBRANCH   1   8
BRANCH   2  17
ATOM     17  C   UNL     1       2.084   8.153  18.716  0.00  0.00    +0.000 C 
ATOM     18  C   UNL     1       2.125   7.293  19.753  0.00  0.00    +0.000 C 
ATOM     19  C   UNL     1       2.903   6.013  19.798  0.00  0.00    +0.000 C 
ATOM     20  N   UNL     1       3.649   5.734  18.537  0.00  0.00    +0.000 NA
ATOM     21  C   UNL     1       4.036   6.956  17.777  0.00  0.00    +0.000 C 
ATOM     22  C   UNL     1       2.823   7.826  17.460  0.00  0.00    +0.000 C 
BRANCH  20  23
ATOM     23  S   UNL     1       5.011   4.694  18.758  0.00  0.00    +0.000 S 
ATOM     24  O   UNL     1       5.966   5.384  19.595  0.00  0.00    +0.000 OA
ATOM     25  O   UNL     1       4.510   3.390  19.119  0.00  0.00    +0.000 OA
BRANCH  23  26
ATOM     26  C   UNL     1       5.734   4.594  17.141  0.00  0.00    +0.000 A 
ATOM     27  C   UNL     1       4.945   4.135  16.076  0.00  0.00    +0.000 A 
ATOM     28  C   UNL     1       5.475   4.127  14.785  0.00  0.00    +0.000 A 
ATOM     29  C   UNL     1       6.772   4.583  14.572  0.00  0.00    +0.000 A 
ATOM     30  F   UNL     1       7.272   4.586  13.329  0.00  0.00    +0.000 F 
ATOM     31  C   UNL     1       7.557   5.048  15.626  0.00  0.00    +0.000 A 
ATOM     32  C   UNL     1       7.037   5.056  16.921  0.00  0.00    +0.000 A 
ENDBRANCH  23  26
ENDBRANCH  20  23
ENDBRANCH   2  17
TORSDOF 7
ENDMDL
