MODEL 1
REMARK VINA RESULT:      -7.4      0.000      0.000
REMARK  Name = 
REMARK  6 active torsions:
REMARK  status: ('A' for Active; 'I' for Inactive)
REMARK    1  A    between atoms: C_1  and  C_2
REMARK    2  A    between atoms: C_2  and  O_3
REMARK    3  A    between atoms: O_3  and  C_4
REMARK    4  A    between atoms: C_4  and  C_6
REMARK    5  A    between atoms: C_7  and  C_8
REMARK    6  A    between atoms: N_15  and  C_16
REMARK                            x       y       z     vdW  Elec       q    Type
REMARK                         _______ _______ _______ _____ _____    ______ ____
ROOT
ATOM      1  C   UNL     1       4.723   5.275  16.698  0.00  0.00    +0.000 A 
ATOM      2  C   UNL     1       5.238   4.081  16.224  0.00  0.00    +0.000 A 
ATOM      3  C   UNL     1       6.338   3.699  15.319  0.00  0.00    +0.000 C 
ATOM      4  O   UNL     1       4.540   3.031  16.755  0.00  0.00    +0.000 OA
ATOM      5  C   UNL     1       3.553   3.543  17.539  0.00  0.00    +0.000 A 
ATOM      6  N   UNL     1       2.677   2.769  18.199  0.00  0.00    +0.000 NA
ATOM      7  C   UNL     1       1.787   3.510  18.863  0.00  0.00    +0.000 A 
ATOM      8  N   UNL     1       1.699   4.848  18.910  0.00  0.00    +0.000 NA
ATOM      9  C   UNL     1       2.604   5.603  18.236  0.00  0.00    +0.000 A 
ATOM     10  N   UNL     1       2.474   7.003  18.233  0.00  0.00    +0.000 N 
ATOM     11  C   UNL     1       3.602   4.926  17.519  0.00  0.00    +0.000 A 
ATOM     12  H   UNL     1       3.276   7.486  17.819  0.00  0.00    +0.000 HD
ENDROOT
BRANCH  10  13
ATOM     13  C   UNL     1       1.918   7.786  19.272  0.00  0.00    +0.000 A 
ATOM     14  C   UNL     1       1.808   7.262  20.570  0.00  0.00    +0.000 A 
ATOM     15  C   UNL     1       1.315   8.039  21.615  0.00  0.00    +0.000 A 
ATOM     16  C   UNL     1       0.940   9.352  21.370  0.00  0.00    +0.000 A 
ATOM     17  F   UNL     1       0.466  10.097  22.377  0.00  0.00    +0.000 F 
ATOM     18  C   UNL     1       1.056   9.910  20.103  0.00  0.00    +0.000 A 
ATOM     19  C   UNL     1       1.555   9.131  19.058  0.00  0.00    +0.000 A 
ATOM     20 CL   UNL     1       1.691   9.856  17.493  0.00  0.00    +0.000 Cl
ENDBRANCH  10  13
BRANCH   1  21
ATOM     21  C   UNL     1       5.149   6.626  16.420  0.00  0.00    +0.000 C 
ATOM     22  O   UNL     1       5.117   7.090  15.285  0.00  0.00    +0.000 OA
BRANCH  21  23
ATOM     23  O   UNL     1       5.754   7.230  17.477  0.00  0.00    +0.000 OA
BRANCH  23  25
ATOM     24  C   UNL     1       7.680   6.303  18.559  0.00  0.00    +0.000 C 
ATOM     25  C   UNL     1       7.189   7.182  17.418  0.00  0.00    +0.000 C 
ENDBRANCH  23  25
ENDBRANCH  21  23
ENDBRANCH   1  21
TORSDOF 4
ENDMDL
MODEL 2
REMARK VINA RESULT:      -7.1      2.401      4.089
REMARK  Name = 
REMARK  6 active torsions:
REMARK  status: ('A' for Active; 'I' for Inactive)
REMARK    1  A    between atoms: C_1  and  C_2
REMARK    2  A    between atoms: C_2  and  O_3
REMARK    3  A    between atoms: O_3  and  C_4
REMARK    4  A    between atoms: C_4  and  C_6
REMARK    5  A    between atoms: C_7  and  C_8
REMARK    6  A    between atoms: N_15  and  C_16
REMARK                            x       y       z     vdW  Elec       q    Type
REMARK                         _______ _______ _______ _____ _____    ______ ____
ROOT
ATOM      1  C   UNL     1       2.795   3.965  18.527  0.00  0.00    +0.000 A 
ATOM      2  C   UNL     1       3.542   2.926  18.001  0.00  0.00    +0.000 A 
ATOM      3  C   UNL     1       3.464   1.453  18.041  0.00  0.00    +0.000 C 
ATOM      4  O   UNL     1       4.584   3.425  17.268  0.00  0.00    +0.000 OA
ATOM      5  C   UNL     1       4.534   4.783  17.350  0.00  0.00    +0.000 A 
ATOM      6  N   UNL     1       5.431   5.579  16.746  0.00  0.00    +0.000 NA
ATOM      7  C   UNL     1       5.187   6.864  17.011  0.00  0.00    +0.000 A 
ATOM      8  N   UNL     1       4.211   7.378  17.776  0.00  0.00    +0.000 NA
ATOM      9  C   UNL     1       3.317   6.547  18.368  0.00  0.00    +0.000 A 
ATOM     10  N   UNL     1       2.333   7.080  19.219  0.00  0.00    +0.000 N 
ATOM     11  C   UNL     1       3.465   5.171  18.138  0.00  0.00    +0.000 A 
ATOM     12  H   UNL     1       1.626   6.397  19.504  0.00  0.00    +0.000 HD
ENDROOT
BRANCH  10  13
ATOM     13  C   UNL     1       1.751   8.366  19.111  0.00  0.00    +0.000 A 
ATOM     14  C   UNL     1       1.636   8.985  17.856  0.00  0.00    +0.000 A 
ATOM     15  C   UNL     1       1.016  10.225  17.726  0.00  0.00    +0.000 A 
ATOM     16  C   UNL     1       0.495  10.848  18.851  0.00  0.00    +0.000 A 
ATOM     17  F   UNL     1      -0.101  12.041  18.722  0.00  0.00    +0.000 F 
ATOM     18  C   UNL     1       0.571  10.254  20.105  0.00  0.00    +0.000 A 
ATOM     19  C   UNL     1       1.189   9.009  20.232  0.00  0.00    +0.000 A 
ATOM     20 CL   UNL     1       1.265   8.294  21.805  0.00  0.00    +0.000 Cl
ENDBRANCH  10  13
BRANCH   1  21
ATOM     21  C   UNL     1       1.609   3.911  19.347  0.00  0.00    +0.000 C 
ATOM     22  O   UNL     1       0.539   3.505  18.906  0.00  0.00    +0.000 OA
BRANCH  21  23
ATOM     23  O   UNL     1       1.757   4.523  20.552  0.00  0.00    +0.000 OA
BRANCH  23  25
ATOM     24  C   UNL     1       1.631   2.523  21.866  0.00  0.00    +0.000 C 
ATOM     25  C   UNL     1       2.482   3.733  21.509  0.00  0.00    +0.000 C 
ENDBRANCH  23  25
ENDBRANCH  21  23
ENDBRANCH   1  21
TORSDOF 4
ENDMDL
MODEL 3
REMARK VINA RESULT:      -7.1      4.175      6.808
REMARK  Name = 
REMARK  6 active torsions:
REMARK  status: ('A' for Active; 'I' for Inactive)
REMARK    1  A    between atoms: C_1  and  C_2
REMARK    2  A    between atoms: C_2  and  O_3
REMARK    3  A    between atoms: O_3  and  C_4
REMARK    4  A    between atoms: C_4  and  C_6
REMARK    5  A    between atoms: C_7  and  C_8
REMARK    6  A    between atoms: N_15  and  C_16
REMARK                            x       y       z     vdW  Elec       q    Type
REMARK                         _______ _______ _______ _____ _____    ______ ____
ROOT
ATOM      1  C   UNL     1       3.395   3.285  19.868  0.00  0.00    +0.000 A 
ATOM      2  C   UNL     1       2.590   3.603  20.947  0.00  0.00    +0.000 A 
ATOM      3  C   UNL     1       2.148   2.905  22.170  0.00  0.00    +0.000 C 
ATOM      4  O   UNL     1       2.122   4.883  20.817  0.00  0.00    +0.000 OA
ATOM      5  C   UNL     1       2.591   5.377  19.639  0.00  0.00    +0.000 A 
ATOM      6  N   UNL     1       2.302   6.614  19.206  0.00  0.00    +0.000 NA
ATOM      7  C   UNL     1       2.849   6.844  18.009  0.00  0.00    +0.000 A 
ATOM      8  N   UNL     1       3.588   6.007  17.266  0.00  0.00    +0.000 NA
ATOM      9  C   UNL     1       3.868   4.765  17.735  0.00  0.00    +0.000 A 
ATOM     10  N   UNL     1       4.590   3.866  16.930  0.00  0.00    +0.000 N 
ATOM     11  C   UNL     1       3.362   4.422  18.998  0.00  0.00    +0.000 A 
ATOM     12  H   UNL     1       4.870   3.012  17.421  0.00  0.00    +0.000 HD
ENDROOT
BRANCH  10  13
ATOM     13  C   UNL     1       5.566   4.215  15.967  0.00  0.00    +0.000 A 
ATOM     14  C   UNL     1       5.259   4.159  14.598  0.00  0.00    +0.000 A 
ATOM     15  C   UNL     1       6.189   4.553  13.640  0.00  0.00    +0.000 A 
ATOM     16  C   UNL     1       7.432   5.018  14.048  0.00  0.00    +0.000 A 
ATOM     17  F   UNL     1       8.325   5.396  13.124  0.00  0.00    +0.000 F 
ATOM     18  C   UNL     1       7.762   5.108  15.395  0.00  0.00    +0.000 A 
ATOM     19  C   UNL     1       6.825   4.717  16.353  0.00  0.00    +0.000 A 
ATOM     20 CL   UNL     1       7.264   4.844  18.021  0.00  0.00    +0.000 Cl
ENDBRANCH  10  13
BRANCH   1  21
ATOM     21  C   UNL     1       4.106   2.059  19.592  0.00  0.00    +0.000 C 
ATOM     22  O   UNL     1       3.721   1.269  18.736  0.00  0.00    +0.000 OA
BRANCH  21  23
ATOM     23  O   UNL     1       5.092   1.794  20.490  0.00  0.00    +0.000 OA
BRANCH  23  25
ATOM     24  C   UNL     1       6.035   0.226  22.036  0.00  0.00    +0.000 C 
ATOM     25  C   UNL     1       5.299   0.390  20.714  0.00  0.00    +0.000 C 
ENDBRANCH  23  25
ENDBRANCH  21  23
ENDBRANCH   1  21
TORSDOF 4
ENDMDL
MODEL 4
REMARK VINA RESULT:      -7.0      4.102      6.834
REMARK  Name = 
REMARK  6 active torsions:
REMARK  status: ('A' for Active; 'I' for Inactive)
REMARK    1  A    between atoms: C_1  and  C_2
REMARK    2  A    between atoms: C_2  and  O_3
REMARK    3  A    between atoms: O_3  and  C_4
REMARK    4  A    between atoms: C_4  and  C_6
REMARK    5  A    between atoms: C_7  and  C_8
REMARK    6  A    between atoms: N_15  and  C_16
REMARK                            x       y       z     vdW  Elec       q    Type
REMARK                         _______ _______ _______ _____ _____    ______ ____
ROOT
ATOM      1  C   UNL     1       3.243   3.729  19.837  0.00  0.00    +0.000 A 
ATOM      2  C   UNL     1       2.487   4.127  20.927  0.00  0.00    +0.000 A 
ATOM      3  C   UNL     1       1.980   3.471  22.148  0.00  0.00    +0.000 C 
ATOM      4  O   UNL     1       2.164   5.451  20.811  0.00  0.00    +0.000 OA
ATOM      5  C   UNL     1       2.676   5.900  19.633  0.00  0.00    +0.000 A 
ATOM      6  N   UNL     1       2.524   7.166  19.212  0.00  0.00    +0.000 NA
ATOM      7  C   UNL     1       3.083   7.344  18.012  0.00  0.00    +0.000 A 
ATOM      8  N   UNL     1       3.718   6.436  17.256  0.00  0.00    +0.000 NA
ATOM      9  C   UNL     1       3.861   5.166  17.713  0.00  0.00    +0.000 A 
ATOM     10  N   UNL     1       4.471   4.199  16.894  0.00  0.00    +0.000 N 
ATOM     11  C   UNL     1       3.330   4.871  18.977  0.00  0.00    +0.000 A 
ATOM     12  H   UNL     1       4.658   3.315  17.375  0.00  0.00    +0.000 HD
ENDROOT
BRANCH  10  13
ATOM     13  C   UNL     1       5.472   4.445  15.925  0.00  0.00    +0.000 A 
ATOM     14  C   UNL     1       5.164   4.375  14.557  0.00  0.00    +0.000 A 
ATOM     15  C   UNL     1       6.122   4.670  13.591  0.00  0.00    +0.000 A 
ATOM     16  C   UNL     1       7.397   5.049  13.990  0.00  0.00    +0.000 A 
ATOM     17  F   UNL     1       8.317   5.332  13.059  0.00  0.00    +0.000 F 
ATOM     18  C   UNL     1       7.731   5.151  15.335  0.00  0.00    +0.000 A 
ATOM     19  C   UNL     1       6.766   4.860  16.301  0.00  0.00    +0.000 A 
ATOM     20 CL   UNL     1       7.212   4.999  17.966  0.00  0.00    +0.000 Cl
ENDBRANCH  10  13
BRANCH   1  21
ATOM     21  C   UNL     1       3.810   2.434  19.546  0.00  0.00    +0.000 C 
ATOM     22  O   UNL     1       5.023   2.259  19.494  0.00  0.00    +0.000 OA
BRANCH  21  23
ATOM     23  O   UNL     1       2.886   1.517  19.154  0.00  0.00    +0.000 OA
BRANCH  23  25
ATOM     24  C   UNL     1       0.626   2.156  18.683  0.00  0.00    +0.000 C 
ATOM     25  C   UNL     1       2.024   1.986  18.105  0.00  0.00    +0.000 C 
ENDBRANCH  23  25
ENDBRANCH  21  23
ENDBRANCH   1  21
TORSDOF 4
ENDMDL
MODEL 5
REMARK VINA RESULT:      -6.9      3.653      5.193
REMARK  Name = 
REMARK  6 active torsions:
REMARK  status: ('A' for Active; 'I' for Inactive)
REMARK    1  A    between atoms: C_1  and  C_2
REMARK    2  A    between atoms: C_2  and  O_3
REMARK    3  A    between atoms: O_3  and  C_4
REMARK    4  A    between atoms: C_4  and  C_6
REMARK    5  A    between atoms: C_7  and  C_8
REMARK    6  A    between atoms: N_15  and  C_16
REMARK                            x       y       z     vdW  Elec       q    Type
REMARK                         _______ _______ _______ _____ _____    ______ ____
ROOT
ATOM      1  C   UNL     1       6.347   4.647  15.590  0.00  0.00    +0.000 A 
ATOM      2  C   UNL     1       7.304   5.453  14.998  0.00  0.00    +0.000 A 
ATOM      3  C   UNL     1       7.800   5.657  13.623  0.00  0.00    +0.000 C 
ATOM      4  O   UNL     1       7.900   6.240  15.945  0.00  0.00    +0.000 OA
ATOM      5  C   UNL     1       7.358   5.918  17.151  0.00  0.00    +0.000 A 
ATOM      6  N   UNL     1       7.738   6.506  18.296  0.00  0.00    +0.000 NA
ATOM      7  C   UNL     1       7.087   5.989  19.341  0.00  0.00    +0.000 A 
ATOM      8  N   UNL     1       6.173   5.007  19.338  0.00  0.00    +0.000 NA
ATOM      9  C   UNL     1       5.805   4.437  18.163  0.00  0.00    +0.000 A 
ATOM     10  N   UNL     1       4.895   3.365  18.167  0.00  0.00    +0.000 N 
ATOM     11  C   UNL     1       6.412   4.920  16.994  0.00  0.00    +0.000 A 
ATOM     12  H   UNL     1       4.576   3.098  17.232  0.00  0.00    +0.000 HD
ENDROOT
BRANCH  10  13
ATOM     13  C   UNL     1       3.861   3.159  19.111  0.00  0.00    +0.000 A 
ATOM     14  C   UNL     1       4.098   2.389  20.261  0.00  0.00    +0.000 A 
ATOM     15  C   UNL     1       3.109   2.223  21.227  0.00  0.00    +0.000 A 
ATOM     16  C   UNL     1       1.877   2.839  21.053  0.00  0.00    +0.000 A 
ATOM     17  F   UNL     1       0.928   2.677  21.984  0.00  0.00    +0.000 F 
ATOM     18  C   UNL     1       1.615   3.626  19.938  0.00  0.00    +0.000 A 
ATOM     19  C   UNL     1       2.611   3.794  18.974  0.00  0.00    +0.000 A 
ATOM     20 CL   UNL     1       2.255   4.783  17.600  0.00  0.00    +0.000 Cl
ENDBRANCH  10  13
BRANCH   1  21
ATOM     21  C   UNL     1       5.470   3.676  14.980  0.00  0.00    +0.000 C 
ATOM     22  O   UNL     1       5.335   2.549  15.444  0.00  0.00    +0.000 OA
BRANCH  21  23
ATOM     23  O   UNL     1       4.988   4.069  13.771  0.00  0.00    +0.000 OA
BRANCH  23  25
ATOM     24  C   UNL     1       4.436   3.289  11.573  0.00  0.00    +0.000 C 
ATOM     25  C   UNL     1       5.486   3.284  12.675  0.00  0.00    +0.000 C 
ENDBRANCH  23  25
ENDBRANCH  21  23
ENDBRANCH   1  21
TORSDOF 4
ENDMDL
MODEL 6
REMARK VINA RESULT:      -6.8      4.339      7.587
REMARK  Name = 
REMARK  6 active torsions:
REMARK  status: ('A' for Active; 'I' for Inactive)
REMARK    1  A    between atoms: C_1  and  C_2
REMARK    2  A    between atoms: C_2  and  O_3
REMARK    3  A    between atoms: O_3  and  C_4
REMARK    4  A    between atoms: C_4  and  C_6
REMARK    5  A    between atoms: C_7  and  C_8
REMARK    6  A    between atoms: N_15  and  C_16
REMARK                            x       y       z     vdW  Elec       q    Type
REMARK                         _______ _______ _______ _____ _____    ______ ____
ROOT
ATOM      1  C   UNL     1      -0.891  10.569  19.699  0.00  0.00    +0.000 A 
ATOM      2  C   UNL     1      -1.662  11.561  20.278  0.00  0.00    +0.000 A 
ATOM      3  C   UNL     1      -2.631  12.560  19.786  0.00  0.00    +0.000 C 
ATOM      4  O   UNL     1      -1.457  11.580  21.631  0.00  0.00    +0.000 OA
ATOM      5  C   UNL     1      -0.528  10.630  21.922  0.00  0.00    +0.000 A 
ATOM      6  N   UNL     1      -0.093  10.399  23.171  0.00  0.00    +0.000 NA
ATOM      7  C   UNL     1       0.842   9.447  23.186  0.00  0.00    +0.000 A 
ATOM      8  N   UNL     1       1.347   8.770  22.143  0.00  0.00    +0.000 NA
ATOM      9  C   UNL     1       0.882   9.022  20.893  0.00  0.00    +0.000 A 
ATOM     10  N   UNL     1       1.454   8.359  19.794  0.00  0.00    +0.000 N 
ATOM     11  C   UNL     1      -0.123   9.992  20.762  0.00  0.00    +0.000 A 
ATOM     12  H   UNL     1       0.947   8.508  18.918  0.00  0.00    +0.000 HD
ENDROOT
BRANCH  10  13
ATOM     13  C   UNL     1       2.023   7.063  19.812  0.00  0.00    +0.000 A 
ATOM     14  C   UNL     1       1.611   6.124  20.772  0.00  0.00    +0.000 A 
ATOM     15  C   UNL     1       2.119   4.828  20.768  0.00  0.00    +0.000 A 
ATOM     16  C   UNL     1       3.035   4.458  19.792  0.00  0.00    +0.000 A 
ATOM     17  F   UNL     1       3.521   3.210  19.792  0.00  0.00    +0.000 F 
ATOM     18  C   UNL     1       3.447   5.353  18.814  0.00  0.00    +0.000 A 
ATOM     19  C   UNL     1       2.933   6.651  18.817  0.00  0.00    +0.000 A 
ATOM     20 CL   UNL     1       3.463   7.742  17.584  0.00  0.00    +0.000 Cl
ENDBRANCH  10  13
BRANCH   1  21
ATOM     21  C   UNL     1      -0.796  10.182  18.312  0.00  0.00    +0.000 C 
ATOM     22  O   UNL     1       0.260  10.259  17.692  0.00  0.00    +0.000 OA
BRANCH  21  23
ATOM     23  O   UNL     1      -2.002   9.925  17.740  0.00  0.00    +0.000 OA
BRANCH  23  25
ATOM     24  C   UNL     1      -2.800   9.929  15.481  0.00  0.00    +0.000 C 
ATOM     25  C   UNL     1      -2.307  10.790  16.634  0.00  0.00    +0.000 C 
ENDBRANCH  23  25
ENDBRANCH  21  23
ENDBRANCH   1  21
TORSDOF 4
ENDMDL
MODEL 7
REMARK VINA RESULT:      -6.7      5.348      7.843
REMARK  Name = 
REMARK  6 active torsions:
REMARK  status: ('A' for Active; 'I' for Inactive)
REMARK    1  A    between atoms: C_1  and  C_2
REMARK    2  A    between atoms: C_2  and  O_3
REMARK    3  A    between atoms: O_3  and  C_4
REMARK    4  A    between atoms: C_4  and  C_6
REMARK    5  A    between atoms: C_7  and  C_8
REMARK    6  A    between atoms: N_15  and  C_16
REMARK                            x       y       z     vdW  Elec       q    Type
REMARK                         _______ _______ _______ _____ _____    ______ ____
ROOT
ATOM      1  C   UNL     1       0.208  10.626  19.496  0.00  0.00    +0.000 A 
ATOM      2  C   UNL     1       1.082   9.650  19.048  0.00  0.00    +0.000 A 
ATOM      3  C   UNL     1       1.636   9.258  17.738  0.00  0.00    +0.000 C 
ATOM      4  O   UNL     1       1.523   8.901  20.105  0.00  0.00    +0.000 OA
ATOM      5  C   UNL     1       0.907   9.364  21.226  0.00  0.00    +0.000 A 
ATOM      6  N   UNL     1       1.115   8.831  22.440  0.00  0.00    +0.000 NA
ATOM      7  C   UNL     1       0.367   9.436  23.366  0.00  0.00    +0.000 A 
ATOM      8  N   UNL     1      -0.509  10.437  23.192  0.00  0.00    +0.000 NA
ATOM      9  C   UNL     1      -0.692  10.959  21.953  0.00  0.00    +0.000 A 
ATOM     10  N   UNL     1      -1.655  11.965  21.760  0.00  0.00    +0.000 N 
ATOM     11  C   UNL     1       0.063  10.413  20.905  0.00  0.00    +0.000 A 
ATOM     12  H   UNL     1      -1.622  12.389  20.829  0.00  0.00    +0.000 HD
ENDROOT
BRANCH  10  13
ATOM     13  C   UNL     1      -2.051  12.928  22.718  0.00  0.00    +0.000 A 
ATOM     14  C   UNL     1      -3.239  12.753  23.446  0.00  0.00    +0.000 A 
ATOM     15  C   UNL     1      -3.615  13.662  24.431  0.00  0.00    +0.000 A 
ATOM     16  C   UNL     1      -2.795  14.749  24.705  0.00  0.00    +0.000 A 
ATOM     17  F   UNL     1      -3.159  15.621  25.653  0.00  0.00    +0.000 F 
ATOM     18  C   UNL     1      -1.601  14.941  24.020  0.00  0.00    +0.000 A 
ATOM     19  C   UNL     1      -1.225  14.025  23.036  0.00  0.00    +0.000 A 
ATOM     20 CL   UNL     1       0.268  14.291  22.204  0.00  0.00    +0.000 Cl
ENDBRANCH  10  13
BRANCH   1  21
ATOM     21  C   UNL     1      -0.485  11.643  18.741  0.00  0.00    +0.000 C 
ATOM     22  O   UNL     1       0.040  12.719  18.477  0.00  0.00    +0.000 OA
BRANCH  21  23
ATOM     23  O   UNL     1      -1.800  11.363  18.541  0.00  0.00    +0.000 OA
BRANCH  23  25
ATOM     24  C   UNL     1      -3.279   9.723  17.611  0.00  0.00    +0.000 C 
ATOM     25  C   UNL     1      -2.045  10.579  17.363  0.00  0.00    +0.000 C 
ENDBRANCH  23  25
ENDBRANCH  21  23
ENDBRANCH   1  21
TORSDOF 4
ENDMDL
MODEL 8
REMARK VINA RESULT:      -6.7      5.648      8.141
REMARK  Name = 
REMARK  6 active torsions:
REMARK  status: ('A' for Active; 'I' for Inactive)
REMARK    1  A    between atoms: C_1  and  C_2
REMARK    2  A    between atoms: C_2  and  O_3
REMARK    3  A    between atoms: O_3  and  C_4
REMARK    4  A    between atoms: C_4  and  C_6
REMARK    5  A    between atoms: C_7  and  C_8
REMARK    6  A    between atoms: N_15  and  C_16
REMARK                            x       y       z     vdW  Elec       q    Type
REMARK                         _______ _______ _______ _____ _____    ______ ____
ROOT
ATOM      1  C   UNL     1       0.082  10.861  19.561  0.00  0.00    +0.000 A 
ATOM      2  C   UNL     1       0.913   9.847  19.116  0.00  0.00    +0.000 A 
ATOM      3  C   UNL     1       1.495   9.462  17.816  0.00  0.00    +0.000 C 
ATOM      4  O   UNL     1       1.263   9.039  20.163  0.00  0.00    +0.000 OA
ATOM      5  C   UNL     1       0.630   9.504  21.274  0.00  0.00    +0.000 A 
ATOM      6  N   UNL     1       0.756   8.922  22.477  0.00  0.00    +0.000 NA
ATOM      7  C   UNL     1       0.008   9.543  23.392  0.00  0.00    +0.000 A 
ATOM      8  N   UNL     1      -0.797  10.602  23.218  0.00  0.00    +0.000 NA
ATOM      9  C   UNL     1      -0.897  11.173  21.991  0.00  0.00    +0.000 A 
ATOM     10  N   UNL     1      -1.788  12.243  21.794  0.00  0.00    +0.000 N 
ATOM     11  C   UNL     1      -0.134  10.613  20.955  0.00  0.00    +0.000 A 
ATOM     12  H   UNL     1      -1.690  12.692  20.880  0.00  0.00    +0.000 HD
ENDROOT
BRANCH  10  13
ATOM     13  C   UNL     1      -2.164  13.198  22.768  0.00  0.00    +0.000 A 
ATOM     14  C   UNL     1      -1.182  13.921  23.464  0.00  0.00    +0.000 A 
ATOM     15  C   UNL     1      -1.535  14.904  24.385  0.00  0.00    +0.000 A 
ATOM     16  C   UNL     1      -2.878  15.179  24.606  0.00  0.00    +0.000 A 
ATOM     17  F   UNL     1      -3.215  16.125  25.492  0.00  0.00    +0.000 F 
ATOM     18  C   UNL     1      -3.875  14.499  23.918  0.00  0.00    +0.000 A 
ATOM     19  C   UNL     1      -3.518  13.518  22.993  0.00  0.00    +0.000 A 
ATOM     20 CL   UNL     1      -4.783  12.691  22.151  0.00  0.00    +0.000 Cl
ENDBRANCH  10  13
BRANCH   1  21
ATOM     21  C   UNL     1      -0.516  11.942  18.815  0.00  0.00    +0.000 C 
ATOM     22  O   UNL     1       0.114  12.955  18.531  0.00  0.00    +0.000 OA
BRANCH  21  23
ATOM     23  O   UNL     1      -1.858  11.802  18.645  0.00  0.00    +0.000 OA
BRANCH  23  25
ATOM     24  C   UNL     1      -2.791   9.872  17.575  0.00  0.00    +0.000 C 
ATOM     25  C   UNL     1      -2.219  11.266  17.362  0.00  0.00    +0.000 C 
ENDBRANCH  23  25
ENDBRANCH  21  23
ENDBRANCH   1  21
TORSDOF 4
ENDMDL
MODEL 9
REMARK VINA RESULT:      -6.7      1.401      1.505
REMARK  Name = 
REMARK  6 active torsions:
REMARK  status: ('A' for Active; 'I' for Inactive)
REMARK    1  A    between atoms: C_1  and  C_2
REMARK    2  A    between atoms: C_2  and  O_3
REMARK    3  A    between atoms: O_3  and  C_4
REMARK    4  A    between atoms: C_4  and  C_6
REMARK    5  A    between atoms: C_7  and  C_8
REMARK    6  A    between atoms: N_15  and  C_16
REMARK                            x       y       z     vdW  Elec       q    Type
REMARK                         _______ _______ _______ _____ _____    ______ ____
ROOT
ATOM      1  C   UNL     1       4.583   5.666  18.041  0.00  0.00    +0.000 A 
ATOM      2  C   UNL     1       5.273   4.481  17.863  0.00  0.00    +0.000 A 
ATOM      3  C   UNL     1       6.377   4.029  16.993  0.00  0.00    +0.000 C 
ATOM      4  O   UNL     1       4.797   3.530  18.724  0.00  0.00    +0.000 OA
ATOM      5  C   UNL     1       3.775   4.087  19.431  0.00  0.00    +0.000 A 
ATOM      6  N   UNL     1       3.082   3.410  20.359  0.00  0.00    +0.000 NA
ATOM      7  C   UNL     1       2.111   4.164  20.879  0.00  0.00    +0.000 A 
ATOM      8  N   UNL     1       1.794   5.430  20.567  0.00  0.00    +0.000 NA
ATOM      9  C   UNL     1       2.519   6.090  19.629  0.00  0.00    +0.000 A 
ATOM     10  N   UNL     1       2.148   7.394  19.258  0.00  0.00    +0.000 N 
ATOM     11  C   UNL     1       3.582   5.398  19.031  0.00  0.00    +0.000 A 
ATOM     12  H   UNL     1       2.831   7.857  18.652  0.00  0.00    +0.000 HD
ENDROOT
BRANCH  10  13
ATOM     13  C   UNL     1       1.516   8.347  20.093  0.00  0.00    +0.000 A 
ATOM     14  C   UNL     1       1.579   8.213  21.489  0.00  0.00    +0.000 A 
ATOM     15  C   UNL     1       1.012   9.171  22.325  0.00  0.00    +0.000 A 
ATOM     16  C   UNL     1       0.387  10.278  21.767  0.00  0.00    +0.000 A 
ATOM     17  F   UNL     1      -0.158  11.197  22.574  0.00  0.00    +0.000 F 
ATOM     18  C   UNL     1       0.325  10.453  20.391  0.00  0.00    +0.000 A 
ATOM     19  C   UNL     1       0.900   9.494  19.555  0.00  0.00    +0.000 A 
ATOM     20 CL   UNL     1       0.809   9.743  17.845  0.00  0.00    +0.000 Cl
ENDBRANCH  10  13
BRANCH   1  21
ATOM     21  C   UNL     1       4.753   6.931  17.365  0.00  0.00    +0.000 C 
ATOM     22  O   UNL     1       3.817   7.706  17.203  0.00  0.00    +0.000 OA
BRANCH  21  23
ATOM     23  O   UNL     1       5.971   7.067  16.777  0.00  0.00    +0.000 OA
BRANCH  23  25
ATOM     24  C   UNL     1       7.910   7.171  18.181  0.00  0.00    +0.000 C 
ATOM     25  C   UNL     1       6.839   7.982  17.465  0.00  0.00    +0.000 C 
ENDBRANCH  23  25
ENDBRANCH  21  23
ENDBRANCH   1  21
TORSDOF 4
ENDMDL
