MODEL 1
REMARK VINA RESULT:      -8.1      0.000      0.000
REMARK  Name = 
REMARK  4 active torsions:
REMARK  status: ('A' for Active; 'I' for Inactive)
REMARK    1  A    between atoms: C_4  and  C_5
REMARK    2  A    between atoms: C_8  and  O_9
REMARK    3  A    between atoms: O_9  and  C_10
REMARK    4  A    between atoms: C_10  and  C_12
REMARK                            x       y       z     vdW  Elec       q    Type
REMARK                         _______ _______ _______ _____ _____    ______ ____
ROOT
ATOM      1  C   UNL     1       4.254   5.120  18.165  0.00  0.00    +0.000 A 
ATOM      2  C   UNL     1       3.874   4.164  17.213  0.00  0.00    +0.000 A 
ATOM      3  C   UNL     1       4.759   3.779  16.218  0.00  0.00    +0.000 A 
ATOM      4  C   UNL     1       6.033   4.351  16.168  0.00  0.00    +0.000 A 
ATOM      5  C   UNL     1       6.431   5.282  17.127  0.00  0.00    +0.000 A 
ATOM      6  C   UNL     1       5.530   5.690  18.114  0.00  0.00    +0.000 A 
ENDROOT
BRANCH   1  10
ATOM      7  N   UNL     1       3.013   7.896  17.136  0.00  0.00    +0.000 NA
ATOM      8  C   UNL     1       2.443   7.834  18.305  0.00  0.00    +0.000 C 
ATOM      9  C   UNL     1       2.545   6.656  19.255  0.00  0.00    +0.000 C 
ATOM     10  C   UNL     1       3.249   5.514  19.146  0.00  0.00    +0.000 C 
ATOM     11  C   UNL     1       1.744   6.750  20.543  0.00  0.00    +0.000 C 
ATOM     12  O   UNL     1       1.370   5.736  21.121  0.00  0.00    +0.000 OA
ATOM     13  N   UNL     1       1.435   8.010  21.008  0.00  0.00    +0.000 NA
ATOM     14  C   UNL     1       1.329   8.930  20.119  0.00  0.00    +0.000 C 
ATOM     15  S   UNL     1       0.600  10.469  20.490  0.00  0.00    +0.000 S 
ATOM     16  C   UNL     1       0.394  10.647  18.755  0.00  0.00    +0.000 C 
ATOM     17  N   UNL     1       1.028   9.815  17.989  0.00  0.00    +0.000 NA
ATOM     18  N   UNL     1       1.651   8.868  18.788  0.00  0.00    +0.000 N 
ATOM     19  H   UNL     1       3.580   7.077  16.927  0.00  0.00    +0.000 HD
ENDBRANCH   1  10
BRANCH   4  20
ATOM     20  O   UNL     1       6.870   3.888  15.137  0.00  0.00    +0.000 OA
BRANCH  20  21
ATOM     21  C   UNL     1       6.917   4.537  13.902  0.00  0.00    +0.000 C 
ATOM     22  O   UNL     1       7.492   5.596  13.670  0.00  0.00    +0.000 OA
BRANCH  21  23
ATOM     23  C   UNL     1       6.175   3.778  12.925  0.00  0.00    +0.000 A 
ATOM     24  C   UNL     1       4.863   3.899  12.506  0.00  0.00    +0.000 A 
ATOM     25  C   UNL     1       4.647   2.892  11.535  0.00  0.00    +0.000 A 
ATOM     26  C   UNL     1       5.836   2.213  11.420  0.00  0.00    +0.000 A 
ATOM     27  O   UNL     1       6.769   2.739  12.254  0.00  0.00    +0.000 OA
ENDBRANCH  21  23
ENDBRANCH  20  21
ENDBRANCH   4  20
TORSDOF 4
ENDMDL
MODEL 2
REMARK VINA RESULT:      -8.1      3.635      5.409
REMARK  Name = 
REMARK  4 active torsions:
REMARK  status: ('A' for Active; 'I' for Inactive)
REMARK    1  A    between atoms: C_4  and  C_5
REMARK    2  A    between atoms: C_8  and  O_9
REMARK    3  A    between atoms: O_9  and  C_10
REMARK    4  A    between atoms: C_10  and  C_12
REMARK                            x       y       z     vdW  Elec       q    Type
REMARK                         _______ _______ _______ _____ _____    ______ ____
ROOT
ATOM      1  C   UNL     1       2.742   6.698  17.989  0.00  0.00    +0.000 A 
ATOM      2  C   UNL     1       1.658   5.821  17.854  0.00  0.00    +0.000 A 
ATOM      3  C   UNL     1       1.875   4.462  17.686  0.00  0.00    +0.000 A 
ATOM      4  C   UNL     1       3.183   3.972  17.650  0.00  0.00    +0.000 A 
ATOM      5  C   UNL     1       4.268   4.831  17.812  0.00  0.00    +0.000 A 
ATOM      6  C   UNL     1       4.050   6.204  17.955  0.00  0.00    +0.000 A 
ENDROOT
BRANCH   1  10
ATOM      7  N   UNL     1       1.538   7.131  20.932  0.00  0.00    +0.000 NA
ATOM      8  C   UNL     1       1.322   8.317  20.443  0.00  0.00    +0.000 C 
ATOM      9  C   UNL     1       1.790   8.789  19.080  0.00  0.00    +0.000 C 
ATOM     10  C   UNL     1       2.435   8.119  18.107  0.00  0.00    +0.000 C 
ATOM     11  C   UNL     1       1.498  10.237  18.723  0.00  0.00    +0.000 C 
ATOM     12  O   UNL     1       2.206  10.839  17.924  0.00  0.00    +0.000 OA
ATOM     13  N   UNL     1       0.434  10.843  19.354  0.00  0.00    +0.000 NA
ATOM     14  C   UNL     1       0.143  10.400  20.523  0.00  0.00    +0.000 C 
ATOM     15  S   UNL     1      -0.920  11.281  21.588  0.00  0.00    +0.000 S 
ATOM     16  C   UNL     1      -0.211  10.324  22.879  0.00  0.00    +0.000 C 
ATOM     17  N   UNL     1       0.507   9.299  22.540  0.00  0.00    +0.000 NA
ATOM     18  N   UNL     1       0.635   9.291  21.159  0.00  0.00    +0.000 N 
ATOM     19  H   UNL     1       2.031   6.519  20.286  0.00  0.00    +0.000 HD
ENDBRANCH   1  10
BRANCH   4  20
ATOM     20  O   UNL     1       3.308   2.579  17.494  0.00  0.00    +0.000 OA
BRANCH  20  21
ATOM     21  C   UNL     1       3.508   1.747  18.596  0.00  0.00    +0.000 C 
ATOM     22  O   UNL     1       4.161   0.709  18.603  0.00  0.00    +0.000 OA
BRANCH  21  23
ATOM     23  C   UNL     1       2.820   2.288  19.743  0.00  0.00    +0.000 A 
ATOM     24  C   UNL     1       3.312   2.959  20.848  0.00  0.00    +0.000 A 
ATOM     25  C   UNL     1       2.203   3.256  21.676  0.00  0.00    +0.000 A 
ATOM     26  C   UNL     1       1.101   2.746  21.033  0.00  0.00    +0.000 A 
ATOM     27  O   UNL     1       1.460   2.160  19.863  0.00  0.00    +0.000 OA
ENDBRANCH  21  23
ENDBRANCH  20  21
ENDBRANCH   4  20
TORSDOF 4
ENDMDL
MODEL 3
REMARK VINA RESULT:      -8.0      3.543      5.018
REMARK  Name = 
REMARK  4 active torsions:
REMARK  status: ('A' for Active; 'I' for Inactive)
REMARK    1  A    between atoms: C_4  and  C_5
REMARK    2  A    between atoms: C_8  and  O_9
REMARK    3  A    between atoms: O_9  and  C_10
REMARK    4  A    between atoms: C_10  and  C_12
REMARK                            x       y       z     vdW  Elec       q    Type
REMARK                         _______ _______ _______ _____ _____    ______ ____
ROOT
ATOM      1  C   UNL     1       1.678   7.700  20.383  0.00  0.00    +0.000 A 
ATOM      2  C   UNL     1       1.730   6.310  20.556  0.00  0.00    +0.000 A 
ATOM      3  C   UNL     1       2.273   5.502  19.569  0.00  0.00    +0.000 A 
ATOM      4  C   UNL     1       2.767   6.082  18.398  0.00  0.00    +0.000 A 
ATOM      5  C   UNL     1       2.747   7.466  18.227  0.00  0.00    +0.000 A 
ATOM      6  C   UNL     1       2.176   8.277  19.211  0.00  0.00    +0.000 A 
ENDROOT
BRANCH   1  10
ATOM      7  N   UNL     1      -0.303   9.767  18.934  0.00  0.00    +0.000 NA
ATOM      8  C   UNL     1      -0.394  10.212  20.153  0.00  0.00    +0.000 C 
ATOM      9  C   UNL     1       0.242   9.555  21.363  0.00  0.00    +0.000 C 
ATOM     10  C   UNL     1       1.043   8.476  21.441  0.00  0.00    +0.000 C 
ATOM     11  C   UNL     1      -0.046  10.192  22.713  0.00  0.00    +0.000 C 
ATOM     12  O   UNL     1      -0.009   9.524  23.739  0.00  0.00    +0.000 OA
ATOM     13  N   UNL     1      -0.376  11.530  22.726  0.00  0.00    +0.000 NA
ATOM     14  C   UNL     1      -0.950  11.980  21.669  0.00  0.00    +0.000 C 
ATOM     15  S   UNL     1      -1.747  13.531  21.662  0.00  0.00    +0.000 S 
ATOM     16  C   UNL     1      -2.590  12.948  20.236  0.00  0.00    +0.000 C 
ATOM     17  N   UNL     1      -2.143  11.868  19.675  0.00  0.00    +0.000 NA
ATOM     18  N   UNL     1      -1.123  11.355  20.462  0.00  0.00    +0.000 N 
ATOM     19  H   UNL     1       0.282   8.938  18.856  0.00  0.00    +0.000 HD
ENDBRANCH   1  10
BRANCH   4  20
ATOM     20  O   UNL     1       3.316   5.189  17.459  0.00  0.00    +0.000 OA
BRANCH  20  21
ATOM     21  C   UNL     1       4.337   4.308  17.817  0.00  0.00    +0.000 C 
ATOM     22  O   UNL     1       4.230   3.091  17.929  0.00  0.00    +0.000 OA
BRANCH  21  23
ATOM     23  C   UNL     1       5.555   5.046  18.048  0.00  0.00    +0.000 A 
ATOM     24  C   UNL     1       6.215   5.959  17.245  0.00  0.00    +0.000 A 
ATOM     25  C   UNL     1       7.369   6.371  17.954  0.00  0.00    +0.000 A 
ATOM     26  C   UNL     1       7.350   5.685  19.144  0.00  0.00    +0.000 A 
ATOM     27  O   UNL     1       6.258   4.882  19.214  0.00  0.00    +0.000 OA
ENDBRANCH  21  23
ENDBRANCH  20  21
ENDBRANCH   4  20
TORSDOF 4
ENDMDL
MODEL 4
REMARK VINA RESULT:      -7.9      3.845      5.530
REMARK  Name = 
REMARK  4 active torsions:
REMARK  status: ('A' for Active; 'I' for Inactive)
REMARK    1  A    between atoms: C_4  and  C_5
REMARK    2  A    between atoms: C_8  and  O_9
REMARK    3  A    between atoms: O_9  and  C_10
REMARK    4  A    between atoms: C_10  and  C_12
REMARK                            x       y       z     vdW  Elec       q    Type
REMARK                         _______ _______ _______ _____ _____    ______ ____
ROOT
ATOM      1  C   UNL     1       3.038   6.844  18.103  0.00  0.00    +0.000 A 
ATOM      2  C   UNL     1       4.325   6.592  18.598  0.00  0.00    +0.000 A 
ATOM      3  C   UNL     1       4.771   5.289  18.752  0.00  0.00    +0.000 A 
ATOM      4  C   UNL     1       3.929   4.226  18.413  0.00  0.00    +0.000 A 
ATOM      5  C   UNL     1       2.658   4.466  17.892  0.00  0.00    +0.000 A 
ATOM      6  C   UNL     1       2.198   5.779  17.762  0.00  0.00    +0.000 A 
ENDROOT
BRANCH   1  10
ATOM      7  N   UNL     1       1.725   7.571  20.940  0.00  0.00    +0.000 NA
ATOM      8  C   UNL     1       1.432   8.660  20.290  0.00  0.00    +0.000 C 
ATOM      9  C   UNL     1       1.901   8.981  18.884  0.00  0.00    +0.000 C 
ATOM     10  C   UNL     1       2.620   8.239  18.022  0.00  0.00    +0.000 C 
ATOM     11  C   UNL     1       1.509  10.340  18.329  0.00  0.00    +0.000 C 
ATOM     12  O   UNL     1       2.190  10.884  17.468  0.00  0.00    +0.000 OA
ATOM     13  N   UNL     1       0.385  10.939  18.854  0.00  0.00    +0.000 NA
ATOM     14  C   UNL     1       0.097  10.635  20.068  0.00  0.00    +0.000 C 
ATOM     15  S   UNL     1      -1.058  11.564  20.986  0.00  0.00    +0.000 S 
ATOM     16  C   UNL     1      -0.314  10.847  22.406  0.00  0.00    +0.000 C 
ATOM     17  N   UNL     1       0.488   9.846  22.222  0.00  0.00    +0.000 NA
ATOM     18  N   UNL     1       0.655   9.663  20.857  0.00  0.00    +0.000 N 
ATOM     19  H   UNL     1       2.280   6.918  20.391  0.00  0.00    +0.000 HD
ENDBRANCH   1  10
BRANCH   4  20
ATOM     20  O   UNL     1       4.472   2.940  18.584  0.00  0.00    +0.000 OA
BRANCH  20  21
ATOM     21  C   UNL     1       4.363   2.271  19.804  0.00  0.00    +0.000 C 
ATOM     22  O   UNL     1       5.246   1.609  20.340  0.00  0.00    +0.000 OA
BRANCH  21  23
ATOM     23  C   UNL     1       3.042   2.465  20.349  0.00  0.00    +0.000 A 
ATOM     24  C   UNL     1       2.640   3.047  21.539  0.00  0.00    +0.000 A 
ATOM     25  C   UNL     1       1.228   2.966  21.579  0.00  0.00    +0.000 A 
ATOM     26  C   UNL     1       0.849   2.337  20.418  0.00  0.00    +0.000 A 
ATOM     27  O   UNL     1       1.936   2.031  19.665  0.00  0.00    +0.000 OA
ENDBRANCH  21  23
ENDBRANCH  20  21
ENDBRANCH   4  20
TORSDOF 4
ENDMDL
MODEL 5
REMARK VINA RESULT:      -7.8      3.609      5.425
REMARK  Name = 
REMARK  4 active torsions:
REMARK  status: ('A' for Active; 'I' for Inactive)
REMARK    1  A    between atoms: C_4  and  C_5
REMARK    2  A    between atoms: C_8  and  O_9
REMARK    3  A    between atoms: O_9  and  C_10
REMARK    4  A    between atoms: C_10  and  C_12
REMARK                            x       y       z     vdW  Elec       q    Type
REMARK                         _______ _______ _______ _____ _____    ______ ____
ROOT
ATOM      1  C   UNL     1       2.676   6.776  17.996  0.00  0.00    +0.000 A 
ATOM      2  C   UNL     1       4.021   6.419  18.165  0.00  0.00    +0.000 A 
ATOM      3  C   UNL     1       4.410   5.092  18.064  0.00  0.00    +0.000 A 
ATOM      4  C   UNL     1       3.452   4.111  17.795  0.00  0.00    +0.000 A 
ATOM      5  C   UNL     1       2.116   4.458  17.597  0.00  0.00    +0.000 A 
ATOM      6  C   UNL     1       1.720   5.792  17.725  0.00  0.00    +0.000 A 
ENDROOT
BRANCH   1  10
ATOM      7  N   UNL     1       1.551   7.077  20.987  0.00  0.00    +0.000 NA
ATOM      8  C   UNL     1       1.289   8.273  20.545  0.00  0.00    +0.000 C 
ATOM      9  C   UNL     1       1.705   8.803  19.186  0.00  0.00    +0.000 C 
ATOM     10  C   UNL     1       2.337   8.183  18.172  0.00  0.00    +0.000 C 
ATOM     11  C   UNL     1       1.366  10.254  18.888  0.00  0.00    +0.000 C 
ATOM     12  O   UNL     1       2.034  10.901  18.091  0.00  0.00    +0.000 OA
ATOM     13  N   UNL     1       0.306  10.810  19.571  0.00  0.00    +0.000 NA
ATOM     14  C   UNL     1       0.061  10.320  20.732  0.00  0.00    +0.000 C 
ATOM     15  S   UNL     1      -0.991  11.136  21.857  0.00  0.00    +0.000 S 
ATOM     16  C   UNL     1      -0.220  10.155  23.093  0.00  0.00    +0.000 C 
ATOM     17  N   UNL     1       0.513   9.161  22.698  0.00  0.00    +0.000 NA
ATOM     18  N   UNL     1       0.600   9.203  21.315  0.00  0.00    +0.000 N 
ATOM     19  H   UNL     1       2.039   6.500  20.305  0.00  0.00    +0.000 HD
ENDBRANCH   1  10
BRANCH   4  20
ATOM     20  O   UNL     1       3.939   2.795  17.693  0.00  0.00    +0.000 OA
BRANCH  20  21
ATOM     21  C   UNL     1       3.619   1.833  18.652  0.00  0.00    +0.000 C 
ATOM     22  O   UNL     1       3.982   0.661  18.642  0.00  0.00    +0.000 OA
BRANCH  21  23
ATOM     23  C   UNL     1       2.782   2.421  19.669  0.00  0.00    +0.000 A 
ATOM     24  C   UNL     1       1.407   2.401  19.818  0.00  0.00    +0.000 A 
ATOM     25  C   UNL     1       1.109   3.145  20.985  0.00  0.00    +0.000 A 
ATOM     26  C   UNL     1       2.316   3.580  21.477  0.00  0.00    +0.000 A 
ATOM     27  O   UNL     1       3.336   3.148  20.692  0.00  0.00    +0.000 OA
ENDBRANCH  21  23
ENDBRANCH  20  21
ENDBRANCH   4  20
TORSDOF 4
ENDMDL
MODEL 6
REMARK VINA RESULT:      -7.8      0.578      1.220
REMARK  Name = 
REMARK  4 active torsions:
REMARK  status: ('A' for Active; 'I' for Inactive)
REMARK    1  A    between atoms: C_4  and  C_5
REMARK    2  A    between atoms: C_8  and  O_9
REMARK    3  A    between atoms: O_9  and  C_10
REMARK    4  A    between atoms: C_10  and  C_12
REMARK                            x       y       z     vdW  Elec       q    Type
REMARK                         _______ _______ _______ _____ _____    ______ ____
ROOT
ATOM      1  C   UNL     1       3.995   5.148  18.075  0.00  0.00    +0.000 A 
ATOM      2  C   UNL     1       5.252   5.767  18.037  0.00  0.00    +0.000 A 
ATOM      3  C   UNL     1       6.210   5.348  17.127  0.00  0.00    +0.000 A 
ATOM      4  C   UNL     1       5.916   4.303  16.247  0.00  0.00    +0.000 A 
ATOM      5  C   UNL     1       4.658   3.700  16.256  0.00  0.00    +0.000 A 
ATOM      6  C   UNL     1       3.702   4.104  17.192  0.00  0.00    +0.000 A 
ENDROOT
BRANCH   1  10
ATOM      7  N   UNL     1       2.841   7.965  17.058  0.00  0.00    +0.000 NA
ATOM      8  C   UNL     1       2.328   7.950  18.254  0.00  0.00    +0.000 C 
ATOM      9  C   UNL     1       2.419   6.784  19.219  0.00  0.00    +0.000 C 
ATOM     10  C   UNL     1       3.061   5.607  19.096  0.00  0.00    +0.000 C 
ATOM     11  C   UNL     1       1.688   6.937  20.543  0.00  0.00    +0.000 C 
ATOM     12  O   UNL     1       1.294   5.953  21.156  0.00  0.00    +0.000 OA
ATOM     13  N   UNL     1       1.465   8.218  20.999  0.00  0.00    +0.000 NA
ATOM     14  C   UNL     1       1.360   9.128  20.100  0.00  0.00    +0.000 C 
ATOM     15  S   UNL     1       0.727  10.708  20.478  0.00  0.00    +0.000 S 
ATOM     16  C   UNL     1       0.444  10.868  18.752  0.00  0.00    +0.000 C 
ATOM     17  N   UNL     1       0.998   9.994  17.971  0.00  0.00    +0.000 NA
ATOM     18  N   UNL     1       1.612   9.030  18.756  0.00  0.00    +0.000 N 
ATOM     19  H   UNL     1       3.357   7.116  16.836  0.00  0.00    +0.000 HD
ENDBRANCH   1  10
BRANCH   4  20
ATOM     20  O   UNL     1       6.940   3.956  15.347  0.00  0.00    +0.000 OA
BRANCH  20  21
ATOM     21  C   UNL     1       7.050   4.587  14.107  0.00  0.00    +0.000 C 
ATOM     22  O   UNL     1       7.680   5.614  13.877  0.00  0.00    +0.000 OA
BRANCH  21  23
ATOM     23  C   UNL     1       6.298   3.851  13.120  0.00  0.00    +0.000 A 
ATOM     24  C   UNL     1       6.715   2.910  12.195  0.00  0.00    +0.000 A 
ATOM     25  C   UNL     1       5.569   2.514  11.466  0.00  0.00    +0.000 A 
ATOM     26  C   UNL     1       4.521   3.237  11.982  0.00  0.00    +0.000 A 
ATOM     27  O   UNL     1       4.948   4.047  12.984  0.00  0.00    +0.000 OA
ENDBRANCH  21  23
ENDBRANCH  20  21
ENDBRANCH   4  20
TORSDOF 4
ENDMDL
MODEL 7
REMARK VINA RESULT:      -7.8      3.008      4.489
REMARK  Name = 
REMARK  4 active torsions:
REMARK  status: ('A' for Active; 'I' for Inactive)
REMARK    1  A    between atoms: C_4  and  C_5
REMARK    2  A    between atoms: C_8  and  O_9
REMARK    3  A    between atoms: O_9  and  C_10
REMARK    4  A    between atoms: C_10  and  C_12
REMARK                            x       y       z     vdW  Elec       q    Type
REMARK                         _______ _______ _______ _____ _____    ______ ____
ROOT
ATOM      1  C   UNL     1       1.849   7.426  20.082  0.00  0.00    +0.000 A 
ATOM      2  C   UNL     1       1.593   6.108  20.484  0.00  0.00    +0.000 A 
ATOM      3  C   UNL     1       1.998   5.045  19.693  0.00  0.00    +0.000 A 
ATOM      4  C   UNL     1       2.664   5.294  18.490  0.00  0.00    +0.000 A 
ATOM      5  C   UNL     1       2.950   6.600  18.094  0.00  0.00    +0.000 A 
ATOM      6  C   UNL     1       2.517   7.673  18.878  0.00  0.00    +0.000 A 
ENDROOT
BRANCH   1  10
ATOM      7  N   UNL     1       0.660   9.681  18.132  0.00  0.00    +0.000 NA
ATOM      8  C   UNL     1       0.567  10.316  19.264  0.00  0.00    +0.000 C 
ATOM      9  C   UNL     1       0.875   9.712  20.621  0.00  0.00    +0.000 C 
ATOM     10  C   UNL     1       1.342   8.491  20.940  0.00  0.00    +0.000 C 
ATOM     11  C   UNL     1       0.633  10.600  21.832  0.00  0.00    +0.000 C 
ATOM     12  O   UNL     1       0.383  10.110  22.926  0.00  0.00    +0.000 OA
ATOM     13  N   UNL     1       0.678  11.963  21.637  0.00  0.00    +0.000 NA
ATOM     14  C   UNL     1       0.358  12.377  20.464  0.00  0.00    +0.000 C 
ATOM     15  S   UNL     1       0.016  14.059  20.159  0.00  0.00    +0.000 S 
ATOM     16  C   UNL     1      -0.804  13.497  18.710  0.00  0.00    +0.000 C 
ATOM     17  N   UNL     1      -0.610  12.267  18.351  0.00  0.00    +0.000 NA
ATOM     18  N   UNL     1       0.147  11.639  19.329  0.00  0.00    +0.000 N 
ATOM     19  H   UNL     1       1.003   8.728  18.238  0.00  0.00    +0.000 HD
ENDBRANCH   1  10
BRANCH   4  20
ATOM     20  O   UNL     1       3.055   4.156  17.761  0.00  0.00    +0.000 OA
BRANCH  20  21
ATOM     21  C   UNL     1       4.130   3.370  18.177  0.00  0.00    +0.000 C 
ATOM     22  O   UNL     1       4.058   2.372  18.886  0.00  0.00    +0.000 OA
BRANCH  21  23
ATOM     23  C   UNL     1       5.360   3.913  17.652  0.00  0.00    +0.000 A 
ATOM     24  C   UNL     1       5.744   4.159  16.346  0.00  0.00    +0.000 A 
ATOM     25  C   UNL     1       7.057   4.687  16.397  0.00  0.00    +0.000 A 
ATOM     26  C   UNL     1       7.399   4.728  17.727  0.00  0.00    +0.000 A 
ATOM     27  O   UNL     1       6.382   4.265  18.496  0.00  0.00    +0.000 OA
ENDBRANCH  21  23
ENDBRANCH  20  21
ENDBRANCH   4  20
TORSDOF 4
ENDMDL
MODEL 8
REMARK VINA RESULT:      -7.7      4.570      6.815
REMARK  Name = 
REMARK  4 active torsions:
REMARK  status: ('A' for Active; 'I' for Inactive)
REMARK    1  A    between atoms: C_4  and  C_5
REMARK    2  A    between atoms: C_8  and  O_9
REMARK    3  A    between atoms: O_9  and  C_10
REMARK    4  A    between atoms: C_10  and  C_12
REMARK                            x       y       z     vdW  Elec       q    Type
REMARK                         _______ _______ _______ _____ _____    ______ ____
ROOT
ATOM      1  C   UNL     1       0.642   9.701  19.166  0.00  0.00    +0.000 A 
ATOM      2  C   UNL     1       0.942   9.011  20.348  0.00  0.00    +0.000 A 
ATOM      3  C   UNL     1       1.787   7.913  20.322  0.00  0.00    +0.000 A 
ATOM      4  C   UNL     1       2.339   7.496  19.108  0.00  0.00    +0.000 A 
ATOM      5  C   UNL     1       2.071   8.193  17.930  0.00  0.00    +0.000 A 
ATOM      6  C   UNL     1       1.198   9.283  17.952  0.00  0.00    +0.000 A 
ENDROOT
BRANCH   1  10
ATOM      7  N   UNL     1       2.337  12.381  18.673  0.00  0.00    +0.000 NA
ATOM      8  C   UNL     1       1.202  12.915  19.021  0.00  0.00    +0.000 C 
ATOM      9  C   UNL     1      -0.075  12.138  19.276  0.00  0.00    +0.000 C 
ATOM     10  C   UNL     1      -0.298  10.811  19.266  0.00  0.00    +0.000 C 
ATOM     11  C   UNL     1      -1.315  12.956  19.602  0.00  0.00    +0.000 C 
ATOM     12  O   UNL     1      -2.433  12.520  19.356  0.00  0.00    +0.000 OA
ATOM     13  N   UNL     1      -1.124  14.205  20.151  0.00  0.00    +0.000 NA
ATOM     14  C   UNL     1      -0.029  14.798  19.839  0.00  0.00    +0.000 C 
ATOM     15  S   UNL     1       0.200  16.499  20.146  0.00  0.00    +0.000 S 
ATOM     16  C   UNL     1       1.485  16.411  18.952  0.00  0.00    +0.000 C 
ATOM     17  N   UNL     1       1.881  15.233  18.583  0.00  0.00    +0.000 NA
ATOM     18  N   UNL     1       1.056  14.288  19.174  0.00  0.00    +0.000 N 
ATOM     19  H   UNL     1       2.300  11.365  18.623  0.00  0.00    +0.000 HD
ENDBRANCH   1  10
BRANCH   4  20
ATOM     20  O   UNL     1       3.200   6.385  19.178  0.00  0.00    +0.000 OA
BRANCH  20  21
ATOM     21  C   UNL     1       2.817   5.146  18.663  0.00  0.00    +0.000 C 
ATOM     22  O   UNL     1       2.813   4.832  17.477  0.00  0.00    +0.000 OA
BRANCH  21  23
ATOM     23  C   UNL     1       2.413   4.276  19.740  0.00  0.00    +0.000 A 
ATOM     24  C   UNL     1       1.199   4.167  20.396  0.00  0.00    +0.000 A 
ATOM     25  C   UNL     1       1.353   3.162  21.380  0.00  0.00    +0.000 A 
ATOM     26  C   UNL     1       2.649   2.720  21.274  0.00  0.00    +0.000 A 
ATOM     27  O   UNL     1       3.300   3.384  20.285  0.00  0.00    +0.000 OA
ENDBRANCH  21  23
ENDBRANCH  20  21
ENDBRANCH   4  20
TORSDOF 4
ENDMDL
MODEL 9
REMARK VINA RESULT:      -7.7      1.609      2.184
REMARK  Name = 
REMARK  4 active torsions:
REMARK  status: ('A' for Active; 'I' for Inactive)
REMARK    1  A    between atoms: C_4  and  C_5
REMARK    2  A    between atoms: C_8  and  O_9
REMARK    3  A    between atoms: O_9  and  C_10
REMARK    4  A    between atoms: C_10  and  C_12
REMARK                            x       y       z     vdW  Elec       q    Type
REMARK                         _______ _______ _______ _____ _____    ______ ____
ROOT
ATOM      1  C   UNL     1       3.056   6.412  18.795  0.00  0.00    +0.000 A 
ATOM      2  C   UNL     1       2.802   5.057  18.542  0.00  0.00    +0.000 A 
ATOM      3  C   UNL     1       3.514   4.382  17.564  0.00  0.00    +0.000 A 
ATOM      4  C   UNL     1       4.489   5.062  16.828  0.00  0.00    +0.000 A 
ATOM      5  C   UNL     1       4.771   6.402  17.090  0.00  0.00    +0.000 A 
ATOM      6  C   UNL     1       4.034   7.089  18.058  0.00  0.00    +0.000 A 
ENDROOT
BRANCH   1  10
ATOM      7  N   UNL     1       1.970   9.121  17.461  0.00  0.00    +0.000 NA
ATOM      8  C   UNL     1       1.549   9.306  18.678  0.00  0.00    +0.000 C 
ATOM      9  C   UNL     1       1.657   8.285  19.795  0.00  0.00    +0.000 C 
ATOM     10  C   UNL     1       2.228   7.066  19.801  0.00  0.00    +0.000 C 
ATOM     11  C   UNL     1       1.038   8.668  21.129  0.00  0.00    +0.000 C 
ATOM     12  O   UNL     1       0.644   7.806  21.905  0.00  0.00    +0.000 OA
ATOM     13  N   UNL     1       0.915  10.011  21.409  0.00  0.00    +0.000 NA
ATOM     14  C   UNL     1       0.787  10.790  20.396  0.00  0.00    +0.000 C 
ATOM     15  S   UNL     1       0.264  12.442  20.583  0.00  0.00    +0.000 S 
ATOM     16  C   UNL     1      -0.143  12.373  18.876  0.00  0.00    +0.000 C 
ATOM     17  N   UNL     1       0.305  11.366  18.194  0.00  0.00    +0.000 NA
ATOM     18  N   UNL     1       0.929  10.488  19.067  0.00  0.00    +0.000 N 
ATOM     19  H   UNL     1       2.424   8.219  17.330  0.00  0.00    +0.000 HD
ENDBRANCH   1  10
BRANCH   4  20
ATOM     20  O   UNL     1       5.175   4.294  15.869  0.00  0.00    +0.000 OA
BRANCH  20  21
ATOM     21  C   UNL     1       6.554   4.420  15.700  0.00  0.00    +0.000 C 
ATOM     22  O   UNL     1       7.388   4.441  16.599  0.00  0.00    +0.000 OA
BRANCH  21  23
ATOM     23  C   UNL     1       6.863   4.532  14.295  0.00  0.00    +0.000 A 
ATOM     24  C   UNL     1       6.376   3.823  13.212  0.00  0.00    +0.000 A 
ATOM     25  C   UNL     1       7.024   4.332  12.062  0.00  0.00    +0.000 A 
ATOM     26  C   UNL     1       7.872   5.317  12.507  0.00  0.00    +0.000 A 
ATOM     27  O   UNL     1       7.783   5.449  13.855  0.00  0.00    +0.000 OA
ENDBRANCH  21  23
ENDBRANCH  20  21
ENDBRANCH   4  20
TORSDOF 4
ENDMDL
