MODEL 1
REMARK VINA RESULT:      -8.8      0.000      0.000
REMARK  Name = 
REMARK  5 active torsions:
REMARK  status: ('A' for Active; 'I' for Inactive)
REMARK    1  A    between atoms: N_5  and  C_6
REMARK    2  A    between atoms: C_6  and  C_7
REMARK    3  A    between atoms: C_17  and  O_18
REMARK    4  A    between atoms: O_18  and  C_19
REMARK    5  A    between atoms: C_24  and  C_25
REMARK                            x       y       z     vdW  Elec       q    Type
REMARK                         _______ _______ _______ _____ _____    ______ ____
ROOT
ATOM      1  O   UNL     1       1.070   9.288  23.246  0.00  0.00    +0.000 OA
ATOM      2  C   UNL     1       0.625   9.800  22.218  0.00  0.00    +0.000 A 
ATOM      3  N   UNL     1      -0.231  10.868  22.236  0.00  0.00    +0.000 NA
ATOM      4  C   UNL     1      -0.587  11.377  21.108  0.00  0.00    +0.000 A 
ATOM      5  N   UNL     1      -0.225  10.991  19.840  0.00  0.00    +0.000 N 
ATOM      6  C   UNL     1       0.593   9.857  19.729  0.00  0.00    +0.000 A 
ATOM      7  C   UNL     1       1.004   9.308  18.512  0.00  0.00    +0.000 A 
ATOM      8  C   UNL     1       1.829   8.185  18.465  0.00  0.00    +0.000 A 
ATOM      9  C   UNL     1       2.223   7.546  19.641  0.00  0.00    +0.000 A 
ATOM     10  C   UNL     1       1.858   8.087  20.868  0.00  0.00    +0.000 A 
ATOM     11  C   UNL     1       1.042   9.228  20.905  0.00  0.00    +0.000 A 
ENDROOT
BRANCH   5  12
ATOM     12  C   UNL     1      -0.693  11.711  18.648  0.00  0.00    +0.000 C 
BRANCH  12  13
ATOM     13  C   UNL     1      -2.191  11.565  18.460  0.00  0.00    +0.000 A 
ATOM     14  C   UNL     1      -3.078  12.314  19.248  0.00  0.00    +0.000 A 
ATOM     15  C   UNL     1      -4.454  12.089  19.181  0.00  0.00    +0.000 A 
ATOM     16  C   UNL     1      -4.957  11.129  18.308  0.00  0.00    +0.000 A 
ATOM     17 CL   UNL     1      -6.643  10.793  18.287  0.00  0.00    +0.000 Cl
ATOM     18  C   UNL     1      -4.099  10.427  17.465  0.00  0.00    +0.000 A 
ATOM     19  C   UNL     1      -2.721  10.650  17.535  0.00  0.00    +0.000 A 
ENDBRANCH  12  13
ENDBRANCH   5  12
BRANCH   9  20
ATOM     20  O   UNL     1       3.005   6.415  19.679  0.00  0.00    +0.000 OA
BRANCH  20  21
ATOM     21  C   UNL     1       2.396   5.196  19.434  0.00  0.00    +0.000 A 
ATOM     22  N   UNL     1       1.454   4.768  20.316  0.00  0.00    +0.000 NA
ATOM     23  C   UNL     1       0.780   3.643  20.019  0.00  0.00    +0.000 A 
ATOM     24  C   UNL     1       0.999   2.914  18.869  0.00  0.00    +0.000 A 
ATOM     25  C   UNL     1       2.010   3.335  18.008  0.00  0.00    +0.000 A 
ATOM     26  C   UNL     1       2.760   4.485  18.304  0.00  0.00    +0.000 A 
BRANCH  26  27
ATOM     27  C   UNL     1       3.910   4.887  17.434  0.00  0.00    +0.000 C 
ATOM     28  F   UNL     1       3.852   6.140  16.908  0.00  0.00    +0.000 F 
ATOM     29  F   UNL     1       5.092   4.838  18.115  0.00  0.00    +0.000 F 
ATOM     30  F   UNL     1       4.071   4.049  16.371  0.00  0.00    +0.000 F 
ENDBRANCH  26  27
ENDBRANCH  20  21
ENDBRANCH   9  20
TORSDOF 5
ENDMDL
MODEL 2
REMARK VINA RESULT:      -8.6      2.575      3.401
REMARK  Name = 
REMARK  5 active torsions:
REMARK  status: ('A' for Active; 'I' for Inactive)
REMARK    1  A    between atoms: N_5  and  C_6
REMARK    2  A    between atoms: C_6  and  C_7
REMARK    3  A    between atoms: C_17  and  O_18
REMARK    4  A    between atoms: O_18  and  C_19
REMARK    5  A    between atoms: C_24  and  C_25
REMARK                            x       y       z     vdW  Elec       q    Type
REMARK                         _______ _______ _______ _____ _____    ______ ____
ROOT
ATOM      1  O   UNL     1       0.789   9.224  23.211  0.00  0.00    +0.000 OA
ATOM      2  C   UNL     1       0.464   9.781  22.162  0.00  0.00    +0.000 A 
ATOM      3  N   UNL     1      -0.361  10.874  22.132  0.00  0.00    +0.000 NA
ATOM      4  C   UNL     1      -0.588  11.429  20.992  0.00  0.00    +0.000 A 
ATOM      5  N   UNL     1      -0.110  11.073  19.754  0.00  0.00    +0.000 N 
ATOM      6  C   UNL     1       0.684   9.919  19.686  0.00  0.00    +0.000 A 
ATOM      7  C   UNL     1       1.201   9.397  18.497  0.00  0.00    +0.000 A 
ATOM      8  C   UNL     1       1.995   8.251  18.494  0.00  0.00    +0.000 A 
ATOM      9  C   UNL     1       2.252   7.564  19.681  0.00  0.00    +0.000 A 
ATOM     10  C   UNL     1       1.780   8.076  20.883  0.00  0.00    +0.000 A 
ATOM     11  C   UNL     1       0.996   9.239  20.878  0.00  0.00    +0.000 A 
ENDROOT
BRANCH   5  12
ATOM     12  C   UNL     1      -0.437  11.844  18.547  0.00  0.00    +0.000 C 
BRANCH  12  13
ATOM     13  C   UNL     1       0.318  13.158  18.502  0.00  0.00    +0.000 A 
ATOM     14  C   UNL     1       1.704  13.169  18.287  0.00  0.00    +0.000 A 
ATOM     15  C   UNL     1       2.430  14.358  18.381  0.00  0.00    +0.000 A 
ATOM     16  C   UNL     1       1.771  15.551  18.665  0.00  0.00    +0.000 A 
ATOM     17 CL   UNL     1       2.676  17.000  18.864  0.00  0.00    +0.000 Cl
ATOM     18  C   UNL     1       0.386  15.572  18.809  0.00  0.00    +0.000 A 
ATOM     19  C   UNL     1      -0.339  14.381  18.719  0.00  0.00    +0.000 A 
ENDBRANCH  12  13
ENDBRANCH   5  12
BRANCH   9  20
ATOM     20  O   UNL     1       2.995   6.409  19.757  0.00  0.00    +0.000 OA
BRANCH  20  21
ATOM     21  C   UNL     1       2.367   5.211  19.465  0.00  0.00    +0.000 A 
ATOM     22  N   UNL     1       1.410   4.769  20.323  0.00  0.00    +0.000 NA
ATOM     23  C   UNL     1       0.718   3.668  19.981  0.00  0.00    +0.000 A 
ATOM     24  C   UNL     1       0.933   2.977  18.808  0.00  0.00    +0.000 A 
ATOM     25  C   UNL     1       1.959   3.409  17.971  0.00  0.00    +0.000 A 
ATOM     26  C   UNL     1       2.728   4.534  18.313  0.00  0.00    +0.000 A 
BRANCH  26  27
ATOM     27  C   UNL     1       3.891   4.945  17.466  0.00  0.00    +0.000 C 
ATOM     28  F   UNL     1       3.832   6.196  16.936  0.00  0.00    +0.000 F 
ATOM     29  F   UNL     1       5.059   4.910  18.172  0.00  0.00    +0.000 F 
ATOM     30  F   UNL     1       4.083   4.106  16.410  0.00  0.00    +0.000 F 
ENDBRANCH  26  27
ENDBRANCH  20  21
ENDBRANCH   9  20
TORSDOF 5
ENDMDL
MODEL 3
REMARK VINA RESULT:      -8.6      2.595      3.428
REMARK  Name = 
REMARK  5 active torsions:
REMARK  status: ('A' for Active; 'I' for Inactive)
REMARK    1  A    between atoms: N_5  and  C_6
REMARK    2  A    between atoms: C_6  and  C_7
REMARK    3  A    between atoms: C_17  and  O_18
REMARK    4  A    between atoms: O_18  and  C_19
REMARK    5  A    between atoms: C_24  and  C_25
REMARK                            x       y       z     vdW  Elec       q    Type
REMARK                         _______ _______ _______ _____ _____    ______ ____
ROOT
ATOM      1  O   UNL     1       0.342   8.940  23.097  0.00  0.00    +0.000 OA
ATOM      2  C   UNL     1       0.128   9.560  22.055  0.00  0.00    +0.000 A 
ATOM      3  N   UNL     1      -0.708  10.644  21.999  0.00  0.00    +0.000 NA
ATOM      4  C   UNL     1      -0.813  11.269  20.878  0.00  0.00    +0.000 A 
ATOM      5  N   UNL     1      -0.189  10.999  19.684  0.00  0.00    +0.000 N 
ATOM      6  C   UNL     1       0.629   9.861  19.635  0.00  0.00    +0.000 A 
ATOM      7  C   UNL     1       1.288   9.423  18.483  0.00  0.00    +0.000 A 
ATOM      8  C   UNL     1       2.099   8.289  18.499  0.00  0.00    +0.000 A 
ATOM      9  C   UNL     1       2.230   7.529  19.662  0.00  0.00    +0.000 A 
ATOM     10  C   UNL     1       1.614   7.957  20.832  0.00  0.00    +0.000 A 
ATOM     11  C   UNL     1       0.814   9.109  20.809  0.00  0.00    +0.000 A 
ENDROOT
BRANCH   5  12
ATOM     12  C   UNL     1      -0.390  11.843  18.498  0.00  0.00    +0.000 C 
BRANCH  12  13
ATOM     13  C   UNL     1       0.410  13.129  18.585  0.00  0.00    +0.000 A 
ATOM     14  C   UNL     1      -0.236  14.345  18.854  0.00  0.00    +0.000 A 
ATOM     15  C   UNL     1       0.466  15.551  18.800  0.00  0.00    +0.000 A 
ATOM     16  C   UNL     1       1.826  15.548  18.502  0.00  0.00    +0.000 A 
ATOM     17 CL   UNL     1       2.670  17.039  18.352  0.00  0.00    +0.000 Cl
ATOM     18  C   UNL     1       2.499  14.345  18.304  0.00  0.00    +0.000 A 
ATOM     19  C   UNL     1       1.796  13.139  18.354  0.00  0.00    +0.000 A 
ENDBRANCH  12  13
ENDBRANCH   5  12
BRANCH   9  20
ATOM     20  O   UNL     1       2.981   6.380  19.750  0.00  0.00    +0.000 OA
BRANCH  20  21
ATOM     21  C   UNL     1       2.369   5.178  19.440  0.00  0.00    +0.000 A 
ATOM     22  N   UNL     1       1.400   4.724  20.278  0.00  0.00    +0.000 NA
ATOM     23  C   UNL     1       0.724   3.618  19.918  0.00  0.00    +0.000 A 
ATOM     24  C   UNL     1       0.968   2.934  18.746  0.00  0.00    +0.000 A 
ATOM     25  C   UNL     1       2.006   3.380  17.930  0.00  0.00    +0.000 A 
ATOM     26  C   UNL     1       2.757   4.510  18.292  0.00  0.00    +0.000 A 
BRANCH  26  27
ATOM     27  C   UNL     1       3.933   4.935  17.470  0.00  0.00    +0.000 C 
ATOM     28  F   UNL     1       4.212   4.166  16.384  0.00  0.00    +0.000 F 
ATOM     29  F   UNL     1       3.770   6.199  16.981  0.00  0.00    +0.000 F 
ATOM     30  F   UNL     1       5.085   4.976  18.198  0.00  0.00    +0.000 F 
ENDBRANCH  26  27
ENDBRANCH  20  21
ENDBRANCH   9  20
TORSDOF 5
ENDMDL
MODEL 4
REMARK VINA RESULT:      -8.5      1.488      2.254
REMARK  Name = 
REMARK  5 active torsions:
REMARK  status: ('A' for Active; 'I' for Inactive)
REMARK    1  A    between atoms: N_5  and  C_6
REMARK    2  A    between atoms: C_6  and  C_7
REMARK    3  A    between atoms: C_17  and  O_18
REMARK    4  A    between atoms: O_18  and  C_19
REMARK    5  A    between atoms: C_24  and  C_25
REMARK                            x       y       z     vdW  Elec       q    Type
REMARK                         _______ _______ _______ _____ _____    ______ ____
ROOT
ATOM      1  O   UNL     1       1.362   9.179  22.948  0.00  0.00    +0.000 OA
ATOM      2  C   UNL     1       0.880   9.735  21.961  0.00  0.00    +0.000 A 
ATOM      3  N   UNL     1       0.080  10.843  22.055  0.00  0.00    +0.000 NA
ATOM      4  C   UNL     1      -0.319  11.395  20.963  0.00  0.00    +0.000 A 
ATOM      5  N   UNL     1      -0.055  11.022  19.667  0.00  0.00    +0.000 N 
ATOM      6  C   UNL     1       0.697   9.852  19.481  0.00  0.00    +0.000 A 
ATOM      7  C   UNL     1       1.005   9.314  18.229  0.00  0.00    +0.000 A 
ATOM      8  C   UNL     1       1.768   8.153  18.108  0.00  0.00    +0.000 A 
ATOM      9  C   UNL     1       2.203   7.469  19.244  0.00  0.00    +0.000 A 
ATOM     10  C   UNL     1       1.941   7.998  20.502  0.00  0.00    +0.000 A 
ATOM     11  C   UNL     1       1.187   9.175  20.613  0.00  0.00    +0.000 A 
ENDROOT
BRANCH   5  12
ATOM     12  C   UNL     1      -0.560  11.791  18.522  0.00  0.00    +0.000 C 
BRANCH  12  13
ATOM     13  C   UNL     1      -2.059  11.629  18.357  0.00  0.00    +0.000 A 
ATOM     14  C   UNL     1      -2.942  12.338  19.186  0.00  0.00    +0.000 A 
ATOM     15  C   UNL     1      -4.315  12.094  19.137  0.00  0.00    +0.000 A 
ATOM     16  C   UNL     1      -4.821  11.156  18.242  0.00  0.00    +0.000 A 
ATOM     17 CL   UNL     1      -6.503  10.795  18.242  0.00  0.00    +0.000 Cl
ATOM     18  C   UNL     1      -3.969  10.496  17.360  0.00  0.00    +0.000 A 
ATOM     19  C   UNL     1      -2.594  10.737  17.411  0.00  0.00    +0.000 A 
ENDBRANCH  12  13
ENDBRANCH   5  12
BRANCH   9  20
ATOM     20  O   UNL     1       2.928   6.301  19.209  0.00  0.00    +0.000 OA
BRANCH  20  21
ATOM     21  C   UNL     1       3.728   6.065  18.104  0.00  0.00    +0.000 A 
ATOM     22  N   UNL     1       4.665   6.997  17.787  0.00  0.00    +0.000 NA
ATOM     23  C   UNL     1       5.518   6.716  16.786  0.00  0.00    +0.000 A 
ATOM     24  C   UNL     1       5.485   5.534  16.077  0.00  0.00    +0.000 A 
ATOM     25  C   UNL     1       4.478   4.618  16.375  0.00  0.00    +0.000 A 
ATOM     26  C   UNL     1       3.547   4.893  17.390  0.00  0.00    +0.000 A 
BRANCH  26  27
ATOM     27  C   UNL     1       2.408   3.958  17.649  0.00  0.00    +0.000 C 
ATOM     28  F   UNL     1       1.161   4.489  17.535  0.00  0.00    +0.000 F 
ATOM     29  F   UNL     1       2.427   2.898  16.789  0.00  0.00    +0.000 F 
ATOM     30  F   UNL     1       2.462   3.411  18.897  0.00  0.00    +0.000 F 
ENDBRANCH  26  27
ENDBRANCH  20  21
ENDBRANCH   9  20
TORSDOF 5
ENDMDL
MODEL 5
REMARK VINA RESULT:      -8.5      0.435      1.202
REMARK  Name = 
REMARK  5 active torsions:
REMARK  status: ('A' for Active; 'I' for Inactive)
REMARK    1  A    between atoms: N_5  and  C_6
REMARK    2  A    between atoms: C_6  and  C_7
REMARK    3  A    between atoms: C_17  and  O_18
REMARK    4  A    between atoms: O_18  and  C_19
REMARK    5  A    between atoms: C_24  and  C_25
REMARK                            x       y       z     vdW  Elec       q    Type
REMARK                         _______ _______ _______ _____ _____    ______ ____
ROOT
ATOM      1  O   UNL     1       1.181   9.267  23.027  0.00  0.00    +0.000 OA
ATOM      2  C   UNL     1       0.661   9.755  22.023  0.00  0.00    +0.000 A 
ATOM      3  N   UNL     1      -0.260  10.767  22.086  0.00  0.00    +0.000 NA
ATOM      4  C   UNL     1      -0.696  11.257  20.978  0.00  0.00    +0.000 A 
ATOM      5  N   UNL     1      -0.365  10.901  19.693  0.00  0.00    +0.000 N 
ATOM      6  C   UNL     1       0.517   9.822  19.538  0.00  0.00    +0.000 A 
ATOM      7  C   UNL     1       0.909   9.306  18.300  0.00  0.00    +0.000 A 
ATOM      8  C   UNL     1       1.800   8.237  18.209  0.00  0.00    +0.000 A 
ATOM      9  C   UNL     1       2.284   7.619  19.363  0.00  0.00    +0.000 A 
ATOM     10  C   UNL     1       1.940   8.130  20.608  0.00  0.00    +0.000 A 
ATOM     11  C   UNL     1       1.056   9.216  20.689  0.00  0.00    +0.000 A 
ENDROOT
BRANCH   5  12
ATOM     12  C   UNL     1      -0.929  11.595  18.528  0.00  0.00    +0.000 C 
BRANCH  12  13
ATOM     13  C   UNL     1      -2.440  11.476  18.484  0.00  0.00    +0.000 A 
ATOM     14  C   UNL     1      -3.055  10.621  17.557  0.00  0.00    +0.000 A 
ATOM     15  C   UNL     1      -4.444  10.607  17.413  0.00  0.00    +0.000 A 
ATOM     16  C   UNL     1      -5.232  11.429  18.214  0.00  0.00    +0.000 A 
ATOM     17 CL   UNL     1      -6.934  11.473  17.978  0.00  0.00    +0.000 Cl
ATOM     18  C   UNL     1      -4.645  12.230  19.190  0.00  0.00    +0.000 A 
ATOM     19  C   UNL     1      -3.255  12.248  19.331  0.00  0.00    +0.000 A 
ENDBRANCH  12  13
ENDBRANCH   5  12
BRANCH   9  20
ATOM     20  O   UNL     1       3.137   6.539  19.358  0.00  0.00    +0.000 OA
BRANCH  20  21
ATOM     21  C   UNL     1       2.616   5.302  19.024  0.00  0.00    +0.000 A 
ATOM     22  N   UNL     1       1.644   4.784  19.822  0.00  0.00    +0.000 NA
ATOM     23  C   UNL     1       1.056   3.638  19.435  0.00  0.00    +0.000 A 
ATOM     24  C   UNL     1       1.391   2.975  18.274  0.00  0.00    +0.000 A 
ATOM     25  C   UNL     1       2.431   3.487  17.501  0.00  0.00    +0.000 A 
ATOM     26  C   UNL     1       3.093   4.663  17.893  0.00  0.00    +0.000 A 
BRANCH  26  27
ATOM     27  C   UNL     1       4.271   5.164  17.120  0.00  0.00    +0.000 C 
ATOM     28  F   UNL     1       4.621   4.436  16.025  0.00  0.00    +0.000 F 
ATOM     29  F   UNL     1       4.062   6.431  16.656  0.00  0.00    +0.000 F 
ATOM     30  F   UNL     1       5.397   5.242  17.885  0.00  0.00    +0.000 F 
ENDBRANCH  26  27
ENDBRANCH  20  21
ENDBRANCH   9  20
TORSDOF 5
ENDMDL
MODEL 6
REMARK VINA RESULT:      -8.4      3.244      4.152
REMARK  Name = 
REMARK  5 active torsions:
REMARK  status: ('A' for Active; 'I' for Inactive)
REMARK    1  A    between atoms: N_5  and  C_6
REMARK    2  A    between atoms: C_6  and  C_7
REMARK    3  A    between atoms: C_17  and  O_18
REMARK    4  A    between atoms: O_18  and  C_19
REMARK    5  A    between atoms: C_24  and  C_25
REMARK                            x       y       z     vdW  Elec       q    Type
REMARK                         _______ _______ _______ _____ _____    ______ ____
ROOT
ATOM      1  O   UNL     1       0.058   9.007  23.146  0.00  0.00    +0.000 OA
ATOM      2  C   UNL     1      -0.035   9.605  22.074  0.00  0.00    +0.000 A 
ATOM      3  N   UNL     1      -0.814  10.720  21.915  0.00  0.00    +0.000 NA
ATOM      4  C   UNL     1      -0.791  11.315  20.774  0.00  0.00    +0.000 A 
ATOM      5  N   UNL     1      -0.078  10.985  19.647  0.00  0.00    +0.000 N 
ATOM      6  C   UNL     1       0.690   9.812  19.701  0.00  0.00    +0.000 A 
ATOM      7  C   UNL     1       1.428   9.314  18.625  0.00  0.00    +0.000 A 
ATOM      8  C   UNL     1       2.184   8.147  18.742  0.00  0.00    +0.000 A 
ATOM      9  C   UNL     1       2.178   7.417  19.932  0.00  0.00    +0.000 A 
ATOM     10  C   UNL     1       1.481   7.905  21.030  0.00  0.00    +0.000 A 
ATOM     11  C   UNL     1       0.738   9.088  20.907  0.00  0.00    +0.000 A 
ENDROOT
BRANCH   5  12
ATOM     12  C   UNL     1      -0.135  11.801  18.427  0.00  0.00    +0.000 C 
BRANCH  12  13
ATOM     13  C   UNL     1       0.779  13.007  18.518  0.00  0.00    +0.000 A 
ATOM     14  C   UNL     1       0.249  14.275  18.804  0.00  0.00    +0.000 A 
ATOM     15  C   UNL     1       1.057  15.412  18.754  0.00  0.00    +0.000 A 
ATOM     16  C   UNL     1       2.408  15.289  18.442  0.00  0.00    +0.000 A 
ATOM     17 CL   UNL     1       3.384  16.698  18.298  0.00  0.00    +0.000 Cl
ATOM     18  C   UNL     1       2.968  14.032  18.228  0.00  0.00    +0.000 A 
ATOM     19  C   UNL     1       2.158  12.894  18.274  0.00  0.00    +0.000 A 
ENDBRANCH  12  13
ENDBRANCH   5  12
BRANCH   9  20
ATOM     20  O   UNL     1       2.867   6.241  20.116  0.00  0.00    +0.000 OA
BRANCH  20  21
ATOM     21  C   UNL     1       2.861   5.316  19.087  0.00  0.00    +0.000 A 
ATOM     22  N   UNL     1       3.613   5.585  17.987  0.00  0.00    +0.000 NA
ATOM     23  C   UNL     1       3.700   4.636  17.037  0.00  0.00    +0.000 A 
ATOM     24  C   UNL     1       3.069   3.414  17.133  0.00  0.00    +0.000 A 
ATOM     25  C   UNL     1       2.254   3.181  18.239  0.00  0.00    +0.000 A 
ATOM     26  C   UNL     1       2.110   4.163  19.233  0.00  0.00    +0.000 A 
BRANCH  26  27
ATOM     27  C   UNL     1       1.162   3.956  20.372  0.00  0.00    +0.000 C 
ATOM     28  F   UNL     1       0.165   4.873  20.494  0.00  0.00    +0.000 F 
ATOM     29  F   UNL     1       0.531   2.749  20.283  0.00  0.00    +0.000 F 
ATOM     30  F   UNL     1       1.798   3.943  21.578  0.00  0.00    +0.000 F 
ENDBRANCH  26  27
ENDBRANCH  20  21
ENDBRANCH   9  20
TORSDOF 5
ENDMDL
MODEL 7
REMARK VINA RESULT:      -8.4      3.014      4.118
REMARK  Name = 
REMARK  5 active torsions:
REMARK  status: ('A' for Active; 'I' for Inactive)
REMARK    1  A    between atoms: N_5  and  C_6
REMARK    2  A    between atoms: C_6  and  C_7
REMARK    3  A    between atoms: C_17  and  O_18
REMARK    4  A    between atoms: O_18  and  C_19
REMARK    5  A    between atoms: C_24  and  C_25
REMARK                            x       y       z     vdW  Elec       q    Type
REMARK                         _______ _______ _______ _____ _____    ______ ____
ROOT
ATOM      1  O   UNL     1       0.862   8.949  22.827  0.00  0.00    +0.000 OA
ATOM      2  C   UNL     1       0.543   9.580  21.819  0.00  0.00    +0.000 A 
ATOM      3  N   UNL     1      -0.262  10.688  21.866  0.00  0.00    +0.000 NA
ATOM      4  C   UNL     1      -0.482  11.321  20.767  0.00  0.00    +0.000 A 
ATOM      5  N   UNL     1      -0.017  11.038  19.505  0.00  0.00    +0.000 N 
ATOM      6  C   UNL     1       0.755   9.877  19.357  0.00  0.00    +0.000 A 
ATOM      7  C   UNL     1       1.257   9.425  18.133  0.00  0.00    +0.000 A 
ATOM      8  C   UNL     1       2.030   8.268  18.050  0.00  0.00    +0.000 A 
ATOM      9  C   UNL     1       2.279   7.499  19.188  0.00  0.00    +0.000 A 
ATOM     10  C   UNL     1       1.822   7.940  20.424  0.00  0.00    +0.000 A 
ATOM     11  C   UNL     1       1.059   9.114  20.499  0.00  0.00    +0.000 A 
ENDROOT
BRANCH   5  12
ATOM     12  C   UNL     1      -0.334  11.893  18.353  0.00  0.00    +0.000 C 
BRANCH  12  13
ATOM     13  C   UNL     1       0.406  13.215  18.418  0.00  0.00    +0.000 A 
ATOM     14  C   UNL     1       1.794  13.259  18.217  0.00  0.00    +0.000 A 
ATOM     15  C   UNL     1       2.505  14.445  18.410  0.00  0.00    +0.000 A 
ATOM     16  C   UNL     1       1.830  15.604  18.781  0.00  0.00    +0.000 A 
ATOM     17 CL   UNL     1       2.716  17.043  19.101  0.00  0.00    +0.000 Cl
ATOM     18  C   UNL     1       0.444  15.598  18.914  0.00  0.00    +0.000 A 
ATOM     19  C   UNL     1      -0.267  14.410  18.725  0.00  0.00    +0.000 A 
ENDBRANCH  12  13
ENDBRANCH   5  12
BRANCH   9  20
ATOM     20  O   UNL     1       3.001   6.328  19.183  0.00  0.00    +0.000 OA
BRANCH  20  21
ATOM     21  C   UNL     1       3.784   6.052  18.077  0.00  0.00    +0.000 A 
ATOM     22  N   UNL     1       4.760   6.940  17.750  0.00  0.00    +0.000 NA
ATOM     23  C   UNL     1       5.596   6.617  16.748  0.00  0.00    +0.000 A 
ATOM     24  C   UNL     1       5.508   5.434  16.045  0.00  0.00    +0.000 A 
ATOM     25  C   UNL     1       4.464   4.564  16.353  0.00  0.00    +0.000 A 
ATOM     26  C   UNL     1       3.550   4.885  17.370  0.00  0.00    +0.000 A 
BRANCH  26  27
ATOM     27  C   UNL     1       2.373   4.001  17.639  0.00  0.00    +0.000 C 
ATOM     28  F   UNL     1       1.150   4.543  17.394  0.00  0.00    +0.000 F 
ATOM     29  F   UNL     1       2.419   2.864  16.885  0.00  0.00    +0.000 F 
ATOM     30  F   UNL     1       2.333   3.574  18.933  0.00  0.00    +0.000 F 
ENDBRANCH  26  27
ENDBRANCH  20  21
ENDBRANCH   9  20
TORSDOF 5
ENDMDL
MODEL 8
REMARK VINA RESULT:      -8.4      1.820      2.212
REMARK  Name = 
REMARK  5 active torsions:
REMARK  status: ('A' for Active; 'I' for Inactive)
REMARK    1  A    between atoms: N_5  and  C_6
REMARK    2  A    between atoms: C_6  and  C_7
REMARK    3  A    between atoms: C_17  and  O_18
REMARK    4  A    between atoms: O_18  and  C_19
REMARK    5  A    between atoms: C_24  and  C_25
REMARK                            x       y       z     vdW  Elec       q    Type
REMARK                         _______ _______ _______ _____ _____    ______ ____
ROOT
ATOM      1  O   UNL     1       1.125   9.238  23.317  0.00  0.00    +0.000 OA
ATOM      2  C   UNL     1       0.704   9.704  22.258  0.00  0.00    +0.000 A 
ATOM      3  N   UNL     1      -0.144  10.778  22.209  0.00  0.00    +0.000 NA
ATOM      4  C   UNL     1      -0.473  11.236  21.051  0.00  0.00    +0.000 A 
ATOM      5  N   UNL     1      -0.089  10.787  19.810  0.00  0.00    +0.000 N 
ATOM      6  C   UNL     1       0.721   9.643  19.769  0.00  0.00    +0.000 A 
ATOM      7  C   UNL     1       1.150   9.034  18.587  0.00  0.00    +0.000 A 
ATOM      8  C   UNL     1       1.966   7.903  18.610  0.00  0.00    +0.000 A 
ATOM      9  C   UNL     1       2.332   7.318  19.823  0.00  0.00    +0.000 A 
ATOM     10  C   UNL     1       1.948   7.920  21.015  0.00  0.00    +0.000 A 
ATOM     11  C   UNL     1       1.142   9.067  20.982  0.00  0.00    +0.000 A 
ENDROOT
BRANCH   5  12
ATOM     12  C   UNL     1      -0.529  11.453  18.577  0.00  0.00    +0.000 C 
BRANCH  12  13
ATOM     13  C   UNL     1      -2.029  11.343  18.386  0.00  0.00    +0.000 A 
ATOM     14  C   UNL     1      -2.891  12.247  19.025  0.00  0.00    +0.000 A 
ATOM     15  C   UNL     1      -4.275  12.073  18.969  0.00  0.00    +0.000 A 
ATOM     16  C   UNL     1      -4.810  11.007  18.253  0.00  0.00    +0.000 A 
ATOM     17 CL   UNL     1      -6.510  10.744  18.255  0.00  0.00    +0.000 Cl
ATOM     18  C   UNL     1      -3.975  10.141  17.552  0.00  0.00    +0.000 A 
ATOM     19  C   UNL     1      -2.590  10.313  17.611  0.00  0.00    +0.000 A 
ENDBRANCH  12  13
ENDBRANCH   5  12
BRANCH   9  20
ATOM     20  O   UNL     1       3.103   6.184  19.929  0.00  0.00    +0.000 OA
BRANCH  20  21
ATOM     21  C   UNL     1       2.900   5.171  19.008  0.00  0.00    +0.000 A 
ATOM     22  N   UNL     1       3.507   5.282  17.797  0.00  0.00    +0.000 NA
ATOM     23  C   UNL     1       3.406   4.247  16.945  0.00  0.00    +0.000 A 
ATOM     24  C   UNL     1       2.722   3.088  17.246  0.00  0.00    +0.000 A 
ATOM     25  C   UNL     1       2.055   3.017  18.467  0.00  0.00    +0.000 A 
ATOM     26  C   UNL     1       2.108   4.095  19.367  0.00  0.00    +0.000 A 
BRANCH  26  27
ATOM     27  C   UNL     1       1.316   4.063  20.636  0.00  0.00    +0.000 C 
ATOM     28  F   UNL     1       0.678   2.895  20.913  0.00  0.00    +0.000 F 
ATOM     29  F   UNL     1       2.106   4.306  21.723  0.00  0.00    +0.000 F 
ATOM     30  F   UNL     1       0.352   5.026  20.668  0.00  0.00    +0.000 F 
ENDBRANCH  26  27
ENDBRANCH  20  21
ENDBRANCH   9  20
TORSDOF 5
ENDMDL
MODEL 9
REMARK VINA RESULT:      -8.3      0.990      1.599
REMARK  Name = 
REMARK  5 active torsions:
REMARK  status: ('A' for Active; 'I' for Inactive)
REMARK    1  A    between atoms: N_5  and  C_6
REMARK    2  A    between atoms: C_6  and  C_7
REMARK    3  A    between atoms: C_17  and  O_18
REMARK    4  A    between atoms: O_18  and  C_19
REMARK    5  A    between atoms: C_24  and  C_25
REMARK                            x       y       z     vdW  Elec       q    Type
REMARK                         _______ _______ _______ _____ _____    ______ ____
ROOT
ATOM      1  O   UNL     1       1.430   9.075  23.084  0.00  0.00    +0.000 OA
ATOM      2  C   UNL     1       0.934   9.585  22.078  0.00  0.00    +0.000 A 
ATOM      3  N   UNL     1       0.103  10.672  22.135  0.00  0.00    +0.000 NA
ATOM      4  C   UNL     1      -0.309  11.176  21.024  0.00  0.00    +0.000 A 
ATOM      5  N   UNL     1      -0.032  10.768  19.741  0.00  0.00    +0.000 N 
ATOM      6  C   UNL     1       0.754   9.615  19.596  0.00  0.00    +0.000 A 
ATOM      7  C   UNL     1       1.079   9.044  18.362  0.00  0.00    +0.000 A 
ATOM      8  C   UNL     1       1.876   7.902  18.280  0.00  0.00    +0.000 A 
ATOM      9  C   UNL     1       2.326   7.269  19.439  0.00  0.00    +0.000 A 
ATOM     10  C   UNL     1       2.048   7.831  20.678  0.00  0.00    +0.000 A 
ATOM     11  C   UNL     1       1.260   8.989  20.750  0.00  0.00    +0.000 A 
ENDROOT
BRANCH   5  12
ATOM     12  C   UNL     1      -0.556  11.484  18.571  0.00  0.00    +0.000 C 
BRANCH  12  13
ATOM     13  C   UNL     1      -2.065  11.374  18.478  0.00  0.00    +0.000 A 
ATOM     14  C   UNL     1      -2.655  10.554  17.504  0.00  0.00    +0.000 A 
ATOM     15  C   UNL     1      -4.039  10.551  17.318  0.00  0.00    +0.000 A 
ATOM     16  C   UNL     1      -4.847  11.349  18.123  0.00  0.00    +0.000 A 
ATOM     17 CL   UNL     1      -6.542  11.409  17.838  0.00  0.00    +0.000 Cl
ATOM     18  C   UNL     1      -4.287  12.114  19.143  0.00  0.00    +0.000 A 
ATOM     19  C   UNL     1      -2.902  12.120  19.326  0.00  0.00    +0.000 A 
ENDBRANCH  12  13
ENDBRANCH   5  12
BRANCH   9  20
ATOM     20  O   UNL     1       3.085   6.121  19.444  0.00  0.00    +0.000 OA
BRANCH  20  21
ATOM     21  C   UNL     1       2.499   4.957  19.909  0.00  0.00    +0.000 A 
ATOM     22  N   UNL     1       2.504   4.735  21.251  0.00  0.00    +0.000 NA
ATOM     23  C   UNL     1       1.834   3.665  21.714  0.00  0.00    +0.000 A 
ATOM     24  C   UNL     1       1.148   2.793  20.896  0.00  0.00    +0.000 A 
ATOM     25  C   UNL     1       1.206   3.002  19.519  0.00  0.00    +0.000 A 
ATOM     26  C   UNL     1       1.926   4.089  18.996  0.00  0.00    +0.000 A 
BRANCH  26  27
ATOM     27  C   UNL     1       2.072   4.262  17.517  0.00  0.00    +0.000 C 
ATOM     28  F   UNL     1       2.159   3.118  16.787  0.00  0.00    +0.000 F 
ATOM     29  F   UNL     1       1.015   4.945  16.988  0.00  0.00    +0.000 F 
ATOM     30  F   UNL     1       3.174   4.993  17.189  0.00  0.00    +0.000 F 
ENDBRANCH  26  27
ENDBRANCH  20  21
ENDBRANCH   9  20
TORSDOF 5
ENDMDL
