MODEL 1
REMARK VINA RESULT:      -7.3      0.000      0.000
REMARK  Name = 
REMARK  8 active torsions:
REMARK  status: ('A' for Active; 'I' for Inactive)
REMARK    1  A    between atoms: C_1  and  C_2
REMARK    2  A    between atoms: C_2  and  C_3
REMARK    3  A    between atoms: C_3  and  N_4
REMARK    4  A    between atoms: N_4  and  C_5
REMARK    5  A    between atoms: N_4  and  C_8
REMARK    6  A    between atoms: C_5  and  C_6
REMARK    7  A    between atoms: C_6  and  C_7
REMARK    8  A    between atoms: C_15  and  O_16
REMARK                            x       y       z     vdW  Elec       q    Type
REMARK                         _______ _______ _______ _____ _____    ______ ____
ROOT
ATOM      1  C   UNL     1       4.362   5.036  17.332  0.00  0.00    +0.000 C 
ATOM      2  C   UNL     1       3.467   6.182  17.855  0.00  0.00    +0.000 C 
ATOM      3  C   UNL     1       2.125   5.639  18.367  0.00  0.00    +0.000 C 
ATOM      4  C   UNL     1       2.283   4.498  19.334  0.00  0.00    +0.000 A 
ATOM      5  C   UNL     1       1.198   4.142  20.147  0.00  0.00    +0.000 A 
ATOM      6  C   UNL     1       1.323   3.115  21.083  0.00  0.00    +0.000 A 
ATOM      7  C   UNL     1       2.531   2.429  21.211  0.00  0.00    +0.000 A 
ATOM      8  C   UNL     1       3.620   2.759  20.393  0.00  0.00    +0.000 A 
ATOM      9  C   UNL     1       3.499   3.789  19.438  0.00  0.00    +0.000 A 
ATOM     10  C   UNL     1       4.675   4.103  18.540  0.00  0.00    +0.000 C 
ENDROOT
BRANCH   8  11
ATOM     11  O   UNL     1       4.783   2.082  20.508  0.00  0.00    +0.000 OA
ATOM     12  H   UNL     1       5.291   2.067  21.331  0.00  0.00    +0.000 HD
ENDBRANCH   8  11
BRANCH   1  13
ATOM     13  N   UNL     1       5.628   5.529  16.680  0.00  0.00    +0.000 NA
BRANCH  13  14
ATOM     14  C   UNL     1       5.620   5.322  15.201  0.00  0.00    +0.000 C 
BRANCH  14  16
ATOM     15  C   UNL     1       6.033   3.718  13.265  0.00  0.00    +0.000 C 
ATOM     16  C   UNL     1       6.375   4.070  14.712  0.00  0.00    +0.000 C 
ENDBRANCH  14  16
ENDBRANCH  13  14
BRANCH  13  17
ATOM     17  C   UNL     1       5.993   6.930  17.054  0.00  0.00    +0.000 C 
BRANCH  17  18
ATOM     18  C   UNL     1       7.452   7.094  17.531  0.00  0.00    +0.000 C 
ATOM     19  C   UNL     1       7.760   6.172  18.707  0.00  0.00    +0.000 C 
ENDBRANCH  17  18
ENDBRANCH  13  17
ENDBRANCH   1  13
TORSDOF 6
ENDMDL
MODEL 2
REMARK VINA RESULT:      -7.3      0.578      2.630
REMARK  Name = 
REMARK  8 active torsions:
REMARK  status: ('A' for Active; 'I' for Inactive)
REMARK    1  A    between atoms: C_1  and  C_2
REMARK    2  A    between atoms: C_2  and  C_3
REMARK    3  A    between atoms: C_3  and  N_4
REMARK    4  A    between atoms: N_4  and  C_5
REMARK    5  A    between atoms: N_4  and  C_8
REMARK    6  A    between atoms: C_5  and  C_6
REMARK    7  A    between atoms: C_6  and  C_7
REMARK    8  A    between atoms: C_15  and  O_16
REMARK                            x       y       z     vdW  Elec       q    Type
REMARK                         _______ _______ _______ _____ _____    ______ ____
ROOT
ATOM      1  C   UNL     1       4.464   5.324  17.315  0.00  0.00    +0.000 C 
ATOM      2  C   UNL     1       3.761   6.494  18.038  0.00  0.00    +0.000 C 
ATOM      3  C   UNL     1       2.421   6.042  18.636  0.00  0.00    +0.000 C 
ATOM      4  C   UNL     1       2.538   4.794  19.467  0.00  0.00    +0.000 A 
ATOM      5  C   UNL     1       1.502   4.468  20.354  0.00  0.00    +0.000 A 
ATOM      6  C   UNL     1       1.598   3.340  21.168  0.00  0.00    +0.000 A 
ATOM      7  C   UNL     1       2.725   2.521  21.099  0.00  0.00    +0.000 A 
ATOM      8  C   UNL     1       3.762   2.822  20.205  0.00  0.00    +0.000 A 
ATOM      9  C   UNL     1       3.669   3.955  19.372  0.00  0.00    +0.000 A 
ATOM     10  C   UNL     1       4.782   4.239  18.388  0.00  0.00    +0.000 C 
ENDROOT
BRANCH   8  11
ATOM     11  O   UNL     1       4.845   2.018  20.130  0.00  0.00    +0.000 OA
ATOM     12  H   UNL     1       5.231   1.599  20.911  0.00  0.00    +0.000 HD
ENDBRANCH   8  11
BRANCH   1  13
ATOM     13  N   UNL     1       5.710   5.749  16.582  0.00  0.00    +0.000 NA
BRANCH  13  14
ATOM     14  C   UNL     1       6.953   5.261  17.251  0.00  0.00    +0.000 C 
BRANCH  14  16
ATOM     15  C   UNL     1       7.585   7.710  17.551  0.00  0.00    +0.000 C 
ATOM     16  C   UNL     1       7.672   6.300  18.134  0.00  0.00    +0.000 C 
ENDBRANCH  14  16
ENDBRANCH  13  14
BRANCH  13  17
ATOM     17  C   UNL     1       5.690   5.429  15.122  0.00  0.00    +0.000 C 
BRANCH  17  18
ATOM     18  C   UNL     1       6.364   4.088  14.762  0.00  0.00    +0.000 C 
ATOM     19  C   UNL     1       6.143   3.729  13.296  0.00  0.00    +0.000 C 
ENDBRANCH  17  18
ENDBRANCH  13  17
ENDBRANCH   1  13
TORSDOF 6
ENDMDL
MODEL 3
REMARK VINA RESULT:      -7.2      1.201      2.873
REMARK  Name = 
REMARK  8 active torsions:
REMARK  status: ('A' for Active; 'I' for Inactive)
REMARK    1  A    between atoms: C_1  and  C_2
REMARK    2  A    between atoms: C_2  and  C_3
REMARK    3  A    between atoms: C_3  and  N_4
REMARK    4  A    between atoms: N_4  and  C_5
REMARK    5  A    between atoms: N_4  and  C_8
REMARK    6  A    between atoms: C_5  and  C_6
REMARK    7  A    between atoms: C_6  and  C_7
REMARK    8  A    between atoms: C_15  and  O_16
REMARK                            x       y       z     vdW  Elec       q    Type
REMARK                         _______ _______ _______ _____ _____    ______ ____
ROOT
ATOM      1  C   UNL     1       4.483   5.283  16.792  0.00  0.00    +0.000 C 
ATOM      2  C   UNL     1       4.011   6.282  17.871  0.00  0.00    +0.000 C 
ATOM      3  C   UNL     1       2.565   5.988  18.295  0.00  0.00    +0.000 C 
ATOM      4  C   UNL     1       2.341   4.546  18.660  0.00  0.00    +0.000 A 
ATOM      5  C   UNL     1       1.199   4.202  19.396  0.00  0.00    +0.000 A 
ATOM      6  C   UNL     1       0.981   2.880  19.786  0.00  0.00    +0.000 A 
ATOM      7  C   UNL     1       1.898   1.889  19.437  0.00  0.00    +0.000 A 
ATOM      8  C   UNL     1       3.036   2.212  18.685  0.00  0.00    +0.000 A 
ATOM      9  C   UNL     1       3.258   3.544  18.280  0.00  0.00    +0.000 A 
ATOM     10  C   UNL     1       4.473   3.864  17.437  0.00  0.00    +0.000 C 
ENDROOT
BRANCH   8  11
ATOM     11  O   UNL     1       3.913   1.247  18.336  0.00  0.00    +0.000 OA
ATOM     12  H   UNL     1       3.820   0.332  18.637  0.00  0.00    +0.000 HD
ENDBRANCH   8  11
BRANCH   1  13
ATOM     13  N   UNL     1       5.841   5.618  16.231  0.00  0.00    +0.000 NA
BRANCH  13  14
ATOM     14  C   UNL     1       6.946   4.988  17.014  0.00  0.00    +0.000 C 
BRANCH  14  16
ATOM     15  C   UNL     1       7.627   7.356  17.662  0.00  0.00    +0.000 C 
ATOM     16  C   UNL     1       7.580   5.890  18.091  0.00  0.00    +0.000 C 
ENDBRANCH  14  16
ENDBRANCH  13  14
BRANCH  13  17
ATOM     17  C   UNL     1       5.968   5.361  14.764  0.00  0.00    +0.000 C 
BRANCH  17  18
ATOM     18  C   UNL     1       6.310   3.899  14.408  0.00  0.00    +0.000 C 
ATOM     19  C   UNL     1       6.099   3.623  12.923  0.00  0.00    +0.000 C 
ENDBRANCH  17  18
ENDBRANCH  13  17
ENDBRANCH   1  13
TORSDOF 6
ENDMDL
MODEL 4
REMARK VINA RESULT:      -7.0      1.623      3.296
REMARK  Name = 
REMARK  8 active torsions:
REMARK  status: ('A' for Active; 'I' for Inactive)
REMARK    1  A    between atoms: C_1  and  C_2
REMARK    2  A    between atoms: C_2  and  C_3
REMARK    3  A    between atoms: C_3  and  N_4
REMARK    4  A    between atoms: N_4  and  C_5
REMARK    5  A    between atoms: N_4  and  C_8
REMARK    6  A    between atoms: C_5  and  C_6
REMARK    7  A    between atoms: C_6  and  C_7
REMARK    8  A    between atoms: C_15  and  O_16
REMARK                            x       y       z     vdW  Elec       q    Type
REMARK                         _______ _______ _______ _____ _____    ______ ____
ROOT
ATOM      1  C   UNL     1       5.028   4.777  17.548  0.00  0.00    +0.000 C 
ATOM      2  C   UNL     1       4.233   3.753  16.708  0.00  0.00    +0.000 C 
ATOM      3  C   UNL     1       3.532   2.729  17.612  0.00  0.00    +0.000 C 
ATOM      4  C   UNL     1       2.731   3.367  18.714  0.00  0.00    +0.000 A 
ATOM      5  C   UNL     1       1.766   2.601  19.383  0.00  0.00    +0.000 A 
ATOM      6  C   UNL     1       0.978   3.174  20.381  0.00  0.00    +0.000 A 
ATOM      7  C   UNL     1       1.152   4.514  20.727  0.00  0.00    +0.000 A 
ATOM      8  C   UNL     1       2.124   5.289  20.081  0.00  0.00    +0.000 A 
ATOM      9  C   UNL     1       2.931   4.716  19.077  0.00  0.00    +0.000 A 
ATOM     10  C   UNL     1       4.000   5.560  18.420  0.00  0.00    +0.000 C 
ENDROOT
BRANCH   8  11
ATOM     11  O   UNL     1       2.300   6.582  20.429  0.00  0.00    +0.000 OA
ATOM     12  H   UNL     1       3.043   7.108  20.100  0.00  0.00    +0.000 HD
ENDBRANCH   8  11
BRANCH   1  13
ATOM     13  N   UNL     1       5.856   5.714  16.706  0.00  0.00    +0.000 NA
BRANCH  13  14
ATOM     14  C   UNL     1       7.300   5.688  17.087  0.00  0.00    +0.000 C 
BRANCH  14  16
ATOM     15  C   UNL     1       7.830   8.113  17.661  0.00  0.00    +0.000 C 
ATOM     16  C   UNL     1       7.702   6.686  18.192  0.00  0.00    +0.000 C 
ENDBRANCH  14  16
ENDBRANCH  13  14
BRANCH  13  17
ATOM     17  C   UNL     1       5.654   5.540  15.235  0.00  0.00    +0.000 C 
BRANCH  17  18
ATOM     18  C   UNL     1       6.774   4.739  14.537  0.00  0.00    +0.000 C 
ATOM     19  C   UNL     1       6.208   3.797  13.478  0.00  0.00    +0.000 C 
ENDBRANCH  17  18
ENDBRANCH  13  17
ENDBRANCH   1  13
TORSDOF 6
ENDMDL
MODEL 5
REMARK VINA RESULT:      -7.0      1.586      2.025
REMARK  Name = 
REMARK  8 active torsions:
REMARK  status: ('A' for Active; 'I' for Inactive)
REMARK    1  A    between atoms: C_1  and  C_2
REMARK    2  A    between atoms: C_2  and  C_3
REMARK    3  A    between atoms: C_3  and  N_4
REMARK    4  A    between atoms: N_4  and  C_5
REMARK    5  A    between atoms: N_4  and  C_8
REMARK    6  A    between atoms: C_5  and  C_6
REMARK    7  A    between atoms: C_6  and  C_7
REMARK    8  A    between atoms: C_15  and  O_16
REMARK                            x       y       z     vdW  Elec       q    Type
REMARK                         _______ _______ _______ _____ _____    ______ ____
ROOT
ATOM      1  C   UNL     1       5.133   4.648  17.521  0.00  0.00    +0.000 C 
ATOM      2  C   UNL     1       4.254   3.672  16.707  0.00  0.00    +0.000 C 
ATOM      3  C   UNL     1       3.461   2.743  17.637  0.00  0.00    +0.000 C 
ATOM      4  C   UNL     1       2.713   3.485  18.711  0.00  0.00    +0.000 A 
ATOM      5  C   UNL     1       1.680   2.829  19.396  0.00  0.00    +0.000 A 
ATOM      6  C   UNL     1       0.941   3.501  20.370  0.00  0.00    +0.000 A 
ATOM      7  C   UNL     1       1.231   4.831  20.674  0.00  0.00    +0.000 A 
ATOM      8  C   UNL     1       2.272   5.496  20.013  0.00  0.00    +0.000 A 
ATOM      9  C   UNL     1       3.030   4.821  19.034  0.00  0.00    +0.000 A 
ATOM     10  C   UNL     1       4.174   5.546  18.359  0.00  0.00    +0.000 C 
ENDROOT
BRANCH   8  11
ATOM     11  O   UNL     1       2.560   6.779  20.322  0.00  0.00    +0.000 OA
ATOM     12  H   UNL     1       1.958   7.332  20.839  0.00  0.00    +0.000 HD
ENDBRANCH   8  11
BRANCH   1  13
ATOM     13  N   UNL     1       6.045   5.480  16.658  0.00  0.00    +0.000 NA
BRANCH  13  14
ATOM     14  C   UNL     1       5.713   5.362  15.207  0.00  0.00    +0.000 C 
BRANCH  14  16
ATOM     15  C   UNL     1       6.182   3.768  13.276  0.00  0.00    +0.000 C 
ATOM     16  C   UNL     1       6.790   4.676  14.344  0.00  0.00    +0.000 C 
ENDBRANCH  14  16
ENDBRANCH  13  14
BRANCH  13  17
ATOM     17  C   UNL     1       6.159   6.904  17.099  0.00  0.00    +0.000 C 
BRANCH  17  18
ATOM     18  C   UNL     1       7.569   7.301  17.586  0.00  0.00    +0.000 C 
ATOM     19  C   UNL     1       7.996   6.469  18.792  0.00  0.00    +0.000 C 
ENDBRANCH  17  18
ENDBRANCH  13  17
ENDBRANCH   1  13
TORSDOF 6
ENDMDL
MODEL 6
REMARK VINA RESULT:      -7.0      1.370      1.370
REMARK  Name = 
REMARK  8 active torsions:
REMARK  status: ('A' for Active; 'I' for Inactive)
REMARK    1  A    between atoms: C_1  and  C_2
REMARK    2  A    between atoms: C_2  and  C_3
REMARK    3  A    between atoms: C_3  and  N_4
REMARK    4  A    between atoms: N_4  and  C_5
REMARK    5  A    between atoms: N_4  and  C_8
REMARK    6  A    between atoms: C_5  and  C_6
REMARK    7  A    between atoms: C_6  and  C_7
REMARK    8  A    between atoms: C_15  and  O_16
REMARK                            x       y       z     vdW  Elec       q    Type
REMARK                         _______ _______ _______ _____ _____    ______ ____
ROOT
ATOM      1  C   UNL     1       4.982   5.004  16.920  0.00  0.00    +0.000 C 
ATOM      2  C   UNL     1       4.232   6.023  17.806  0.00  0.00    +0.000 C 
ATOM      3  C   UNL     1       2.733   5.696  17.868  0.00  0.00    +0.000 C 
ATOM      4  C   UNL     1       2.459   4.260  18.223  0.00  0.00    +0.000 A 
ATOM      5  C   UNL     1       1.177   3.903  18.665  0.00  0.00    +0.000 A 
ATOM      6  C   UNL     1       0.900   2.588  19.040  0.00  0.00    +0.000 A 
ATOM      7  C   UNL     1       1.898   1.616  18.971  0.00  0.00    +0.000 A 
ATOM      8  C   UNL     1       3.180   1.952  18.515  0.00  0.00    +0.000 A 
ATOM      9  C   UNL     1       3.466   3.277  18.124  0.00  0.00    +0.000 A 
ATOM     10  C   UNL     1       4.845   3.608  17.599  0.00  0.00    +0.000 C 
ENDROOT
BRANCH   8  11
ATOM     11  O   UNL     1       4.140   1.005  18.434  0.00  0.00    +0.000 OA
ATOM     12  H   UNL     1       4.178   0.371  17.705  0.00  0.00    +0.000 HD
ENDBRANCH   8  11
BRANCH   1  13
ATOM     13  N   UNL     1       6.429   5.365  16.703  0.00  0.00    +0.000 NA
BRANCH  13  14
ATOM     14  C   UNL     1       6.899   5.017  15.329  0.00  0.00    +0.000 C 
BRANCH  14  16
ATOM     15  C   UNL     1       6.367   3.863  13.121  0.00  0.00    +0.000 C 
ATOM     16  C   UNL     1       6.089   3.911  14.622  0.00  0.00    +0.000 C 
ENDBRANCH  14  16
ENDBRANCH  13  14
BRANCH  13  17
ATOM     17  C   UNL     1       6.761   6.775  17.075  0.00  0.00    +0.000 C 
BRANCH  17  18
ATOM     18  C   UNL     1       7.802   6.898  18.208  0.00  0.00    +0.000 C 
ATOM     19  C   UNL     1       7.769   5.682  19.129  0.00  0.00    +0.000 C 
ENDBRANCH  17  18
ENDBRANCH  13  17
ENDBRANCH   1  13
TORSDOF 6
ENDMDL
MODEL 7
REMARK VINA RESULT:      -6.9      1.598      1.784
REMARK  Name = 
REMARK  8 active torsions:
REMARK  status: ('A' for Active; 'I' for Inactive)
REMARK    1  A    between atoms: C_1  and  C_2
REMARK    2  A    between atoms: C_2  and  C_3
REMARK    3  A    between atoms: C_3  and  N_4
REMARK    4  A    between atoms: N_4  and  C_5
REMARK    5  A    between atoms: N_4  and  C_8
REMARK    6  A    between atoms: C_5  and  C_6
REMARK    7  A    between atoms: C_6  and  C_7
REMARK    8  A    between atoms: C_15  and  O_16
REMARK                            x       y       z     vdW  Elec       q    Type
REMARK                         _______ _______ _______ _____ _____    ______ ____
ROOT
ATOM      1  C   UNL     1       4.896   4.991  17.662  0.00  0.00    +0.000 C 
ATOM      2  C   UNL     1       5.037   5.368  19.153  0.00  0.00    +0.000 C 
ATOM      3  C   UNL     1       3.665   5.654  19.779  0.00  0.00    +0.000 C 
ATOM      4  C   UNL     1       2.661   4.565  19.518  0.00  0.00    +0.000 A 
ATOM      5  C   UNL     1       1.503   4.505  20.306  0.00  0.00    +0.000 A 
ATOM      6  C   UNL     1       0.572   3.484  20.117  0.00  0.00    +0.000 A 
ATOM      7  C   UNL     1       0.783   2.517  19.134  0.00  0.00    +0.000 A 
ATOM      8  C   UNL     1       1.926   2.572  18.325  0.00  0.00    +0.000 A 
ATOM      9  C   UNL     1       2.868   3.606  18.503  0.00  0.00    +0.000 A 
ATOM     10  C   UNL     1       4.075   3.668  17.593  0.00  0.00    +0.000 C 
ENDROOT
BRANCH   8  11
ATOM     11  O   UNL     1       2.120   1.644  17.363  0.00  0.00    +0.000 OA
ATOM     12  H   UNL     1       1.862   0.719  17.480  0.00  0.00    +0.000 HD
ENDBRANCH   8  11
BRANCH   1  13
ATOM     13  N   UNL     1       6.222   4.847  16.962  0.00  0.00    +0.000 NA
BRANCH  13  14
ATOM     14  C   UNL     1       6.141   3.944  15.776  0.00  0.00    +0.000 C 
BRANCH  14  16
ATOM     15  C   UNL     1       6.149   3.751  13.235  0.00  0.00    +0.000 C 
ATOM     16  C   UNL     1       6.598   4.571  14.444  0.00  0.00    +0.000 C 
ENDBRANCH  14  16
ENDBRANCH  13  14
BRANCH  13  17
ATOM     17  C   UNL     1       6.877   6.152  16.636  0.00  0.00    +0.000 C 
BRANCH  17  18
ATOM     18  C   UNL     1       7.672   6.767  17.807  0.00  0.00    +0.000 C 
ATOM     19  C   UNL     1       7.837   8.274  17.638  0.00  0.00    +0.000 C 
ENDBRANCH  17  18
ENDBRANCH  13  17
ENDBRANCH   1  13
TORSDOF 6
ENDMDL
MODEL 8
REMARK VINA RESULT:      -6.8      1.580      3.168
REMARK  Name = 
REMARK  8 active torsions:
REMARK  status: ('A' for Active; 'I' for Inactive)
REMARK    1  A    between atoms: C_1  and  C_2
REMARK    2  A    between atoms: C_2  and  C_3
REMARK    3  A    between atoms: C_3  and  N_4
REMARK    4  A    between atoms: N_4  and  C_5
REMARK    5  A    between atoms: N_4  and  C_8
REMARK    6  A    between atoms: C_5  and  C_6
REMARK    7  A    between atoms: C_6  and  C_7
REMARK    8  A    between atoms: C_15  and  O_16
REMARK                            x       y       z     vdW  Elec       q    Type
REMARK                         _______ _______ _______ _____ _____    ______ ____
ROOT
ATOM      1  C   UNL     1       4.465   5.360  17.312  0.00  0.00    +0.000 C 
ATOM      2  C   UNL     1       4.763   5.732  18.781  0.00  0.00    +0.000 C 
ATOM      3  C   UNL     1       3.464   5.857  19.590  0.00  0.00    +0.000 C 
ATOM      4  C   UNL     1       2.558   4.667  19.434  0.00  0.00    +0.000 A 
ATOM      5  C   UNL     1       1.529   4.470  20.366  0.00  0.00    +0.000 A 
ATOM      6  C   UNL     1       0.697   3.355  20.274  0.00  0.00    +0.000 A 
ATOM      7  C   UNL     1       0.878   2.430  19.247  0.00  0.00    +0.000 A 
ATOM      8  C   UNL     1       1.889   2.621  18.296  0.00  0.00    +0.000 A 
ATOM      9  C   UNL     1       2.730   3.750  18.376  0.00  0.00    +0.000 A 
ATOM     10  C   UNL     1       3.790   3.956  17.317  0.00  0.00    +0.000 C 
ENDROOT
BRANCH   8  11
ATOM     11  O   UNL     1       2.052   1.731  17.293  0.00  0.00    +0.000 OA
ATOM     12  H   UNL     1       2.902   1.605  16.848  0.00  0.00    +0.000 HD
ENDBRANCH   8  11
BRANCH   1  13
ATOM     13  N   UNL     1       5.694   5.372  16.440  0.00  0.00    +0.000 NA
BRANCH  13  14
ATOM     14  C   UNL     1       6.937   5.652  17.218  0.00  0.00    +0.000 C 
BRANCH  14  16
ATOM     15  C   UNL     1       8.165   7.537  18.413  0.00  0.00    +0.000 C 
ATOM     16  C   UNL     1       7.446   7.105  17.136  0.00  0.00    +0.000 C 
ENDBRANCH  14  16
ENDBRANCH  13  14
BRANCH  13  17
ATOM     17  C   UNL     1       5.829   4.162  15.572  0.00  0.00    +0.000 C 
BRANCH  17  18
ATOM     18  C   UNL     1       6.643   4.401  14.282  0.00  0.00    +0.000 C 
ATOM     19  C   UNL     1       6.033   3.663  13.094  0.00  0.00    +0.000 C 
ENDBRANCH  17  18
ENDBRANCH  13  17
ENDBRANCH   1  13
TORSDOF 6
ENDMDL
MODEL 9
REMARK VINA RESULT:      -6.7      1.323      1.412
REMARK  Name = 
REMARK  8 active torsions:
REMARK  status: ('A' for Active; 'I' for Inactive)
REMARK    1  A    between atoms: C_1  and  C_2
REMARK    2  A    between atoms: C_2  and  C_3
REMARK    3  A    between atoms: C_3  and  N_4
REMARK    4  A    between atoms: N_4  and  C_5
REMARK    5  A    between atoms: N_4  and  C_8
REMARK    6  A    between atoms: C_5  and  C_6
REMARK    7  A    between atoms: C_6  and  C_7
REMARK    8  A    between atoms: C_15  and  O_16
REMARK                            x       y       z     vdW  Elec       q    Type
REMARK                         _______ _______ _______ _____ _____    ______ ____
ROOT
ATOM      1  C   UNL     1       4.545   4.845  16.769  0.00  0.00    +0.000 C 
ATOM      2  C   UNL     1       4.527   5.948  17.851  0.00  0.00    +0.000 C 
ATOM      3  C   UNL     1       3.119   6.113  18.441  0.00  0.00    +0.000 C 
ATOM      4  C   UNL     1       2.512   4.811  18.888  0.00  0.00    +0.000 A 
ATOM      5  C   UNL     1       1.413   4.837  19.758  0.00  0.00    +0.000 A 
ATOM      6  C   UNL     1       0.852   3.648  20.223  0.00  0.00    +0.000 A 
ATOM      7  C   UNL     1       1.378   2.421  19.818  0.00  0.00    +0.000 A 
ATOM      8  C   UNL     1       2.465   2.376  18.935  0.00  0.00    +0.000 A 
ATOM      9  C   UNL     1       3.032   3.574  18.453  0.00  0.00    +0.000 A 
ATOM     10  C   UNL     1       4.180   3.501  17.471  0.00  0.00    +0.000 C 
ENDROOT
BRANCH   8  11
ATOM     11  O   UNL     1       2.962   1.186  18.533  0.00  0.00    +0.000 OA
ATOM     12  H   UNL     1       3.788   1.115  18.035  0.00  0.00    +0.000 HD
ENDBRANCH   8  11
BRANCH   1  13
ATOM     13  N   UNL     1       5.866   4.745  16.052  0.00  0.00    +0.000 NA
BRANCH  13  14
ATOM     14  C   UNL     1       5.738   5.020  14.590  0.00  0.00    +0.000 C 
BRANCH  14  16
ATOM     15  C   UNL     1       6.860   4.120  12.487  0.00  0.00    +0.000 C 
ATOM     16  C   UNL     1       5.953   3.798  13.674  0.00  0.00    +0.000 C 
ENDBRANCH  14  16
ENDBRANCH  13  14
BRANCH  13  17
ATOM     17  C   UNL     1       6.958   5.546  16.685  0.00  0.00    +0.000 C 
BRANCH  17  18
ATOM     18  C   UNL     1       7.692   4.816  17.829  0.00  0.00    +0.000 C 
ATOM     19  C   UNL     1       7.881   5.725  19.040  0.00  0.00    +0.000 C 
ENDBRANCH  17  18
ENDBRANCH  13  17
ENDBRANCH   1  13
TORSDOF 6
ENDMDL
