MODEL 1
REMARK VINA RESULT:      -7.0      0.000      0.000
REMARK  Name = 
REMARK  9 active torsions:
REMARK  status: ('A' for Active; 'I' for Inactive)
REMARK    1  A    between atoms: C_1  and  C_2
REMARK    2  A    between atoms: C_2  and  C_3
REMARK    3  A    between atoms: C_3  and  C_4
REMARK    4  A    between atoms: C_4  and  C_5
REMARK    5  A    between atoms: C_5  and  C_6
REMARK    6  A    between atoms: C_6  and  S_7
REMARK    7  A    between atoms: S_7  and  O_10
REMARK    8  A    between atoms: O_10  and  C_11
REMARK    9  A    between atoms: C_14  and  N_15
REMARK                            x       y       z     vdW  Elec       q    Type
REMARK                         _______ _______ _______ _____ _____    ______ ____
ROOT
ATOM      1  O   UNL     1       5.797   5.946  17.788  0.00  0.00    +0.000 OA
ENDROOT
BRANCH   1   2
ATOM      2  C   UNL     1       4.685   5.219  18.184  0.00  0.00    +0.000 A 
ATOM      3  C   UNL     1       4.849   4.257  19.188  0.00  0.00    +0.000 A 
ATOM      4  C   UNL     1       3.754   3.481  19.615  0.00  0.00    +0.000 A 
ATOM      5  C   UNL     1       2.484   3.699  19.058  0.00  0.00    +0.000 A 
ATOM      6  C   UNL     1       2.314   4.667  18.069  0.00  0.00    +0.000 A 
ATOM      7  C   UNL     1       3.409   5.417  17.641  0.00  0.00    +0.000 A 
BRANCH   5   8
ATOM      8  N   UNL     1       1.319   2.937  19.516  0.00  0.00    +0.000 N 
ATOM      9  O   UNL     1       0.840   2.096  18.739  0.00  0.00    +0.000 OA
ATOM     10  O   UNL     1       0.884   3.167  20.652  0.00  0.00    +0.000 OA
ENDBRANCH   5   8
ENDBRANCH   1   2
BRANCH   1  11
ATOM     11  S   UNL     1       7.027   5.169  17.025  0.00  0.00    +0.000 S 
ATOM     12  O   UNL     1       7.776   4.394  17.993  0.00  0.00    +0.000 OA
ATOM     13  O   UNL     1       7.680   6.108  16.133  0.00  0.00    +0.000 OA
BRANCH  11  14
ATOM     14  C   UNL     1       6.121   3.987  16.022  0.00  0.00    +0.000 C 
BRANCH  14  15
ATOM     15  C   UNL     1       6.565   4.170  14.564  0.00  0.00    +0.000 C 
BRANCH  15  16
ATOM     16  C   UNL     1       5.516   3.753  13.537  0.00  0.00    +0.000 C 
BRANCH  16  17
ATOM     17  C   UNL     1       6.179   3.456  12.186  0.00  0.00    +0.000 C 
BRANCH  17  19
ATOM     18  C   UNL     1       6.646   1.259  11.046  0.00  0.00    +0.000 C 
ATOM     19  C   UNL     1       5.570   2.225  11.517  0.00  0.00    +0.000 C 
ENDBRANCH  17  19
ENDBRANCH  16  17
ENDBRANCH  15  16
ENDBRANCH  14  15
ENDBRANCH  11  14
ENDBRANCH   1  11
TORSDOF 8
ENDMDL
MODEL 2
REMARK VINA RESULT:      -7.0      3.398      6.493
REMARK  Name = 
REMARK  9 active torsions:
REMARK  status: ('A' for Active; 'I' for Inactive)
REMARK    1  A    between atoms: C_1  and  C_2
REMARK    2  A    between atoms: C_2  and  C_3
REMARK    3  A    between atoms: C_3  and  C_4
REMARK    4  A    between atoms: C_4  and  C_5
REMARK    5  A    between atoms: C_5  and  C_6
REMARK    6  A    between atoms: C_6  and  S_7
REMARK    7  A    between atoms: S_7  and  O_10
REMARK    8  A    between atoms: O_10  and  C_11
REMARK    9  A    between atoms: C_14  and  N_15
REMARK                            x       y       z     vdW  Elec       q    Type
REMARK                         _______ _______ _______ _____ _____    ______ ____
ROOT
ATOM      1  O   UNL     1       4.797   3.843  19.497  0.00  0.00    +0.000 OA
ENDROOT
BRANCH   1   2
ATOM      2  C   UNL     1       5.327   4.073  18.237  0.00  0.00    +0.000 A 
ATOM      3  C   UNL     1       6.629   4.581  18.151  0.00  0.00    +0.000 A 
ATOM      4  C   UNL     1       7.207   4.847  16.895  0.00  0.00    +0.000 A 
ATOM      5  C   UNL     1       6.488   4.566  15.722  0.00  0.00    +0.000 A 
ATOM      6  C   UNL     1       5.197   4.046  15.803  0.00  0.00    +0.000 A 
ATOM      7  C   UNL     1       4.628   3.803  17.053  0.00  0.00    +0.000 A 
BRANCH   5   8
ATOM      8  N   UNL     1       7.083   4.792  14.401  0.00  0.00    +0.000 N 
ATOM      9  O   UNL     1       6.602   4.171  13.440  0.00  0.00    +0.000 OA
ATOM     10  O   UNL     1       8.023   5.593  14.316  0.00  0.00    +0.000 OA
ENDBRANCH   5   8
ENDBRANCH   1   2
BRANCH   1  11
ATOM     11  S   UNL     1       4.276   2.332  19.879  0.00  0.00    +0.000 S 
ATOM     12  O   UNL     1       5.294   1.658  20.659  0.00  0.00    +0.000 OA
ATOM     13  O   UNL     1       3.705   1.729  18.690  0.00  0.00    +0.000 OA
BRANCH  11  14
ATOM     14  C   UNL     1       2.934   2.704  21.013  0.00  0.00    +0.000 C 
BRANCH  14  15
ATOM     15  C   UNL     1       1.619   2.632  20.225  0.00  0.00    +0.000 C 
BRANCH  15  16
ATOM     16  C   UNL     1       1.045   3.994  19.847  0.00  0.00    +0.000 C 
BRANCH  16  17
ATOM     17  C   UNL     1       1.434   4.360  18.409  0.00  0.00    +0.000 C 
BRANCH  17  19
ATOM     18  C   UNL     1       2.369   6.309  19.701  0.00  0.00    +0.000 C 
ATOM     19  C   UNL     1       2.017   5.769  18.324  0.00  0.00    +0.000 C 
ENDBRANCH  17  19
ENDBRANCH  16  17
ENDBRANCH  15  16
ENDBRANCH  14  15
ENDBRANCH  11  14
ENDBRANCH   1  11
TORSDOF 8
ENDMDL
MODEL 3
REMARK VINA RESULT:      -6.9      3.577      6.333
REMARK  Name = 
REMARK  9 active torsions:
REMARK  status: ('A' for Active; 'I' for Inactive)
REMARK    1  A    between atoms: C_1  and  C_2
REMARK    2  A    between atoms: C_2  and  C_3
REMARK    3  A    between atoms: C_3  and  C_4
REMARK    4  A    between atoms: C_4  and  C_5
REMARK    5  A    between atoms: C_5  and  C_6
REMARK    6  A    between atoms: C_6  and  S_7
REMARK    7  A    between atoms: S_7  and  O_10
REMARK    8  A    between atoms: O_10  and  C_11
REMARK    9  A    between atoms: C_14  and  N_15
REMARK                            x       y       z     vdW  Elec       q    Type
REMARK                         _______ _______ _______ _____ _____    ______ ____
ROOT
ATOM      1  O   UNL     1       4.192   5.953  19.420  0.00  0.00    +0.000 OA
ENDROOT
BRANCH   1   2
ATOM      2  C   UNL     1       4.791   5.654  18.206  0.00  0.00    +0.000 A 
ATOM      3  C   UNL     1       4.777   6.633  17.204  0.00  0.00    +0.000 A 
ATOM      4  C   UNL     1       5.358   6.373  15.948  0.00  0.00    +0.000 A 
ATOM      5  C   UNL     1       5.988   5.140  15.712  0.00  0.00    +0.000 A 
ATOM      6  C   UNL     1       6.018   4.169  16.712  0.00  0.00    +0.000 A 
ATOM      7  C   UNL     1       5.423   4.432  17.946  0.00  0.00    +0.000 A 
BRANCH   5   8
ATOM      8  N   UNL     1       6.640   4.861  14.429  0.00  0.00    +0.000 N 
ATOM      9  O   UNL     1       7.695   5.462  14.176  0.00  0.00    +0.000 OA
ATOM     10  O   UNL     1       6.107   4.036  13.674  0.00  0.00    +0.000 OA
ENDBRANCH   5   8
ENDBRANCH   1   2
BRANCH   1  11
ATOM     11  S   UNL     1       2.556   6.080  19.491  0.00  0.00    +0.000 S 
ATOM     12  O   UNL     1       1.979   5.505  18.293  0.00  0.00    +0.000 OA
ATOM     13  O   UNL     1       2.218   7.420  19.931  0.00  0.00    +0.000 OA
BRANCH  11  14
ATOM     14  C   UNL     1       2.178   4.945  20.830  0.00  0.00    +0.000 C 
BRANCH  14  15
ATOM     15  C   UNL     1       0.999   4.068  20.384  0.00  0.00    +0.000 C 
BRANCH  15  16
ATOM     16  C   UNL     1       1.370   2.610  20.128  0.00  0.00    +0.000 C 
BRANCH  16  17
ATOM     17  C   UNL     1       1.044   2.221  18.681  0.00  0.00    +0.000 C 
BRANCH  17  19
ATOM     18  C   UNL     1       3.492   1.634  18.628  0.00  0.00    +0.000 C 
ATOM     19  C   UNL     1       2.303   2.135  17.822  0.00  0.00    +0.000 C 
ENDBRANCH  17  19
ENDBRANCH  16  17
ENDBRANCH  15  16
ENDBRANCH  14  15
ENDBRANCH  11  14
ENDBRANCH   1  11
TORSDOF 8
ENDMDL
MODEL 4
REMARK VINA RESULT:      -6.9      1.323      1.731
REMARK  Name = 
REMARK  9 active torsions:
REMARK  status: ('A' for Active; 'I' for Inactive)
REMARK    1  A    between atoms: C_1  and  C_2
REMARK    2  A    between atoms: C_2  and  C_3
REMARK    3  A    between atoms: C_3  and  C_4
REMARK    4  A    between atoms: C_4  and  C_5
REMARK    5  A    between atoms: C_5  and  C_6
REMARK    6  A    between atoms: C_6  and  S_7
REMARK    7  A    between atoms: S_7  and  O_10
REMARK    8  A    between atoms: O_10  and  C_11
REMARK    9  A    between atoms: C_14  and  N_15
REMARK                            x       y       z     vdW  Elec       q    Type
REMARK                         _______ _______ _______ _____ _____    ______ ____
ROOT
ATOM      1  O   UNL     1       4.990   6.165  17.338  0.00  0.00    +0.000 OA
ENDROOT
BRANCH   1   2
ATOM      2  C   UNL     1       4.316   5.343  18.228  0.00  0.00    +0.000 A 
ATOM      3  C   UNL     1       3.625   5.944  19.288  0.00  0.00    +0.000 A 
ATOM      4  C   UNL     1       2.938   5.153  20.228  0.00  0.00    +0.000 A 
ATOM      5  C   UNL     1       2.914   3.757  20.082  0.00  0.00    +0.000 A 
ATOM      6  C   UNL     1       3.587   3.156  19.019  0.00  0.00    +0.000 A 
ATOM      7  C   UNL     1       4.279   3.949  18.104  0.00  0.00    +0.000 A 
BRANCH   5   8
ATOM      8  N   UNL     1       2.169   2.914  21.021  0.00  0.00    +0.000 N 
ATOM      9  O   UNL     1       2.773   2.489  22.018  0.00  0.00    +0.000 OA
ATOM     10  O   UNL     1       0.978   2.679  20.773  0.00  0.00    +0.000 OA
ENDBRANCH   5   8
ENDBRANCH   1   2
BRANCH   1  11
ATOM     11  S   UNL     1       6.632   6.150  17.327  0.00  0.00    +0.000 S 
ATOM     12  O   UNL     1       7.115   5.590  18.573  0.00  0.00    +0.000 OA
ATOM     13  O   UNL     1       7.100   7.433  16.837  0.00  0.00    +0.000 OA
BRANCH  11  14
ATOM     14  C   UNL     1       6.960   4.920  16.060  0.00  0.00    +0.000 C 
BRANCH  14  15
ATOM     15  C   UNL     1       6.019   5.198  14.879  0.00  0.00    +0.000 C 
BRANCH  15  16
ATOM     16  C   UNL     1       5.586   3.948  14.121  0.00  0.00    +0.000 C 
BRANCH  16  17
ATOM     17  C   UNL     1       6.456   3.750  12.873  0.00  0.00    +0.000 C 
BRANCH  17  19
ATOM     18  C   UNL     1       4.327   3.348  11.589  0.00  0.00    +0.000 C 
ATOM     19  C   UNL     1       5.756   2.884  11.828  0.00  0.00    +0.000 C 
ENDBRANCH  17  19
ENDBRANCH  16  17
ENDBRANCH  15  16
ENDBRANCH  14  15
ENDBRANCH  11  14
ENDBRANCH   1  11
TORSDOF 8
ENDMDL
MODEL 5
REMARK VINA RESULT:      -6.8      3.566      5.341
REMARK  Name = 
REMARK  9 active torsions:
REMARK  status: ('A' for Active; 'I' for Inactive)
REMARK    1  A    between atoms: C_1  and  C_2
REMARK    2  A    between atoms: C_2  and  C_3
REMARK    3  A    between atoms: C_3  and  C_4
REMARK    4  A    between atoms: C_4  and  C_5
REMARK    5  A    between atoms: C_5  and  C_6
REMARK    6  A    between atoms: C_6  and  S_7
REMARK    7  A    between atoms: S_7  and  O_10
REMARK    8  A    between atoms: O_10  and  C_11
REMARK    9  A    between atoms: C_14  and  N_15
REMARK                            x       y       z     vdW  Elec       q    Type
REMARK                         _______ _______ _______ _____ _____    ______ ____
ROOT
ATOM      1  O   UNL     1       5.828   6.059  17.965  0.00  0.00    +0.000 OA
ENDROOT
BRANCH   1   2
ATOM      2  C   UNL     1       4.679   5.340  18.250  0.00  0.00    +0.000 A 
ATOM      3  C   UNL     1       3.800   5.854  19.212  0.00  0.00    +0.000 A 
ATOM      4  C   UNL     1       2.625   5.154  19.549  0.00  0.00    +0.000 A 
ATOM      5  C   UNL     1       2.316   3.953  18.892  0.00  0.00    +0.000 A 
ATOM      6  C   UNL     1       3.181   3.445  17.923  0.00  0.00    +0.000 A 
ATOM      7  C   UNL     1       4.350   4.138  17.610  0.00  0.00    +0.000 A 
BRANCH   5   8
ATOM      8  N   UNL     1       1.079   3.226  19.192  0.00  0.00    +0.000 N 
ATOM      9  O   UNL     1       0.676   2.404  18.354  0.00  0.00    +0.000 OA
ATOM     10  O   UNL     1       0.511   3.466  20.266  0.00  0.00    +0.000 OA
ENDBRANCH   5   8
ENDBRANCH   1   2
BRANCH   1  11
ATOM     11  S   UNL     1       7.270   5.518  18.535  0.00  0.00    +0.000 S 
ATOM     12  O   UNL     1       7.906   4.695  17.527  0.00  0.00    +0.000 OA
ATOM     13  O   UNL     1       7.078   5.044  19.893  0.00  0.00    +0.000 OA
BRANCH  11  14
ATOM     14  C   UNL     1       8.211   7.045  18.608  0.00  0.00    +0.000 C 
BRANCH  14  15
ATOM     15  C   UNL     1       7.611   8.017  17.582  0.00  0.00    +0.000 C 
BRANCH  15  16
ATOM     16  C   UNL     1       8.149   9.441  17.685  0.00  0.00    +0.000 C 
BRANCH  16  17
ATOM     17  C   UNL     1       8.946   9.619  18.983  0.00  0.00    +0.000 C 
BRANCH  17  19
ATOM     18  C   UNL     1       9.236  11.905  17.966  0.00  0.00    +0.000 C 
ATOM     19  C   UNL     1       9.790  10.892  18.957  0.00  0.00    +0.000 C 
ENDBRANCH  17  19
ENDBRANCH  16  17
ENDBRANCH  15  16
ENDBRANCH  14  15
ENDBRANCH  11  14
ENDBRANCH   1  11
TORSDOF 8
ENDMDL
MODEL 6
REMARK VINA RESULT:      -6.8      3.547      6.441
REMARK  Name = 
REMARK  9 active torsions:
REMARK  status: ('A' for Active; 'I' for Inactive)
REMARK    1  A    between atoms: C_1  and  C_2
REMARK    2  A    between atoms: C_2  and  C_3
REMARK    3  A    between atoms: C_3  and  C_4
REMARK    4  A    between atoms: C_4  and  C_5
REMARK    5  A    between atoms: C_5  and  C_6
REMARK    6  A    between atoms: C_6  and  S_7
REMARK    7  A    between atoms: S_7  and  O_10
REMARK    8  A    between atoms: O_10  and  C_11
REMARK    9  A    between atoms: C_14  and  N_15
REMARK                            x       y       z     vdW  Elec       q    Type
REMARK                         _______ _______ _______ _____ _____    ______ ____
ROOT
ATOM      1  O   UNL     1       4.119   5.735  19.158  0.00  0.00    +0.000 OA
ENDROOT
BRANCH   1   2
ATOM      2  C   UNL     1       4.797   5.542  17.964  0.00  0.00    +0.000 A 
ATOM      3  C   UNL     1       5.648   4.435  17.860  0.00  0.00    +0.000 A 
ATOM      4  C   UNL     1       6.371   4.202  16.674  0.00  0.00    +0.000 A 
ATOM      5  C   UNL     1       6.209   5.064  15.578  0.00  0.00    +0.000 A 
ATOM      6  C   UNL     1       5.350   6.159  15.672  0.00  0.00    +0.000 A 
ATOM      7  C   UNL     1       4.653   6.389  16.858  0.00  0.00    +0.000 A 
BRANCH   5   8
ATOM      8  N   UNL     1       6.915   4.820  14.317  0.00  0.00    +0.000 N 
ATOM      9  O   UNL     1       7.929   5.497  14.084  0.00  0.00    +0.000 OA
ATOM     10  O   UNL     1       6.468   3.948  13.559  0.00  0.00    +0.000 OA
ENDBRANCH   5   8
ENDBRANCH   1   2
BRANCH   1  11
ATOM     11  S   UNL     1       2.537   6.175  19.115  0.00  0.00    +0.000 S 
ATOM     12  O   UNL     1       1.847   5.380  18.120  0.00  0.00    +0.000 OA
ATOM     13  O   UNL     1       2.463   7.623  19.116  0.00  0.00    +0.000 OA
BRANCH  11  14
ATOM     14  C   UNL     1       1.970   5.588  20.714  0.00  0.00    +0.000 C 
BRANCH  14  15
ATOM     15  C   UNL     1       1.117   4.333  20.480  0.00  0.00    +0.000 C 
BRANCH  15  16
ATOM     16  C   UNL     1       1.640   3.085  21.184  0.00  0.00    +0.000 C 
BRANCH  16  17
ATOM     17  C   UNL     1       2.488   2.244  20.221  0.00  0.00    +0.000 C 
BRANCH  17  19
ATOM     18  C   UNL     1       2.760   2.124  17.720  0.00  0.00    +0.000 C 
ATOM     19  C   UNL     1       1.783   2.036  18.882  0.00  0.00    +0.000 C 
ENDBRANCH  17  19
ENDBRANCH  16  17
ENDBRANCH  15  16
ENDBRANCH  14  15
ENDBRANCH  11  14
ENDBRANCH   1  11
TORSDOF 8
ENDMDL
MODEL 7
REMARK VINA RESULT:      -6.8      1.279      1.640
REMARK  Name = 
REMARK  9 active torsions:
REMARK  status: ('A' for Active; 'I' for Inactive)
REMARK    1  A    between atoms: C_1  and  C_2
REMARK    2  A    between atoms: C_2  and  C_3
REMARK    3  A    between atoms: C_3  and  C_4
REMARK    4  A    between atoms: C_4  and  C_5
REMARK    5  A    between atoms: C_5  and  C_6
REMARK    6  A    between atoms: C_6  and  S_7
REMARK    7  A    between atoms: S_7  and  O_10
REMARK    8  A    between atoms: O_10  and  C_11
REMARK    9  A    between atoms: C_14  and  N_15
REMARK                            x       y       z     vdW  Elec       q    Type
REMARK                         _______ _______ _______ _____ _____    ______ ____
ROOT
ATOM      1  O   UNL     1       4.808   5.742  16.648  0.00  0.00    +0.000 OA
ENDROOT
BRANCH   1   2
ATOM      2  C   UNL     1       3.832   5.073  17.369  0.00  0.00    +0.000 A 
ATOM      3  C   UNL     1       3.478   3.781  16.960  0.00  0.00    +0.000 A 
ATOM      4  C   UNL     1       2.481   3.064  17.650  0.00  0.00    +0.000 A 
ATOM      5  C   UNL     1       1.865   3.634  18.776  0.00  0.00    +0.000 A 
ATOM      6  C   UNL     1       2.225   4.914  19.195  0.00  0.00    +0.000 A 
ATOM      7  C   UNL     1       3.201   5.621  18.494  0.00  0.00    +0.000 A 
BRANCH   5   8
ATOM      8  N   UNL     1       0.856   2.893  19.539  0.00  0.00    +0.000 N 
ATOM      9  O   UNL     1       0.766   3.127  20.754  0.00  0.00    +0.000 OA
ATOM     10  O   UNL     1       0.146   2.082  18.929  0.00  0.00    +0.000 OA
ENDBRANCH   5   8
ENDBRANCH   1   2
BRANCH   1  11
ATOM     11  S   UNL     1       6.364   5.689  17.172  0.00  0.00    +0.000 S 
ATOM     12  O   UNL     1       6.512   4.606  18.123  0.00  0.00    +0.000 OA
ATOM     13  O   UNL     1       6.790   7.040  17.484  0.00  0.00    +0.000 OA
BRANCH  11  14
ATOM     14  C   UNL     1       7.215   5.170  15.678  0.00  0.00    +0.000 C 
BRANCH  14  15
ATOM     15  C   UNL     1       6.165   5.003  14.572  0.00  0.00    +0.000 C 
BRANCH  15  16
ATOM     16  C   UNL     1       6.152   3.619  13.930  0.00  0.00    +0.000 C 
BRANCH  16  17
ATOM     17  C   UNL     1       6.123   3.738  12.401  0.00  0.00    +0.000 C 
BRANCH  17  19
ATOM     18  C   UNL     1       3.964   3.321  11.174  0.00  0.00    +0.000 C 
ATOM     19  C   UNL     1       5.212   2.688  11.770  0.00  0.00    +0.000 C 
ENDBRANCH  17  19
ENDBRANCH  16  17
ENDBRANCH  15  16
ENDBRANCH  14  15
ENDBRANCH  11  14
ENDBRANCH   1  11
TORSDOF 8
ENDMDL
MODEL 8
REMARK VINA RESULT:      -6.7      3.552      5.464
REMARK  Name = 
REMARK  9 active torsions:
REMARK  status: ('A' for Active; 'I' for Inactive)
REMARK    1  A    between atoms: C_1  and  C_2
REMARK    2  A    between atoms: C_2  and  C_3
REMARK    3  A    between atoms: C_3  and  C_4
REMARK    4  A    between atoms: C_4  and  C_5
REMARK    5  A    between atoms: C_5  and  C_6
REMARK    6  A    between atoms: C_6  and  S_7
REMARK    7  A    between atoms: S_7  and  O_10
REMARK    8  A    between atoms: O_10  and  C_11
REMARK    9  A    between atoms: C_14  and  N_15
REMARK                            x       y       z     vdW  Elec       q    Type
REMARK                         _______ _______ _______ _____ _____    ______ ____
ROOT
ATOM      1  O   UNL     1       5.890   5.869  17.981  0.00  0.00    +0.000 OA
ENDROOT
BRANCH   1   2
ATOM      2  C   UNL     1       4.726   5.195  18.315  0.00  0.00    +0.000 A 
ATOM      3  C   UNL     1       4.554   3.893  17.826  0.00  0.00    +0.000 A 
ATOM      4  C   UNL     1       3.382   3.171  18.124  0.00  0.00    +0.000 A 
ATOM      5  C   UNL     1       2.398   3.745  18.945  0.00  0.00    +0.000 A 
ATOM      6  C   UNL     1       2.573   5.035  19.445  0.00  0.00    +0.000 A 
ATOM      7  C   UNL     1       3.729   5.747  19.129  0.00  0.00    +0.000 A 
BRANCH   5   8
ATOM      8  N   UNL     1       1.189   2.999  19.307  0.00  0.00    +0.000 N 
ATOM      9  O   UNL     1       0.838   3.013  20.497  0.00  0.00    +0.000 OA
ATOM     10  O   UNL     1       0.582   2.404  18.406  0.00  0.00    +0.000 OA
ENDBRANCH   5   8
ENDBRANCH   1   2
BRANCH   1  11
ATOM     11  S   UNL     1       7.305   5.410  18.677  0.00  0.00    +0.000 S 
ATOM     12  O   UNL     1       8.005   4.507  17.788  0.00  0.00    +0.000 OA
ATOM     13  O   UNL     1       7.044   5.065  20.062  0.00  0.00    +0.000 OA
BRANCH  11  14
ATOM     14  C   UNL     1       8.221   6.955  18.654  0.00  0.00    +0.000 C 
BRANCH  14  15
ATOM     15  C   UNL     1       7.653   7.821  17.521  0.00  0.00    +0.000 C 
BRANCH  15  16
ATOM     16  C   UNL     1       7.972   9.307  17.654  0.00  0.00    +0.000 C 
BRANCH  16  17
ATOM     17  C   UNL     1       8.902   9.549  18.850  0.00  0.00    +0.000 C 
BRANCH  17  19
ATOM     18  C   UNL     1      10.187  11.264  20.174  0.00  0.00    +0.000 C 
ATOM     19  C   UNL     1       9.345  11.009  18.933  0.00  0.00    +0.000 C 
ENDBRANCH  17  19
ENDBRANCH  16  17
ENDBRANCH  15  16
ENDBRANCH  14  15
ENDBRANCH  11  14
ENDBRANCH   1  11
TORSDOF 8
ENDMDL
MODEL 9
REMARK VINA RESULT:      -6.7      0.727      1.299
REMARK  Name = 
REMARK  9 active torsions:
REMARK  status: ('A' for Active; 'I' for Inactive)
REMARK    1  A    between atoms: C_1  and  C_2
REMARK    2  A    between atoms: C_2  and  C_3
REMARK    3  A    between atoms: C_3  and  C_4
REMARK    4  A    between atoms: C_4  and  C_5
REMARK    5  A    between atoms: C_5  and  C_6
REMARK    6  A    between atoms: C_6  and  S_7
REMARK    7  A    between atoms: S_7  and  O_10
REMARK    8  A    between atoms: O_10  and  C_11
REMARK    9  A    between atoms: C_14  and  N_15
REMARK                            x       y       z     vdW  Elec       q    Type
REMARK                         _______ _______ _______ _____ _____    ______ ____
ROOT
ATOM      1  O   UNL     1       5.880   6.149  18.027  0.00  0.00    +0.000 OA
ENDROOT
BRANCH   1   2
ATOM      2  C   UNL     1       4.789   5.355  18.344  0.00  0.00    +0.000 A 
ATOM      3  C   UNL     1       3.510   5.836  18.037  0.00  0.00    +0.000 A 
ATOM      4  C   UNL     1       2.369   5.074  18.353  0.00  0.00    +0.000 A 
ATOM      5  C   UNL     1       2.515   3.810  18.945  0.00  0.00    +0.000 A 
ATOM      6  C   UNL     1       3.788   3.321  19.239  0.00  0.00    +0.000 A 
ATOM      7  C   UNL     1       4.910   4.092  18.938  0.00  0.00    +0.000 A 
BRANCH   5   8
ATOM      8  N   UNL     1       1.346   2.977  19.244  0.00  0.00    +0.000 N 
ATOM      9  O   UNL     1       0.713   2.509  18.285  0.00  0.00    +0.000 OA
ATOM     10  O   UNL     1       1.061   2.781  20.433  0.00  0.00    +0.000 OA
ENDBRANCH   5   8
ENDBRANCH   1   2
BRANCH   1  11
ATOM     11  S   UNL     1       6.861   5.698  16.790  0.00  0.00    +0.000 S 
ATOM     12  O   UNL     1       7.452   4.410  17.092  0.00  0.00    +0.000 OA
ATOM     13  O   UNL     1       7.675   6.838  16.410  0.00  0.00    +0.000 OA
BRANCH  11  14
ATOM     14  C   UNL     1       5.663   5.412  15.483  0.00  0.00    +0.000 C 
BRANCH  14  15
ATOM     15  C   UNL     1       5.867   3.982  14.963  0.00  0.00    +0.000 C 
BRANCH  15  16
ATOM     16  C   UNL     1       6.340   3.908  13.515  0.00  0.00    +0.000 C 
BRANCH  16  17
ATOM     17  C   UNL     1       5.165   3.579  12.584  0.00  0.00    +0.000 C 
BRANCH  17  19
ATOM     18  C   UNL     1       6.997   2.331  11.388  0.00  0.00    +0.000 C 
ATOM     19  C   UNL     1       5.500   2.427  11.639  0.00  0.00    +0.000 C 
ENDBRANCH  17  19
ENDBRANCH  16  17
ENDBRANCH  15  16
ENDBRANCH  14  15
ENDBRANCH  11  14
ENDBRANCH   1  11
TORSDOF 8
ENDMDL
