MODEL 1
REMARK VINA RESULT:      -7.8      0.000      0.000
REMARK  Name = 
REMARK  7 active torsions:
REMARK  status: ('A' for Active; 'I' for Inactive)
REMARK    1  A    between atoms: C_1  and  O_2
REMARK    2  A    between atoms: O_2  and  C_3
REMARK    3  A    between atoms: C_3  and  C_5
REMARK    4  A    between atoms: C_7  and  C_8
REMARK    5  A    between atoms: C_8  and  C_9
REMARK    6  A    between atoms: C_14  and  O_15
REMARK    7  A    between atoms: O_15  and  C_16
REMARK                            x       y       z     vdW  Elec       q    Type
REMARK                         _______ _______ _______ _____ _____    ______ ____
ROOT
ATOM      1  C   UNL     1       2.739   4.336  18.717  0.00  0.00    +0.000 A 
ATOM      2  C   UNL     1       2.094   5.203  19.611  0.00  0.00    +0.000 A 
ATOM      3  C   UNL     1       2.428   6.544  19.593  0.00  0.00    +0.000 A 
ATOM      4  N   UNL     1       3.292   7.054  18.683  0.00  0.00    +0.000 NA
ATOM      5  C   UNL     1       3.870   6.241  17.789  0.00  0.00    +0.000 A 
ATOM      6  C   UNL     1       4.731   6.820  16.866  0.00  0.00    +0.000 A 
ATOM      7  C   UNL     1       5.405   6.063  15.907  0.00  0.00    +0.000 A 
ATOM      8  C   UNL     1       5.210   4.692  15.868  0.00  0.00    +0.000 A 
ATOM      9 CL   UNL     1       6.029   3.745  14.691  0.00  0.00    +0.000 Cl
ATOM     10  C   UNL     1       4.346   4.084  16.778  0.00  0.00    +0.000 A 
ATOM     11  C   UNL     1       3.653   4.847  17.758  0.00  0.00    +0.000 A 
ENDROOT
BRANCH   1  12
ATOM     12  C   UNL     1       2.503   2.873  18.867  0.00  0.00    +0.000 C 
ATOM     13  O   UNL     1       1.967   2.174  18.019  0.00  0.00    +0.000 OA
BRANCH  12  15
ATOM     14  C   UNL     1       4.383   2.150  20.055  0.00  0.00    +0.000 C 
ATOM     15  O   UNL     1       2.980   2.444  20.057  0.00  0.00    +0.000 OA
ENDBRANCH  12  15
ENDBRANCH   1  12
BRANCH   3  16
ATOM     16  C   UNL     1       1.879   7.501  20.640  0.00  0.00    +0.000 C 
BRANCH  16  17
ATOM     17  C   UNL     1       1.084   8.682  20.126  0.00  0.00    +0.000 A 
ATOM     18  C   UNL     1       1.417   9.202  18.851  0.00  0.00    +0.000 A 
ATOM     19  C   UNL     1       0.679  10.221  18.251  0.00  0.00    +0.000 A 
ATOM     20  C   UNL     1      -0.390  10.779  18.931  0.00  0.00    +0.000 A 
ATOM     21  C   UNL     1      -0.695  10.330  20.215  0.00  0.00    +0.000 A 
ATOM     22  C   UNL     1       0.036   9.298  20.833  0.00  0.00    +0.000 A 
BRANCH  22  23
ATOM     23  O   UNL     1      -0.494   8.966  22.050  0.00  0.00    +0.000 OA
ATOM     24  C   UNL     1      -0.328   9.820  23.170  0.00  0.00    +0.000 C 
ENDBRANCH  22  23
ENDBRANCH  16  17
ENDBRANCH   3  16
TORSDOF 5
ENDMDL
MODEL 2
REMARK VINA RESULT:      -7.7      3.606      7.792
REMARK  Name = 
REMARK  7 active torsions:
REMARK  status: ('A' for Active; 'I' for Inactive)
REMARK    1  A    between atoms: C_1  and  O_2
REMARK    2  A    between atoms: O_2  and  C_3
REMARK    3  A    between atoms: C_3  and  C_5
REMARK    4  A    between atoms: C_7  and  C_8
REMARK    5  A    between atoms: C_8  and  C_9
REMARK    6  A    between atoms: C_14  and  O_15
REMARK    7  A    between atoms: O_15  and  C_16
REMARK                            x       y       z     vdW  Elec       q    Type
REMARK                         _______ _______ _______ _____ _____    ______ ____
ROOT
ATOM      1  C   UNL     1       0.141   9.893  18.709  0.00  0.00    +0.000 A 
ATOM      2  C   UNL     1       1.046   9.118  17.968  0.00  0.00    +0.000 A 
ATOM      3  C   UNL     1       1.977   8.355  18.648  0.00  0.00    +0.000 A 
ATOM      4  N   UNL     1       1.983   8.270  19.999  0.00  0.00    +0.000 NA
ATOM      5  C   UNL     1       1.087   8.964  20.712  0.00  0.00    +0.000 A 
ATOM      6  C   UNL     1       1.124   8.824  22.092  0.00  0.00    +0.000 A 
ATOM      7  C   UNL     1       0.253   9.519  22.932  0.00  0.00    +0.000 A 
ATOM      8  C   UNL     1      -0.682  10.375  22.374  0.00  0.00    +0.000 A 
ATOM      9 CL   UNL     1      -1.766  11.238  23.393  0.00  0.00    +0.000 Cl
ATOM     10  C   UNL     1      -0.749  10.532  20.991  0.00  0.00    +0.000 A 
ATOM     11  C   UNL     1       0.134   9.825  20.127  0.00  0.00    +0.000 A 
ENDROOT
BRANCH   1  12
ATOM     12  C   UNL     1      -0.734  10.845  17.969  0.00  0.00    +0.000 C 
ATOM     13  O   UNL     1      -0.658  12.062  18.063  0.00  0.00    +0.000 OA
BRANCH  12  15
ATOM     14  C   UNL     1      -2.560  10.997  16.517  0.00  0.00    +0.000 C 
ATOM     15  O   UNL     1      -1.599  10.168  17.181  0.00  0.00    +0.000 OA
ENDBRANCH  12  15
ENDBRANCH   1  12
BRANCH   3  16
ATOM     16  C   UNL     1       3.078   7.618  17.901  0.00  0.00    +0.000 C 
BRANCH  16  17
ATOM     17  C   UNL     1       3.019   6.107  17.927  0.00  0.00    +0.000 A 
ATOM     18  C   UNL     1       1.743   5.492  17.901  0.00  0.00    +0.000 A 
ATOM     19  C   UNL     1       1.588   4.109  17.822  0.00  0.00    +0.000 A 
ATOM     20  C   UNL     1       2.710   3.297  17.809  0.00  0.00    +0.000 A 
ATOM     21  C   UNL     1       3.975   3.877  17.902  0.00  0.00    +0.000 A 
ATOM     22  C   UNL     1       4.149   5.271  17.978  0.00  0.00    +0.000 A 
BRANCH  22  23
ATOM     23  O   UNL     1       5.474   5.613  17.975  0.00  0.00    +0.000 OA
ATOM     24  C   UNL     1       6.286   5.375  19.113  0.00  0.00    +0.000 C 
ENDBRANCH  22  23
ENDBRANCH  16  17
ENDBRANCH   3  16
TORSDOF 5
ENDMDL
MODEL 3
REMARK VINA RESULT:      -7.6      2.427      3.746
REMARK  Name = 
REMARK  7 active torsions:
REMARK  status: ('A' for Active; 'I' for Inactive)
REMARK    1  A    between atoms: C_1  and  O_2
REMARK    2  A    between atoms: O_2  and  C_3
REMARK    3  A    between atoms: C_3  and  C_5
REMARK    4  A    between atoms: C_7  and  C_8
REMARK    5  A    between atoms: C_8  and  C_9
REMARK    6  A    between atoms: C_14  and  O_15
REMARK    7  A    between atoms: O_15  and  C_16
REMARK                            x       y       z     vdW  Elec       q    Type
REMARK                         _______ _______ _______ _____ _____    ______ ____
ROOT
ATOM      1  C   UNL     1       4.398   6.263  17.276  0.00  0.00    +0.000 A 
ATOM      2  C   UNL     1       3.852   7.543  17.447  0.00  0.00    +0.000 A 
ATOM      3  C   UNL     1       2.574   7.656  17.963  0.00  0.00    +0.000 A 
ATOM      4  N   UNL     1       1.874   6.576  18.384  0.00  0.00    +0.000 NA
ATOM      5  C   UNL     1       2.412   5.354  18.275  0.00  0.00    +0.000 A 
ATOM      6  C   UNL     1       1.660   4.285  18.742  0.00  0.00    +0.000 A 
ATOM      7  C   UNL     1       2.112   2.968  18.655  0.00  0.00    +0.000 A 
ATOM      8  C   UNL     1       3.351   2.715  18.090  0.00  0.00    +0.000 A 
ATOM      9 CL   UNL     1       3.927   1.099  17.978  0.00  0.00    +0.000 Cl
ATOM     10  C   UNL     1       4.132   3.769  17.618  0.00  0.00    +0.000 A 
ATOM     11  C   UNL     1       3.680   5.115  17.704  0.00  0.00    +0.000 A 
ENDROOT
BRANCH   1  12
ATOM     12  C   UNL     1       5.697   6.146  16.556  0.00  0.00    +0.000 C 
ATOM     13  O   UNL     1       5.808   6.138  15.338  0.00  0.00    +0.000 OA
BRANCH  12  15
ATOM     14  C   UNL     1       7.481   7.273  17.562  0.00  0.00    +0.000 C 
ATOM     15  O   UNL     1       6.715   6.068  17.441  0.00  0.00    +0.000 OA
ENDBRANCH  12  15
ENDBRANCH   1  12
BRANCH   3  16
ATOM     16  C   UNL     1       1.873   9.004  18.025  0.00  0.00    +0.000 C 
BRANCH  16  17
ATOM     17  C   UNL     1       1.102   9.308  19.292  0.00  0.00    +0.000 A 
ATOM     18  C   UNL     1       1.484   8.635  20.478  0.00  0.00    +0.000 A 
ATOM     19  C   UNL     1       0.900   8.921  21.712  0.00  0.00    +0.000 A 
ATOM     20  C   UNL     1      -0.114   9.860  21.785  0.00  0.00    +0.000 A 
ATOM     21  C   UNL     1      -0.553  10.486  20.618  0.00  0.00    +0.000 A 
ATOM     22  C   UNL     1       0.028  10.213  19.366  0.00  0.00    +0.000 A 
BRANCH  22  23
ATOM     23  O   UNL     1      -0.502  11.003  18.384  0.00  0.00    +0.000 OA
ATOM     24  C   UNL     1      -1.576  11.886  18.664  0.00  0.00    +0.000 C 
ENDBRANCH  22  23
ENDBRANCH  16  17
ENDBRANCH   3  16
TORSDOF 5
ENDMDL
MODEL 4
REMARK VINA RESULT:      -7.6      2.413      3.794
REMARK  Name = 
REMARK  7 active torsions:
REMARK  status: ('A' for Active; 'I' for Inactive)
REMARK    1  A    between atoms: C_1  and  O_2
REMARK    2  A    between atoms: O_2  and  C_3
REMARK    3  A    between atoms: C_3  and  C_5
REMARK    4  A    between atoms: C_7  and  C_8
REMARK    5  A    between atoms: C_8  and  C_9
REMARK    6  A    between atoms: C_14  and  O_15
REMARK    7  A    between atoms: O_15  and  C_16
REMARK                            x       y       z     vdW  Elec       q    Type
REMARK                         _______ _______ _______ _____ _____    ______ ____
ROOT
ATOM      1  C   UNL     1       4.477   6.181  17.342  0.00  0.00    +0.000 A 
ATOM      2  C   UNL     1       3.927   7.463  17.492  0.00  0.00    +0.000 A 
ATOM      3  C   UNL     1       2.622   7.577  17.934  0.00  0.00    +0.000 A 
ATOM      4  N   UNL     1       1.894   6.496  18.304  0.00  0.00    +0.000 NA
ATOM      5  C   UNL     1       2.432   5.273  18.215  0.00  0.00    +0.000 A 
ATOM      6  C   UNL     1       1.650   4.203  18.628  0.00  0.00    +0.000 A 
ATOM      7  C   UNL     1       2.101   2.885  18.556  0.00  0.00    +0.000 A 
ATOM      8  C   UNL     1       3.370   2.631  18.062  0.00  0.00    +0.000 A 
ATOM      9 CL   UNL     1       3.945   1.013  17.970  0.00  0.00    +0.000 Cl
ATOM     10  C   UNL     1       4.181   3.686  17.646  0.00  0.00    +0.000 A 
ATOM     11  C   UNL     1       3.731   5.033  17.718  0.00  0.00    +0.000 A 
ENDROOT
BRANCH   1  12
ATOM     12  C   UNL     1       5.816   6.064  16.699  0.00  0.00    +0.000 C 
ATOM     13  O   UNL     1       6.872   6.038  17.314  0.00  0.00    +0.000 OA
BRANCH  12  15
ATOM     14  C   UNL     1       6.432   4.911  14.761  0.00  0.00    +0.000 C 
ATOM     15  O   UNL     1       5.682   5.977  15.357  0.00  0.00    +0.000 OA
ENDBRANCH  12  15
ENDBRANCH   1  12
BRANCH   3  16
ATOM     16  C   UNL     1       1.924   8.928  17.967  0.00  0.00    +0.000 C 
BRANCH  16  17
ATOM     17  C   UNL     1       1.154   9.260  19.227  0.00  0.00    +0.000 A 
ATOM     18  C   UNL     1       1.491   8.565  20.413  0.00  0.00    +0.000 A 
ATOM     19  C   UNL     1       0.909   8.871  21.642  0.00  0.00    +0.000 A 
ATOM     20  C   UNL     1      -0.061   9.857  21.710  0.00  0.00    +0.000 A 
ATOM     21  C   UNL     1      -0.458  10.508  20.542  0.00  0.00    +0.000 A 
ATOM     22  C   UNL     1       0.123  10.215  19.295  0.00  0.00    +0.000 A 
BRANCH  22  23
ATOM     23  O   UNL     1      -0.358  11.034  18.311  0.00  0.00    +0.000 OA
ATOM     24  C   UNL     1      -1.589  11.719  18.477  0.00  0.00    +0.000 C 
ENDBRANCH  22  23
ENDBRANCH  16  17
ENDBRANCH   3  16
TORSDOF 5
ENDMDL
MODEL 5
REMARK VINA RESULT:      -7.6      3.116      6.937
REMARK  Name = 
REMARK  7 active torsions:
REMARK  status: ('A' for Active; 'I' for Inactive)
REMARK    1  A    between atoms: C_1  and  O_2
REMARK    2  A    between atoms: O_2  and  C_3
REMARK    3  A    between atoms: C_3  and  C_5
REMARK    4  A    between atoms: C_7  and  C_8
REMARK    5  A    between atoms: C_8  and  C_9
REMARK    6  A    between atoms: C_14  and  O_15
REMARK    7  A    between atoms: O_15  and  C_16
REMARK                            x       y       z     vdW  Elec       q    Type
REMARK                         _______ _______ _______ _____ _____    ______ ____
ROOT
ATOM      1  C   UNL     1       2.231   6.030  19.941  0.00  0.00    +0.000 A 
ATOM      2  C   UNL     1       3.103   5.856  18.857  0.00  0.00    +0.000 A 
ATOM      3  C   UNL     1       3.314   6.918  17.997  0.00  0.00    +0.000 A 
ATOM      4  N   UNL     1       2.771   8.138  18.222  0.00  0.00    +0.000 NA
ATOM      5  C   UNL     1       1.981   8.327  19.287  0.00  0.00    +0.000 A 
ATOM      6  C   UNL     1       1.469   9.603  19.481  0.00  0.00    +0.000 A 
ATOM      7  C   UNL     1       0.617   9.905  20.543  0.00  0.00    +0.000 A 
ATOM      8  C   UNL     1       0.271   8.905  21.437  0.00  0.00    +0.000 A 
ATOM      9 CL   UNL     1      -0.775   9.260  22.754  0.00  0.00    +0.000 Cl
ATOM     10  C   UNL     1       0.775   7.616  21.272  0.00  0.00    +0.000 A 
ATOM     11  C   UNL     1       1.646   7.299  20.193  0.00  0.00    +0.000 A 
ENDROOT
BRANCH   1  12
ATOM     12  C   UNL     1       1.875   4.832  20.753  0.00  0.00    +0.000 C 
ATOM     13  O   UNL     1       2.535   4.423  21.697  0.00  0.00    +0.000 OA
BRANCH  12  15
ATOM     14  C   UNL     1       0.880   3.004  19.689  0.00  0.00    +0.000 C 
ATOM     15  O   UNL     1       0.722   4.290  20.302  0.00  0.00    +0.000 OA
ENDBRANCH  12  15
ENDBRANCH   1  12
BRANCH   3  16
ATOM     16  C   UNL     1       4.123   6.742  16.722  0.00  0.00    +0.000 C 
BRANCH  16  17
ATOM     17  C   UNL     1       5.425   5.982  16.847  0.00  0.00    +0.000 A 
ATOM     18  C   UNL     1       6.249   6.256  17.966  0.00  0.00    +0.000 A 
ATOM     19  C   UNL     1       7.416   5.538  18.220  0.00  0.00    +0.000 A 
ATOM     20  C   UNL     1       7.815   4.550  17.335  0.00  0.00    +0.000 A 
ATOM     21  C   UNL     1       7.057   4.310  16.190  0.00  0.00    +0.000 A 
ATOM     22  C   UNL     1       5.873   5.022  15.921  0.00  0.00    +0.000 A 
BRANCH  22  23
ATOM     23  O   UNL     1       5.254   4.559  14.792  0.00  0.00    +0.000 OA
ATOM     24  C   UNL     1       5.994   3.897  13.780  0.00  0.00    +0.000 C 
ENDBRANCH  22  23
ENDBRANCH  16  17
ENDBRANCH   3  16
TORSDOF 5
ENDMDL
MODEL 6
REMARK VINA RESULT:      -7.6      0.684      1.166
REMARK  Name = 
REMARK  7 active torsions:
REMARK  status: ('A' for Active; 'I' for Inactive)
REMARK    1  A    between atoms: C_1  and  O_2
REMARK    2  A    between atoms: O_2  and  C_3
REMARK    3  A    between atoms: C_3  and  C_5
REMARK    4  A    between atoms: C_7  and  C_8
REMARK    5  A    between atoms: C_8  and  C_9
REMARK    6  A    between atoms: C_14  and  O_15
REMARK    7  A    between atoms: O_15  and  C_16
REMARK                            x       y       z     vdW  Elec       q    Type
REMARK                         _______ _______ _______ _____ _____    ______ ____
ROOT
ATOM      1  C   UNL     1       2.904   4.401  18.780  0.00  0.00    +0.000 A 
ATOM      2  C   UNL     1       2.223   5.251  19.664  0.00  0.00    +0.000 A 
ATOM      3  C   UNL     1       2.451   6.612  19.582  0.00  0.00    +0.000 A 
ATOM      4  N   UNL     1       3.242   7.149  18.624  0.00  0.00    +0.000 NA
ATOM      5  C   UNL     1       3.852   6.348  17.741  0.00  0.00    +0.000 A 
ATOM      6  C   UNL     1       4.634   6.953  16.767  0.00  0.00    +0.000 A 
ATOM      7  C   UNL     1       5.333   6.213  15.813  0.00  0.00    +0.000 A 
ATOM      8  C   UNL     1       5.245   4.830  15.833  0.00  0.00    +0.000 A 
ATOM      9 CL   UNL     1       6.097   3.902  14.664  0.00  0.00    +0.000 Cl
ATOM     10  C   UNL     1       4.462   4.195  16.796  0.00  0.00    +0.000 A 
ATOM     11  C   UNL     1       3.744   4.941  17.770  0.00  0.00    +0.000 A 
ENDROOT
BRANCH   1  12
ATOM     12  C   UNL     1       2.789   2.931  18.994  0.00  0.00    +0.000 C 
ATOM     13  O   UNL     1       3.460   2.301  19.798  0.00  0.00    +0.000 OA
BRANCH  12  15
ATOM     14  C   UNL     1       0.587   2.161  18.843  0.00  0.00    +0.000 C 
ATOM     15  O   UNL     1       1.835   2.415  18.187  0.00  0.00    +0.000 OA
ENDBRANCH  12  15
ENDBRANCH   1  12
BRANCH   3  16
ATOM     16  C   UNL     1       1.863   7.565  20.612  0.00  0.00    +0.000 C 
BRANCH  16  17
ATOM     17  C   UNL     1       1.232   8.832  20.077  0.00  0.00    +0.000 A 
ATOM     18  C   UNL     1       1.018   8.928  18.680  0.00  0.00    +0.000 A 
ATOM     19  C   UNL     1       0.353  10.011  18.105  0.00  0.00    +0.000 A 
ATOM     20  C   UNL     1      -0.080  11.050  18.911  0.00  0.00    +0.000 A 
ATOM     21  C   UNL     1       0.180  11.009  20.281  0.00  0.00    +0.000 A 
ATOM     22  C   UNL     1       0.845   9.922  20.877  0.00  0.00    +0.000 A 
BRANCH  22  23
ATOM     23  O   UNL     1       0.911  10.058  22.237  0.00  0.00    +0.000 OA
ATOM     24  C   UNL     1      -0.183   9.680  23.057  0.00  0.00    +0.000 C 
ENDBRANCH  22  23
ENDBRANCH  16  17
ENDBRANCH   3  16
TORSDOF 5
ENDMDL
MODEL 7
REMARK VINA RESULT:      -7.5      3.637      7.777
REMARK  Name = 
REMARK  7 active torsions:
REMARK  status: ('A' for Active; 'I' for Inactive)
REMARK    1  A    between atoms: C_1  and  O_2
REMARK    2  A    between atoms: O_2  and  C_3
REMARK    3  A    between atoms: C_3  and  C_5
REMARK    4  A    between atoms: C_7  and  C_8
REMARK    5  A    between atoms: C_8  and  C_9
REMARK    6  A    between atoms: C_14  and  O_15
REMARK    7  A    between atoms: O_15  and  C_16
REMARK                            x       y       z     vdW  Elec       q    Type
REMARK                         _______ _______ _______ _____ _____    ______ ____
ROOT
ATOM      1  C   UNL     1       1.199  10.469  18.910  0.00  0.00    +0.000 A 
ATOM      2  C   UNL     1       1.917   9.537  18.145  0.00  0.00    +0.000 A 
ATOM      3  C   UNL     1       2.198   8.302  18.698  0.00  0.00    +0.000 A 
ATOM      4  N   UNL     1       1.729   7.939  19.915  0.00  0.00    +0.000 NA
ATOM      5  C   UNL     1       0.996   8.804  20.628  0.00  0.00    +0.000 A 
ATOM      6  C   UNL     1       0.523   8.372  21.861  0.00  0.00    +0.000 A 
ATOM      7  C   UNL     1      -0.229   9.199  22.696  0.00  0.00    +0.000 A 
ATOM      8  C   UNL     1      -0.518  10.490  22.286  0.00  0.00    +0.000 A 
ATOM      9 CL   UNL     1      -1.447  11.521  23.300  0.00  0.00    +0.000 Cl
ATOM     10  C   UNL     1      -0.063  10.949  21.051  0.00  0.00    +0.000 A 
ATOM     11  C   UNL     1       0.703  10.113  20.191  0.00  0.00    +0.000 A 
ENDROOT
BRANCH   1  12
ATOM     12  C   UNL     1       1.058  11.852  18.376  0.00  0.00    +0.000 C 
ATOM     13  O   UNL     1      -0.015  12.398  18.160  0.00  0.00    +0.000 OA
BRANCH  12  15
ATOM     14  C   UNL     1       2.610  13.428  19.133  0.00  0.00    +0.000 C 
ATOM     15  O   UNL     1       2.276  12.406  18.186  0.00  0.00    +0.000 OA
ENDBRANCH  12  15
ENDBRANCH   1  12
BRANCH   3  16
ATOM     16  C   UNL     1       3.102   7.312  17.980  0.00  0.00    +0.000 C 
BRANCH  16  17
ATOM     17  C   UNL     1       2.927   5.853  18.338  0.00  0.00    +0.000 A 
ATOM     18  C   UNL     1       1.786   5.179  17.837  0.00  0.00    +0.000 A 
ATOM     19  C   UNL     1       1.590   3.812  18.029  0.00  0.00    +0.000 A 
ATOM     20  C   UNL     1       2.512   3.088  18.767  0.00  0.00    +0.000 A 
ATOM     21  C   UNL     1       3.607   3.744  19.327  0.00  0.00    +0.000 A 
ATOM     22  C   UNL     1       3.823   5.121  19.139  0.00  0.00    +0.000 A 
BRANCH  22  23
ATOM     23  O   UNL     1       5.000   5.527  19.706  0.00  0.00    +0.000 OA
ATOM     24  C   UNL     1       6.232   5.341  19.029  0.00  0.00    +0.000 C 
ENDBRANCH  22  23
ENDBRANCH  16  17
ENDBRANCH   3  16
TORSDOF 5
ENDMDL
MODEL 8
REMARK VINA RESULT:      -7.5      3.623      7.903
REMARK  Name = 
REMARK  7 active torsions:
REMARK  status: ('A' for Active; 'I' for Inactive)
REMARK    1  A    between atoms: C_1  and  O_2
REMARK    2  A    between atoms: O_2  and  C_3
REMARK    3  A    between atoms: C_3  and  C_5
REMARK    4  A    between atoms: C_7  and  C_8
REMARK    5  A    between atoms: C_8  and  C_9
REMARK    6  A    between atoms: C_14  and  O_15
REMARK    7  A    between atoms: O_15  and  C_16
REMARK                            x       y       z     vdW  Elec       q    Type
REMARK                         _______ _______ _______ _____ _____    ______ ____
ROOT
ATOM      1  C   UNL     1       0.280  10.130  18.755  0.00  0.00    +0.000 A 
ATOM      2  C   UNL     1       1.142   9.335  17.985  0.00  0.00    +0.000 A 
ATOM      3  C   UNL     1       1.966   8.432  18.632  0.00  0.00    +0.000 A 
ATOM      4  N   UNL     1       1.902   8.237  19.970  0.00  0.00    +0.000 NA
ATOM      5  C   UNL     1       1.042   8.954  20.705  0.00  0.00    +0.000 A 
ATOM      6  C   UNL     1       1.003   8.698  22.069  0.00  0.00    +0.000 A 
ATOM      7  C   UNL     1       0.162   9.402  22.931  0.00  0.00    +0.000 A 
ATOM      8  C   UNL     1      -0.664  10.387  22.414  0.00  0.00    +0.000 A 
ATOM      9 CL   UNL     1      -1.709  11.263  23.460  0.00  0.00    +0.000 Cl
ATOM     10  C   UNL     1      -0.651  10.662  21.047  0.00  0.00    +0.000 A 
ATOM     11  C   UNL     1       0.200   9.947  20.160  0.00  0.00    +0.000 A 
ENDROOT
BRANCH   1  12
ATOM     12  C   UNL     1      -0.469  11.219  18.067  0.00  0.00    +0.000 C 
ATOM     13  O   UNL     1      -1.560  11.070  17.534  0.00  0.00    +0.000 OA
BRANCH  12  15
ATOM     14  C   UNL     1      -0.556  13.503  18.559  0.00  0.00    +0.000 C 
ATOM     15  O   UNL     1       0.224  12.378  18.136  0.00  0.00    +0.000 OA
ENDBRANCH  12  15
ENDBRANCH   1  12
BRANCH   3  16
ATOM     16  C   UNL     1       3.028   7.658  17.867  0.00  0.00    +0.000 C 
BRANCH  16  17
ATOM     17  C   UNL     1       3.006   6.152  18.018  0.00  0.00    +0.000 A 
ATOM     18  C   UNL     1       1.761   5.489  17.884  0.00  0.00    +0.000 A 
ATOM     19  C   UNL     1       1.656   4.099  17.908  0.00  0.00    +0.000 A 
ATOM     20  C   UNL     1       2.792   3.333  18.109  0.00  0.00    +0.000 A 
ATOM     21  C   UNL     1       4.018   3.966  18.312  0.00  0.00    +0.000 A 
ATOM     22  C   UNL     1       4.142   5.367  18.287  0.00  0.00    +0.000 A 
BRANCH  22  23
ATOM     23  O   UNL     1       5.446   5.758  18.422  0.00  0.00    +0.000 OA
ATOM     24  C   UNL     1       6.504   4.835  18.220  0.00  0.00    +0.000 C 
ENDBRANCH  22  23
ENDBRANCH  16  17
ENDBRANCH   3  16
TORSDOF 5
ENDMDL
MODEL 9
REMARK VINA RESULT:      -7.4      1.283      1.629
REMARK  Name = 
REMARK  7 active torsions:
REMARK  status: ('A' for Active; 'I' for Inactive)
REMARK    1  A    between atoms: C_1  and  O_2
REMARK    2  A    between atoms: O_2  and  C_3
REMARK    3  A    between atoms: C_3  and  C_5
REMARK    4  A    between atoms: C_7  and  C_8
REMARK    5  A    between atoms: C_8  and  C_9
REMARK    6  A    between atoms: C_14  and  O_15
REMARK    7  A    between atoms: O_15  and  C_16
REMARK                            x       y       z     vdW  Elec       q    Type
REMARK                         _______ _______ _______ _____ _____    ______ ____
ROOT
ATOM      1  C   UNL     1       2.223   4.924  19.896  0.00  0.00    +0.000 A 
ATOM      2  C   UNL     1       1.560   5.906  20.647  0.00  0.00    +0.000 A 
ATOM      3  C   UNL     1       1.806   7.237  20.363  0.00  0.00    +0.000 A 
ATOM      4  N   UNL     1       2.598   7.614  19.332  0.00  0.00    +0.000 NA
ATOM      5  C   UNL     1       3.191   6.681  18.575  0.00  0.00    +0.000 A 
ATOM      6  C   UNL     1       3.975   7.123  17.518  0.00  0.00    +0.000 A 
ATOM      7  C   UNL     1       4.657   6.239  16.682  0.00  0.00    +0.000 A 
ATOM      8  C   UNL     1       4.550   4.876  16.908  0.00  0.00    +0.000 A 
ATOM      9 CL   UNL     1       5.380   3.772  15.885  0.00  0.00    +0.000 Cl
ATOM     10  C   UNL     1       3.764   4.402  17.958  0.00  0.00    +0.000 A 
ATOM     11  C   UNL     1       3.063   5.296  18.814  0.00  0.00    +0.000 A 
ENDROOT
BRANCH   1  12
ATOM     12  C   UNL     1       2.088   3.504  20.327  0.00  0.00    +0.000 C 
ATOM     13  O   UNL     1       2.967   2.876  20.899  0.00  0.00    +0.000 OA
BRANCH  12  15
ATOM     14  C   UNL     1       0.816   2.318  18.765  0.00  0.00    +0.000 C 
ATOM     15  O   UNL     1       0.863   3.034  20.006  0.00  0.00    +0.000 OA
ENDBRANCH  12  15
ENDBRANCH   1  12
BRANCH   3  16
ATOM     16  C   UNL     1       1.239   8.341  21.242  0.00  0.00    +0.000 C 
BRANCH  16  17
ATOM     17  C   UNL     1       0.454   9.428  20.540  0.00  0.00    +0.000 A 
ATOM     18  C   UNL     1       0.481   9.456  19.124  0.00  0.00    +0.000 A 
ATOM     19  C   UNL     1      -0.288  10.356  18.387  0.00  0.00    +0.000 A 
ATOM     20  C   UNL     1      -1.075  11.282  19.050  0.00  0.00    +0.000 A 
ATOM     21  C   UNL     1      -1.065  11.318  20.444  0.00  0.00    +0.000 A 
ATOM     22  C   UNL     1      -0.298  10.414  21.203  0.00  0.00    +0.000 A 
BRANCH  22  23
ATOM     23  O   UNL     1      -0.511  10.579  22.544  0.00  0.00    +0.000 OA
ATOM     24  C   UNL     1      -1.474  11.506  23.017  0.00  0.00    +0.000 C 
ENDBRANCH  22  23
ENDBRANCH  16  17
ENDBRANCH   3  16
TORSDOF 5
ENDMDL
