MODEL 1
REMARK VINA RESULT:      -7.8      0.000      0.000
REMARK  Name = 
REMARK  4 active torsions:
REMARK  status: ('A' for Active; 'I' for Inactive)
REMARK    1  A    between atoms: C_1  and  C_2
REMARK    2  A    between atoms: C_2  and  C_4
REMARK    3  A    between atoms: C_4  and  N_5
REMARK    4  A    between atoms: N_8  and  C_9
REMARK                            x       y       z     vdW  Elec       q    Type
REMARK                         _______ _______ _______ _____ _____    ______ ____
ROOT
ATOM      1  N   UNL     1       5.306   4.598  17.647  0.00  0.00    +0.000 N 
ATOM      2  C   UNL     1       4.957   5.903  18.053  0.00  0.00    +0.000 A 
ATOM      3  O   UNL     1       5.662   6.889  17.886  0.00  0.00    +0.000 OA
ATOM      4  N   UNL     1       3.675   5.817  18.645  0.00  0.00    +0.000 N 
ATOM      5  C   UNL     1       3.226   4.477  18.531  0.00  0.00    +0.000 A 
ATOM      6  N   UNL     1       2.023   3.973  18.859  0.00  0.00    +0.000 NA
ATOM      7  C   UNL     1       1.824   2.680  18.521  0.00  0.00    +0.000 A 
ATOM      8  C   UNL     1       2.767   1.888  17.863  0.00  0.00    +0.000 A 
ATOM      9  C   UNL     1       4.009   2.437  17.535  0.00  0.00    +0.000 A 
ATOM     10  C   UNL     1       4.224   3.751  17.887  0.00  0.00    +0.000 A 
ENDROOT
BRANCH   4  11
ATOM     11  C   UNL     1       2.749   6.859  18.848  0.00  0.00    +0.000 A 
ATOM     12  C   UNL     1       2.121   7.006  20.111  0.00  0.00    +0.000 A 
ATOM     13  C   UNL     1       1.475   8.198  20.453  0.00  0.00    +0.000 A 
ATOM     14  C   UNL     1       1.445   9.200  19.514  0.00  0.00    +0.000 A 
ATOM     15  C   UNL     1       1.947   9.019  18.247  0.00  0.00    +0.000 A 
ATOM     16  C   UNL     1       2.565   7.850  17.873  0.00  0.00    +0.000 A 
ATOM     17  O   UNL     1       1.847  10.142  17.484  0.00  0.00    +0.000 OA
ATOM     18  C   UNL     1       1.517  11.099  18.510  0.00  0.00    +0.000 C 
ATOM     19  O   UNL     1       1.009  10.475  19.709  0.00  0.00    +0.000 OA
ENDBRANCH   4  11
BRANCH   1  20
ATOM     20  C   UNL     1       6.537   4.270  16.986  0.00  0.00    +0.000 C 
BRANCH  20  22
ATOM     21  C   UNL     1       5.543   4.308  14.612  0.00  0.00    +0.000 C 
ATOM     22  C   UNL     1       6.573   4.839  15.575  0.00  0.00    +0.000 C 
ATOM     23  O   UNL     1       7.391   5.696  15.233  0.00  0.00    +0.000 OA
ENDBRANCH  20  22
ENDBRANCH   1  20
TORSDOF 3
ENDMDL
MODEL 2
REMARK VINA RESULT:      -7.8      2.253      3.863
REMARK  Name = 
REMARK  4 active torsions:
REMARK  status: ('A' for Active; 'I' for Inactive)
REMARK    1  A    between atoms: C_1  and  C_2
REMARK    2  A    between atoms: C_2  and  C_4
REMARK    3  A    between atoms: C_4  and  N_5
REMARK    4  A    between atoms: N_8  and  C_9
REMARK                            x       y       z     vdW  Elec       q    Type
REMARK                         _______ _______ _______ _____ _____    ______ ____
ROOT
ATOM      1  N   UNL     1       3.612   4.058  18.389  0.00  0.00    +0.000 N 
ATOM      2  C   UNL     1       2.542   4.945  18.629  0.00  0.00    +0.000 A 
ATOM      3  O   UNL     1       1.461   4.611  19.095  0.00  0.00    +0.000 OA
ATOM      4  N   UNL     1       2.985   6.232  18.246  0.00  0.00    +0.000 N 
ATOM      5  C   UNL     1       4.341   6.130  17.844  0.00  0.00    +0.000 A 
ATOM      6  N   UNL     1       5.185   7.122  17.509  0.00  0.00    +0.000 NA
ATOM      7  C   UNL     1       6.465   6.746  17.292  0.00  0.00    +0.000 A 
ATOM      8  C   UNL     1       6.927   5.434  17.410  0.00  0.00    +0.000 A 
ATOM      9  C   UNL     1       6.027   4.422  17.759  0.00  0.00    +0.000 A 
ATOM     10  C   UNL     1       4.719   4.796  17.970  0.00  0.00    +0.000 A 
ENDROOT
BRANCH   4  11
ATOM     11  C   UNL     1       2.455   7.477  18.638  0.00  0.00    +0.000 A 
ATOM     12  C   UNL     1       2.105   8.435  17.652  0.00  0.00    +0.000 A 
ATOM     13  C   UNL     1       1.279   9.517  17.969  0.00  0.00    +0.000 A 
ATOM     14  C   UNL     1       0.848   9.632  19.268  0.00  0.00    +0.000 A 
ATOM     15  C   UNL     1       1.281   8.775  20.253  0.00  0.00    +0.000 A 
ATOM     16  C   UNL     1       2.114   7.717  19.976  0.00  0.00    +0.000 A 
ATOM     17  O   UNL     1       0.712   9.042  21.460  0.00  0.00    +0.000 OA
ATOM     18  C   UNL     1      -0.329   9.945  21.040  0.00  0.00    +0.000 C 
ATOM     19  O   UNL     1      -0.078  10.513  19.737  0.00  0.00    +0.000 OA
ENDBRANCH   4  11
BRANCH   1  20
ATOM     20  C   UNL     1       3.560   2.650  18.664  0.00  0.00    +0.000 C 
BRANCH  20  22
ATOM     21  C   UNL     1       2.997   2.550  21.175  0.00  0.00    +0.000 C 
ATOM     22  C   UNL     1       4.018   2.351  20.085  0.00  0.00    +0.000 C 
ATOM     23  O   UNL     1       5.159   1.957  20.337  0.00  0.00    +0.000 OA
ENDBRANCH  20  22
ENDBRANCH   1  20
TORSDOF 3
ENDMDL
MODEL 3
REMARK VINA RESULT:      -7.7      1.130      1.914
REMARK  Name = 
REMARK  4 active torsions:
REMARK  status: ('A' for Active; 'I' for Inactive)
REMARK    1  A    between atoms: C_1  and  C_2
REMARK    2  A    between atoms: C_2  and  C_4
REMARK    3  A    between atoms: C_4  and  N_5
REMARK    4  A    between atoms: N_8  and  C_9
REMARK                            x       y       z     vdW  Elec       q    Type
REMARK                         _______ _______ _______ _____ _____    ______ ____
ROOT
ATOM      1  N   UNL     1       4.474   4.891  16.838  0.00  0.00    +0.000 N 
ATOM      2  C   UNL     1       4.406   6.242  17.239  0.00  0.00    +0.000 A 
ATOM      3  O   UNL     1       5.099   7.135  16.771  0.00  0.00    +0.000 OA
ATOM      4  N   UNL     1       3.404   6.322  18.234  0.00  0.00    +0.000 N 
ATOM      5  C   UNL     1       2.822   5.038  18.379  0.00  0.00    +0.000 A 
ATOM      6  N   UNL     1       1.764   4.685  19.131  0.00  0.00    +0.000 NA
ATOM      7  C   UNL     1       1.343   3.410  18.978  0.00  0.00    +0.000 A 
ATOM      8  C   UNL     1       1.926   2.492  18.102  0.00  0.00    +0.000 A 
ATOM      9  C   UNL     1       3.025   2.886  17.333  0.00  0.00    +0.000 A 
ATOM     10  C   UNL     1       3.467   4.180  17.492  0.00  0.00    +0.000 A 
ENDROOT
BRANCH   4  11
ATOM     11  C   UNL     1       2.704   7.469  18.659  0.00  0.00    +0.000 A 
ATOM     12  C   UNL     1       2.250   8.412  17.701  0.00  0.00    +0.000 A 
ATOM     13  C   UNL     1       1.280   9.361  18.036  0.00  0.00    +0.000 A 
ATOM     14  C   UNL     1       0.809   9.363  19.326  0.00  0.00    +0.000 A 
ATOM     15  C   UNL     1       1.330   8.531  20.289  0.00  0.00    +0.000 A 
ATOM     16  C   UNL     1       2.303   7.605  19.995  0.00  0.00    +0.000 A 
ATOM     17  O   UNL     1       0.704   8.670  21.489  0.00  0.00    +0.000 OA
ATOM     18  C   UNL     1      -0.438   9.443  21.075  0.00  0.00    +0.000 C 
ATOM     19  O   UNL     1      -0.237  10.094  19.802  0.00  0.00    +0.000 OA
ENDBRANCH   4  11
BRANCH   1  20
ATOM     20  C   UNL     1       5.368   4.401  15.828  0.00  0.00    +0.000 C 
BRANCH  20  22
ATOM     21  C   UNL     1       7.356   4.488  17.462  0.00  0.00    +0.000 C 
ATOM     22  C   UNL     1       6.801   4.835  16.105  0.00  0.00    +0.000 C 
ATOM     23  O   UNL     1       7.480   5.430  15.265  0.00  0.00    +0.000 OA
ENDBRANCH  20  22
ENDBRANCH   1  20
TORSDOF 3
ENDMDL
MODEL 4
REMARK VINA RESULT:      -7.7      0.839      1.112
REMARK  Name = 
REMARK  4 active torsions:
REMARK  status: ('A' for Active; 'I' for Inactive)
REMARK    1  A    between atoms: C_1  and  C_2
REMARK    2  A    between atoms: C_2  and  C_4
REMARK    3  A    between atoms: C_4  and  N_5
REMARK    4  A    between atoms: N_8  and  C_9
REMARK                            x       y       z     vdW  Elec       q    Type
REMARK                         _______ _______ _______ _____ _____    ______ ____
ROOT
ATOM      1  N   UNL     1       4.529   5.032  17.005  0.00  0.00    +0.000 N 
ATOM      2  C   UNL     1       4.243   6.317  17.513  0.00  0.00    +0.000 A 
ATOM      3  O   UNL     1       4.808   7.341  17.152  0.00  0.00    +0.000 OA
ATOM      4  N   UNL     1       3.207   6.160  18.461  0.00  0.00    +0.000 N 
ATOM      5  C   UNL     1       2.821   4.796  18.473  0.00  0.00    +0.000 A 
ATOM      6  N   UNL     1       1.804   4.225  19.142  0.00  0.00    +0.000 NA
ATOM      7  C   UNL     1       1.587   2.920  18.865  0.00  0.00    +0.000 A 
ATOM      8  C   UNL     1       2.332   2.180  17.945  0.00  0.00    +0.000 A 
ATOM      9  C   UNL     1       3.384   2.799  17.264  0.00  0.00    +0.000 A 
ATOM     10  C   UNL     1       3.619   4.125  17.550  0.00  0.00    +0.000 A 
ENDROOT
BRANCH   4  11
ATOM     11  C   UNL     1       2.326   7.148  18.945  0.00  0.00    +0.000 A 
ATOM     12  C   UNL     1       1.927   7.129  20.307  0.00  0.00    +0.000 A 
ATOM     13  C   UNL     1       1.346   8.256  20.896  0.00  0.00    +0.000 A 
ATOM     14  C   UNL     1       1.150   9.361  20.105  0.00  0.00    +0.000 A 
ATOM     15  C   UNL     1       1.424   9.344  18.757  0.00  0.00    +0.000 A 
ATOM     16  C   UNL     1       1.972   8.242  18.144  0.00  0.00    +0.000 A 
ATOM     17  O   UNL     1       1.190  10.547  18.165  0.00  0.00    +0.000 OA
ATOM     18  C   UNL     1       1.040  11.367  19.340  0.00  0.00    +0.000 C 
ATOM     19  O   UNL     1       0.750  10.593  20.524  0.00  0.00    +0.000 OA
ENDBRANCH   4  11
BRANCH   1  20
ATOM     20  C   UNL     1       5.521   4.772  16.002  0.00  0.00    +0.000 C 
BRANCH  20  22
ATOM     21  C   UNL     1       7.395   4.601  17.758  0.00  0.00    +0.000 C 
ATOM     22  C   UNL     1       6.903   5.206  16.469  0.00  0.00    +0.000 C 
ATOM     23  O   UNL     1       7.592   6.002  15.828  0.00  0.00    +0.000 OA
ENDBRANCH  20  22
ENDBRANCH   1  20
TORSDOF 3
ENDMDL
MODEL 5
REMARK VINA RESULT:      -7.5      2.604      6.387
REMARK  Name = 
REMARK  4 active torsions:
REMARK  status: ('A' for Active; 'I' for Inactive)
REMARK    1  A    between atoms: C_1  and  C_2
REMARK    2  A    between atoms: C_2  and  C_4
REMARK    3  A    between atoms: C_4  and  N_5
REMARK    4  A    between atoms: N_8  and  C_9
REMARK                            x       y       z     vdW  Elec       q    Type
REMARK                         _______ _______ _______ _____ _____    ______ ____
ROOT
ATOM      1  N   UNL     1       3.270   5.096  20.052  0.00  0.00    +0.000 N 
ATOM      2  C   UNL     1       4.231   4.312  19.380  0.00  0.00    +0.000 A 
ATOM      3  O   UNL     1       4.566   3.187  19.725  0.00  0.00    +0.000 OA
ATOM      4  N   UNL     1       4.677   5.073  18.275  0.00  0.00    +0.000 N 
ATOM      5  C   UNL     1       3.934   6.281  18.241  0.00  0.00    +0.000 A 
ATOM      6  N   UNL     1       3.954   7.242  17.302  0.00  0.00    +0.000 NA
ATOM      7  C   UNL     1       3.043   8.228  17.462  0.00  0.00    +0.000 A 
ATOM      8  C   UNL     1       2.117   8.277  18.505  0.00  0.00    +0.000 A 
ATOM      9  C   UNL     1       2.120   7.264  19.469  0.00  0.00    +0.000 A 
ATOM     10  C   UNL     1       3.053   6.263  19.319  0.00  0.00    +0.000 A 
ENDROOT
BRANCH   4  11
ATOM     11  C   UNL     1       5.319   4.605  17.111  0.00  0.00    +0.000 A 
ATOM     12  C   UNL     1       4.667   3.658  16.280  0.00  0.00    +0.000 A 
ATOM     13  C   UNL     1       5.108   3.432  14.972  0.00  0.00    +0.000 A 
ATOM     14  C   UNL     1       6.205   4.135  14.539  0.00  0.00    +0.000 A 
ATOM     15  C   UNL     1       6.912   4.964  15.377  0.00  0.00    +0.000 A 
ATOM     16  C   UNL     1       6.518   5.186  16.675  0.00  0.00    +0.000 A 
ATOM     17  O   UNL     1       7.942   5.588  14.744  0.00  0.00    +0.000 OA
ATOM     18  C   UNL     1       7.600   5.287  13.377  0.00  0.00    +0.000 C 
ATOM     19  O   UNL     1       6.687   4.174  13.265  0.00  0.00    +0.000 OA
ENDBRANCH   4  11
BRANCH   1  20
ATOM     20  C   UNL     1       2.568   4.665  21.228  0.00  0.00    +0.000 C 
BRANCH  20  22
ATOM     21  C   UNL     1       1.400   2.418  21.692  0.00  0.00    +0.000 C 
ATOM     22  C   UNL     1       1.459   3.682  20.876  0.00  0.00    +0.000 C 
ATOM     23  O   UNL     1       0.643   3.908  19.979  0.00  0.00    +0.000 OA
ENDBRANCH  20  22
ENDBRANCH   1  20
TORSDOF 3
ENDMDL
MODEL 6
REMARK VINA RESULT:      -7.4      2.330      3.800
REMARK  Name = 
REMARK  4 active torsions:
REMARK  status: ('A' for Active; 'I' for Inactive)
REMARK    1  A    between atoms: C_1  and  C_2
REMARK    2  A    between atoms: C_2  and  C_4
REMARK    3  A    between atoms: C_4  and  N_5
REMARK    4  A    between atoms: N_8  and  C_9
REMARK                            x       y       z     vdW  Elec       q    Type
REMARK                         _______ _______ _______ _____ _____    ______ ____
ROOT
ATOM      1  N   UNL     1       3.392   4.322  19.329  0.00  0.00    +0.000 N 
ATOM      2  C   UNL     1       2.366   5.257  19.582  0.00  0.00    +0.000 A 
ATOM      3  O   UNL     1       1.429   5.061  20.344  0.00  0.00    +0.000 OA
ATOM      4  N   UNL     1       2.663   6.406  18.814  0.00  0.00    +0.000 N 
ATOM      5  C   UNL     1       3.900   6.191  18.156  0.00  0.00    +0.000 A 
ATOM      6  N   UNL     1       4.609   7.059  17.414  0.00  0.00    +0.000 NA
ATOM      7  C   UNL     1       5.824   6.623  17.013  0.00  0.00    +0.000 A 
ATOM      8  C   UNL     1       6.352   5.372  17.335  0.00  0.00    +0.000 A 
ATOM      9  C   UNL     1       5.593   4.488  18.107  0.00  0.00    +0.000 A 
ATOM     10  C   UNL     1       4.350   4.921  18.509  0.00  0.00    +0.000 A 
ENDROOT
BRANCH   4  11
ATOM     11  C   UNL     1       2.183   7.717  19.005  0.00  0.00    +0.000 A 
ATOM     12  C   UNL     1       1.895   8.533  17.881  0.00  0.00    +0.000 A 
ATOM     13  C   UNL     1       1.114   9.684  18.014  0.00  0.00    +0.000 A 
ATOM     14  C   UNL     1       0.664  10.007  19.271  0.00  0.00    +0.000 A 
ATOM     15  C   UNL     1       1.038   9.288  20.381  0.00  0.00    +0.000 A 
ATOM     16  C   UNL     1       1.827   8.166  20.285  0.00  0.00    +0.000 A 
ATOM     17  O   UNL     1       0.459   9.754  21.521  0.00  0.00    +0.000 OA
ATOM     18  C   UNL     1      -0.532  10.628  20.946  0.00  0.00    +0.000 C 
ATOM     19  O   UNL     1      -0.230  10.987  19.581  0.00  0.00    +0.000 OA
ENDBRANCH   4  11
BRANCH   1  20
ATOM     20  C   UNL     1       3.458   3.024  19.937  0.00  0.00    +0.000 C 
BRANCH  20  22
ATOM     21  C   UNL     1       1.462   1.934  18.731  0.00  0.00    +0.000 C 
ATOM     22  C   UNL     1       2.945   1.947  18.991  0.00  0.00    +0.000 C 
ATOM     23  O   UNL     1       3.699   1.132  18.455  0.00  0.00    +0.000 OA
ENDBRANCH  20  22
ENDBRANCH   1  20
TORSDOF 3
ENDMDL
MODEL 7
REMARK VINA RESULT:      -7.3      1.556      2.242
REMARK  Name = 
REMARK  4 active torsions:
REMARK  status: ('A' for Active; 'I' for Inactive)
REMARK    1  A    between atoms: C_1  and  C_2
REMARK    2  A    between atoms: C_2  and  C_4
REMARK    3  A    between atoms: C_4  and  N_5
REMARK    4  A    between atoms: N_8  and  C_9
REMARK                            x       y       z     vdW  Elec       q    Type
REMARK                         _______ _______ _______ _____ _____    ______ ____
ROOT
ATOM      1  N   UNL     1       3.924   4.830  17.722  0.00  0.00    +0.000 N 
ATOM      2  C   UNL     1       3.887   6.237  17.806  0.00  0.00    +0.000 A 
ATOM      3  O   UNL     1       4.540   6.988  17.094  0.00  0.00    +0.000 OA
ATOM      4  N   UNL     1       2.965   6.560  18.828  0.00  0.00    +0.000 N 
ATOM      5  C   UNL     1       2.396   5.353  19.309  0.00  0.00    +0.000 A 
ATOM      6  N   UNL     1       1.401   5.200  20.199  0.00  0.00    +0.000 NA
ATOM      7  C   UNL     1       0.970   3.931  20.375  0.00  0.00    +0.000 A 
ATOM      8  C   UNL     1       1.484   2.828  19.692  0.00  0.00    +0.000 A 
ATOM      9  C   UNL     1       2.520   3.016  18.773  0.00  0.00    +0.000 A 
ATOM     10  C   UNL     1       2.972   4.305  18.597  0.00  0.00    +0.000 A 
ENDROOT
BRANCH   4  11
ATOM     11  C   UNL     1       2.298   7.785  19.030  0.00  0.00    +0.000 A 
ATOM     12  C   UNL     1       1.869   8.546  17.912  0.00  0.00    +0.000 A 
ATOM     13  C   UNL     1       0.927   9.568  18.062  0.00  0.00    +0.000 A 
ATOM     14  C   UNL     1       0.460   9.824  19.328  0.00  0.00    +0.000 A 
ATOM     15  C   UNL     1       0.960   9.172  20.430  0.00  0.00    +0.000 A 
ATOM     16  C   UNL     1       1.905   8.180  20.317  0.00  0.00    +0.000 A 
ATOM     17  O   UNL     1       0.341   9.549  21.582  0.00  0.00    +0.000 OA
ATOM     18  C   UNL     1      -0.780  10.264  21.027  0.00  0.00    +0.000 C 
ATOM     19  O   UNL     1      -0.564  10.660  19.656  0.00  0.00    +0.000 OA
ENDBRANCH   4  11
BRANCH   1  20
ATOM     20  C   UNL     1       4.738   4.106  16.787  0.00  0.00    +0.000 C 
BRANCH  20  22
ATOM     21  C   UNL     1       7.084   4.642  15.872  0.00  0.00    +0.000 C 
ATOM     22  C   UNL     1       6.219   4.324  17.063  0.00  0.00    +0.000 C 
ATOM     23  O   UNL     1       6.691   4.256  18.200  0.00  0.00    +0.000 OA
ENDBRANCH  20  22
ENDBRANCH   1  20
TORSDOF 3
ENDMDL
MODEL 8
REMARK VINA RESULT:      -7.2      1.529      1.851
REMARK  Name = 
REMARK  4 active torsions:
REMARK  status: ('A' for Active; 'I' for Inactive)
REMARK    1  A    between atoms: C_1  and  C_2
REMARK    2  A    between atoms: C_2  and  C_4
REMARK    3  A    between atoms: C_4  and  N_5
REMARK    4  A    between atoms: N_8  and  C_9
REMARK                            x       y       z     vdW  Elec       q    Type
REMARK                         _______ _______ _______ _____ _____    ______ ____
ROOT
ATOM      1  N   UNL     1       3.753   5.085  17.907  0.00  0.00    +0.000 N 
ATOM      2  C   UNL     1       3.573   6.456  18.188  0.00  0.00    +0.000 A 
ATOM      3  O   UNL     1       4.119   7.363  17.573  0.00  0.00    +0.000 OA
ATOM      4  N   UNL     1       2.661   6.536  19.265  0.00  0.00    +0.000 N 
ATOM      5  C   UNL     1       2.238   5.221  19.584  0.00  0.00    +0.000 A 
ATOM      6  N   UNL     1       1.296   4.841  20.466  0.00  0.00    +0.000 NA
ATOM      7  C   UNL     1       1.006   3.521  20.472  0.00  0.00    +0.000 A 
ATOM      8  C   UNL     1       1.605   2.583  19.630  0.00  0.00    +0.000 A 
ATOM      9  C   UNL     1       2.582   3.005  18.724  0.00  0.00    +0.000 A 
ATOM     10  C   UNL     1       2.892   4.347  18.720  0.00  0.00    +0.000 A 
ENDROOT
BRANCH   4  11
ATOM     11  C   UNL     1       1.879   7.643  19.650  0.00  0.00    +0.000 A 
ATOM     12  C   UNL     1       1.528   7.816  21.014  0.00  0.00    +0.000 A 
ATOM     13  C   UNL     1       1.059   9.047  21.481  0.00  0.00    +0.000 A 
ATOM     14  C   UNL     1       0.925  10.066  20.569  0.00  0.00    +0.000 A 
ATOM     15  C   UNL     1       1.149   9.870  19.226  0.00  0.00    +0.000 A 
ATOM     16  C   UNL     1       1.586   8.663  18.735  0.00  0.00    +0.000 A 
ATOM     17  O   UNL     1       0.991  11.011  18.502  0.00  0.00    +0.000 OA
ATOM     18  C   UNL     1       0.948  11.972  19.575  0.00  0.00    +0.000 C 
ATOM     19  O   UNL     1       0.639  11.368  20.849  0.00  0.00    +0.000 OA
ENDBRANCH   4  11
BRANCH   1  20
ATOM     20  C   UNL     1       4.601   4.588  16.862  0.00  0.00    +0.000 C 
BRANCH  20  22
ATOM     21  C   UNL     1       7.106   4.632  16.268  0.00  0.00    +0.000 C 
ATOM     22  C   UNL     1       6.047   4.487  17.329  0.00  0.00    +0.000 C 
ATOM     23  O   UNL     1       6.342   4.307  18.513  0.00  0.00    +0.000 OA
ENDBRANCH  20  22
ENDBRANCH   1  20
TORSDOF 3
ENDMDL
MODEL 9
REMARK VINA RESULT:      -7.1      1.107      1.771
REMARK  Name = 
REMARK  4 active torsions:
REMARK  status: ('A' for Active; 'I' for Inactive)
REMARK    1  A    between atoms: C_1  and  C_2
REMARK    2  A    between atoms: C_2  and  C_4
REMARK    3  A    between atoms: C_4  and  N_5
REMARK    4  A    between atoms: N_8  and  C_9
REMARK                            x       y       z     vdW  Elec       q    Type
REMARK                         _______ _______ _______ _____ _____    ______ ____
ROOT
ATOM      1  N   UNL     1       4.807   4.517  17.532  0.00  0.00    +0.000 N 
ATOM      2  C   UNL     1       4.753   5.879  17.892  0.00  0.00    +0.000 A 
ATOM      3  O   UNL     1       5.614   6.702  17.609  0.00  0.00    +0.000 OA
ATOM      4  N   UNL     1       3.541   6.067  18.596  0.00  0.00    +0.000 N 
ATOM      5  C   UNL     1       2.836   4.838  18.598  0.00  0.00    +0.000 A 
ATOM      6  N   UNL     1       1.596   4.591  19.057  0.00  0.00    +0.000 NA
ATOM      7  C   UNL     1       1.123   3.350  18.811  0.00  0.00    +0.000 A 
ATOM      8  C   UNL     1       1.830   2.364  18.120  0.00  0.00    +0.000 A 
ATOM      9  C   UNL     1       3.117   2.647  17.655  0.00  0.00    +0.000 A 
ATOM     10  C   UNL     1       3.611   3.907  17.912  0.00  0.00    +0.000 A 
ENDROOT
BRANCH   4  11
ATOM     11  C   UNL     1       2.855   7.277  18.819  0.00  0.00    +0.000 A 
ATOM     12  C   UNL     1       2.570   8.137  17.727  0.00  0.00    +0.000 A 
ATOM     13  C   UNL     1       1.616   9.152  17.846  0.00  0.00    +0.000 A 
ATOM     14  C   UNL     1       0.993   9.302  19.061  0.00  0.00    +0.000 A 
ATOM     15  C   UNL     1       1.350   8.551  20.156  0.00  0.00    +0.000 A 
ATOM     16  C   UNL     1       2.303   7.563  20.076  0.00  0.00    +0.000 A 
ATOM     17  O   UNL     1       0.592   8.834  21.249  0.00  0.00    +0.000 OA
ATOM     18  C   UNL     1      -0.451   9.607  20.624  0.00  0.00    +0.000 C 
ATOM     19  O   UNL     1      -0.064  10.118  19.330  0.00  0.00    +0.000 OA
ENDBRANCH   4  11
BRANCH   1  20
ATOM     20  C   UNL     1       5.884   3.929  16.787  0.00  0.00    +0.000 C 
BRANCH  20  22
ATOM     21  C   UNL     1       7.162   4.940  14.794  0.00  0.00    +0.000 C 
ATOM     22  C   UNL     1       5.868   4.393  15.337  0.00  0.00    +0.000 C 
ATOM     23  O   UNL     1       4.856   4.320  14.637  0.00  0.00    +0.000 OA
ENDBRANCH  20  22
ENDBRANCH   1  20
TORSDOF 3
ENDMDL
