MODEL 1
REMARK VINA RESULT:      -7.4      0.000      0.000
REMARK  Name = 
REMARK  6 active torsions:
REMARK  status: ('A' for Active; 'I' for Inactive)
REMARK    1  A    between atoms: C_5  and  O_6
REMARK    2  A    between atoms: O_6  and  C_7
REMARK    3  A    between atoms: C_7  and  C_8
REMARK    4  A    between atoms: C_8  and  C_9
REMARK    5  A    between atoms: C_8  and  C_15
REMARK    6  A    between atoms: C_9  and  N_10
REMARK                            x       y       z     vdW  Elec       q    Type
REMARK                         _______ _______ _______ _____ _____    ______ ____
ROOT
ATOM      1  C   UNL     1       4.747   4.329  18.305  0.00  0.00    +0.000 C 
ENDROOT
BRANCH   1   2
ATOM      2  C   UNL     1       5.512   4.478  16.981  0.00  0.00    +0.000 A 
ATOM      3  C   UNL     1       6.868   4.852  16.933  0.00  0.00    +0.000 A 
ATOM      4  C   UNL     1       7.542   4.999  15.717  0.00  0.00    +0.000 A 
ATOM      5  C   UNL     1       6.867   4.782  14.525  0.00  0.00    +0.000 A 
ATOM      6 CL   UNL     1       7.691   4.987  13.030  0.00  0.00    +0.000 Cl
ATOM      7  C   UNL     1       5.530   4.397  14.539  0.00  0.00    +0.000 A 
ATOM      8  C   UNL     1       4.861   4.231  15.759  0.00  0.00    +0.000 A 
ENDBRANCH   1   2
BRANCH   1   9
ATOM      9  C   UNL     1       4.218   5.678  18.842  0.00  0.00    +0.000 C 
BRANCH   9  10
ATOM     10  O   UNL     1       3.186   6.234  18.022  0.00  0.00    +0.000 OA
BRANCH  10  15
ATOM     11 CL   UNL     1       0.188  10.397  20.924  0.00  0.00    +0.000 Cl
ATOM     12  C   UNL     1       1.062   9.198  20.052  0.00  0.00    +0.000 A 
ATOM     13  C   UNL     1       1.482   8.037  20.693  0.00  0.00    +0.000 A 
ATOM     14  C   UNL     1       2.195   7.063  19.980  0.00  0.00    +0.000 A 
ATOM     15  C   UNL     1       2.480   7.249  18.626  0.00  0.00    +0.000 A 
ATOM     16  C   UNL     1       2.067   8.426  17.995  0.00  0.00    +0.000 A 
ATOM     17  C   UNL     1       1.354   9.401  18.706  0.00  0.00    +0.000 A 
ENDBRANCH  10  15
ENDBRANCH   9  10
ENDBRANCH   1   9
BRANCH   1  18
ATOM     18  C   UNL     1       3.647   3.243  18.264  0.00  0.00    +0.000 C 
BRANCH  18  19
ATOM     19  N   UNL     1       2.871   3.118  19.481  0.00  0.00    +0.000 N 
ATOM     20  C   UNL     1       3.334   2.692  20.694  0.00  0.00    +0.000 A 
ATOM     21  C   UNL     1       2.242   2.740  21.526  0.00  0.00    +0.000 A 
ATOM     22  N   UNL     1       1.125   3.144  20.841  0.00  0.00    +0.000 NA
ATOM     23  C   UNL     1       1.530   3.345  19.607  0.00  0.00    +0.000 A 
ENDBRANCH  18  19
ENDBRANCH   1  18
TORSDOF 6
ENDMDL
MODEL 2
REMARK VINA RESULT:      -7.4      0.213      1.026
REMARK  Name = 
REMARK  6 active torsions:
REMARK  status: ('A' for Active; 'I' for Inactive)
REMARK    1  A    between atoms: C_5  and  O_6
REMARK    2  A    between atoms: O_6  and  C_7
REMARK    3  A    between atoms: C_7  and  C_8
REMARK    4  A    between atoms: C_8  and  C_9
REMARK    5  A    between atoms: C_8  and  C_15
REMARK    6  A    between atoms: C_9  and  N_10
REMARK                            x       y       z     vdW  Elec       q    Type
REMARK                         _______ _______ _______ _____ _____    ______ ____
ROOT
ATOM      1  C   UNL     1       4.726   4.315  18.138  0.00  0.00    +0.000 C 
ENDROOT
BRANCH   1   2
ATOM      2  C   UNL     1       5.500   4.478  16.821  0.00  0.00    +0.000 A 
ATOM      3  C   UNL     1       6.823   4.956  16.779  0.00  0.00    +0.000 A 
ATOM      4  C   UNL     1       7.505   5.112  15.569  0.00  0.00    +0.000 A 
ATOM      5  C   UNL     1       6.871   4.800  14.376  0.00  0.00    +0.000 A 
ATOM      6 CL   UNL     1       7.703   5.016  12.887  0.00  0.00    +0.000 Cl
ATOM      7  C   UNL     1       5.568   4.311  14.385  0.00  0.00    +0.000 A 
ATOM      8  C   UNL     1       4.892   4.136  15.599  0.00  0.00    +0.000 A 
ENDBRANCH   1   2
BRANCH   1   9
ATOM      9  C   UNL     1       4.266   5.668  18.728  0.00  0.00    +0.000 C 
BRANCH   9  10
ATOM     10  O   UNL     1       3.260   6.305  17.936  0.00  0.00    +0.000 OA
BRANCH  10  15
ATOM     11 CL   UNL     1       0.125  10.568  20.532  0.00  0.00    +0.000 Cl
ATOM     12  C   UNL     1       1.041   9.308  19.800  0.00  0.00    +0.000 A 
ATOM     13  C   UNL     1       1.381   9.385  18.453  0.00  0.00    +0.000 A 
ATOM     14  C   UNL     1       2.125   8.357  17.859  0.00  0.00    +0.000 A 
ATOM     15  C   UNL     1       2.536   7.258  18.615  0.00  0.00    +0.000 A 
ATOM     16  C   UNL     1       2.178   7.183  19.965  0.00  0.00    +0.000 A 
ATOM     17  C   UNL     1       1.432   8.210  20.560  0.00  0.00    +0.000 A 
ENDBRANCH  10  15
ENDBRANCH   9  10
ENDBRANCH   1   9
BRANCH   1  18
ATOM     18  C   UNL     1       3.570   3.291  18.053  0.00  0.00    +0.000 C 
BRANCH  18  19
ATOM     19  N   UNL     1       2.788   3.156  19.265  0.00  0.00    +0.000 N 
ATOM     20  C   UNL     1       3.233   2.676  20.464  0.00  0.00    +0.000 A 
ATOM     21  C   UNL     1       2.141   2.737  21.297  0.00  0.00    +0.000 A 
ATOM     22  N   UNL     1       1.041   3.202  20.624  0.00  0.00    +0.000 NA
ATOM     23  C   UNL     1       1.456   3.428  19.397  0.00  0.00    +0.000 A 
ENDBRANCH  18  19
ENDBRANCH   1  18
TORSDOF 6
ENDMDL
MODEL 3
REMARK VINA RESULT:      -7.4      0.491      1.492
REMARK  Name = 
REMARK  6 active torsions:
REMARK  status: ('A' for Active; 'I' for Inactive)
REMARK    1  A    between atoms: C_5  and  O_6
REMARK    2  A    between atoms: O_6  and  C_7
REMARK    3  A    between atoms: C_7  and  C_8
REMARK    4  A    between atoms: C_8  and  C_9
REMARK    5  A    between atoms: C_8  and  C_15
REMARK    6  A    between atoms: C_9  and  N_10
REMARK                            x       y       z     vdW  Elec       q    Type
REMARK                         _______ _______ _______ _____ _____    ______ ____
ROOT
ATOM      1  C   UNL     1       4.896   4.110  18.786  0.00  0.00    +0.000 C 
ENDROOT
BRANCH   1   2
ATOM      2  C   UNL     1       5.517   4.345  17.401  0.00  0.00    +0.000 A 
ATOM      3  C   UNL     1       4.821   4.074  16.208  0.00  0.00    +0.000 A 
ATOM      4  C   UNL     1       5.409   4.279  14.957  0.00  0.00    +0.000 A 
ATOM      5  C   UNL     1       6.710   4.752  14.878  0.00  0.00    +0.000 A 
ATOM      6 CL   UNL     1       7.441   4.981  13.338  0.00  0.00    +0.000 Cl
ATOM      7  C   UNL     1       7.420   5.044  16.039  0.00  0.00    +0.000 A 
ATOM      8  C   UNL     1       6.822   4.857  17.292  0.00  0.00    +0.000 A 
ENDBRANCH   1   2
BRANCH   1   9
ATOM      9  C   UNL     1       4.176   5.363  19.337  0.00  0.00    +0.000 C 
BRANCH   9  10
ATOM     10  O   UNL     1       3.406   6.041  18.341  0.00  0.00    +0.000 OA
BRANCH  10  15
ATOM     11 CL   UNL     1       0.167  10.631  20.123  0.00  0.00    +0.000 Cl
ATOM     12  C   UNL     1       1.109   9.278  19.630  0.00  0.00    +0.000 A 
ATOM     13  C   UNL     1       1.626   9.222  18.339  0.00  0.00    +0.000 A 
ATOM     14  C   UNL     1       2.392   8.118  17.940  0.00  0.00    +0.000 A 
ATOM     15  C   UNL     1       2.646   7.076  18.834  0.00  0.00    +0.000 A 
ATOM     16  C   UNL     1       2.110   7.136  20.124  0.00  0.00    +0.000 A 
ATOM     17  C   UNL     1       1.344   8.239  20.525  0.00  0.00    +0.000 A 
ENDBRANCH  10  15
ENDBRANCH   9  10
ENDBRANCH   1   9
BRANCH   1  18
ATOM     18  C   UNL     1       4.007   2.846  18.858  0.00  0.00    +0.000 C 
BRANCH  18  19
ATOM     19  N   UNL     1       2.869   2.954  19.748  0.00  0.00    +0.000 N 
ATOM     20  C   UNL     1       2.872   2.721  21.095  0.00  0.00    +0.000 A 
ATOM     21  C   UNL     1       1.576   2.945  21.496  0.00  0.00    +0.000 A 
ATOM     22  N   UNL     1       0.784   3.266  20.424  0.00  0.00    +0.000 NA
ATOM     23  C   UNL     1       1.585   3.244  19.382  0.00  0.00    +0.000 A 
ENDBRANCH  18  19
ENDBRANCH   1  18
TORSDOF 6
ENDMDL
MODEL 4
REMARK VINA RESULT:      -7.3      1.616      2.166
REMARK  Name = 
REMARK  6 active torsions:
REMARK  status: ('A' for Active; 'I' for Inactive)
REMARK    1  A    between atoms: C_5  and  O_6
REMARK    2  A    between atoms: O_6  and  C_7
REMARK    3  A    between atoms: C_7  and  C_8
REMARK    4  A    between atoms: C_8  and  C_9
REMARK    5  A    between atoms: C_8  and  C_15
REMARK    6  A    between atoms: C_9  and  N_10
REMARK                            x       y       z     vdW  Elec       q    Type
REMARK                         _______ _______ _______ _____ _____    ______ ____
ROOT
ATOM      1  C   UNL     1       3.011   5.848  18.633  0.00  0.00    +0.000 C 
ENDROOT
BRANCH   1   2
ATOM      2  C   UNL     1       3.986   5.562  17.480  0.00  0.00    +0.000 A 
ATOM      3  C   UNL     1       4.560   6.590  16.709  0.00  0.00    +0.000 A 
ATOM      4  C   UNL     1       5.432   6.309  15.653  0.00  0.00    +0.000 A 
ATOM      5  C   UNL     1       5.739   4.992  15.345  0.00  0.00    +0.000 A 
ATOM      6 CL   UNL     1       6.792   4.648  14.030  0.00  0.00    +0.000 Cl
ATOM      7  C   UNL     1       5.198   3.955  16.098  0.00  0.00    +0.000 A 
ATOM      8  C   UNL     1       4.340   4.238  17.168  0.00  0.00    +0.000 A 
ENDBRANCH   1   2
BRANCH   1   9
ATOM      9  C   UNL     1       2.508   7.310  18.639  0.00  0.00    +0.000 C 
BRANCH   9  10
ATOM     10  O   UNL     1       2.101   7.750  19.937  0.00  0.00    +0.000 OA
BRANCH  10  15
ATOM     11 CL   UNL     1      -1.622  12.311  20.210  0.00  0.00    +0.000 Cl
ATOM     12  C   UNL     1      -0.530  10.985  20.101  0.00  0.00    +0.000 A 
ATOM     13  C   UNL     1      -0.270  10.202  21.221  0.00  0.00    +0.000 A 
ATOM     14  C   UNL     1       0.620   9.124  21.130  0.00  0.00    +0.000 A 
ATOM     15  C   UNL     1       1.245   8.826  19.918  0.00  0.00    +0.000 A 
ATOM     16  C   UNL     1       0.989   9.629  18.801  0.00  0.00    +0.000 A 
ATOM     17  C   UNL     1       0.098  10.707  18.891  0.00  0.00    +0.000 A 
ENDBRANCH  10  15
ENDBRANCH   9  10
ENDBRANCH   1   9
BRANCH   1  18
ATOM     18  C   UNL     1       1.851   4.830  18.728  0.00  0.00    +0.000 C 
BRANCH  18  19
ATOM     19  N   UNL     1       1.824   4.050  19.948  0.00  0.00    +0.000 N 
ATOM     20  C   UNL     1       1.140   2.884  20.147  0.00  0.00    +0.000 A 
ATOM     21  C   UNL     1       1.417   2.527  21.445  0.00  0.00    +0.000 A 
ATOM     22  N   UNL     1       2.216   3.465  22.047  0.00  0.00    +0.000 NA
ATOM     23  C   UNL     1       2.428   4.380  21.128  0.00  0.00    +0.000 A 
ENDBRANCH  18  19
ENDBRANCH   1  18
TORSDOF 6
ENDMDL
MODEL 5
REMARK VINA RESULT:      -7.3      0.712      1.219
REMARK  Name = 
REMARK  6 active torsions:
REMARK  status: ('A' for Active; 'I' for Inactive)
REMARK    1  A    between atoms: C_5  and  O_6
REMARK    2  A    between atoms: O_6  and  C_7
REMARK    3  A    between atoms: C_7  and  C_8
REMARK    4  A    between atoms: C_8  and  C_9
REMARK    5  A    between atoms: C_8  and  C_15
REMARK    6  A    between atoms: C_9  and  N_10
REMARK                            x       y       z     vdW  Elec       q    Type
REMARK                         _______ _______ _______ _____ _____    ______ ____
ROOT
ATOM      1  C   UNL     1       5.069   4.278  19.079  0.00  0.00    +0.000 C 
ENDROOT
BRANCH   1   2
ATOM      2  C   UNL     1       5.628   4.449  17.658  0.00  0.00    +0.000 A 
ATOM      3  C   UNL     1       4.982   3.918  16.526  0.00  0.00    +0.000 A 
ATOM      4  C   UNL     1       5.515   4.070  15.243  0.00  0.00    +0.000 A 
ATOM      5  C   UNL     1       6.712   4.749  15.071  0.00  0.00    +0.000 A 
ATOM      6 CL   UNL     1       7.379   4.914  13.494  0.00  0.00    +0.000 Cl
ATOM      7  C   UNL     1       7.368   5.298  16.168  0.00  0.00    +0.000 A 
ATOM      8  C   UNL     1       6.822   5.163  17.451  0.00  0.00    +0.000 A 
ENDBRANCH   1   2
BRANCH   1   9
ATOM      9  C   UNL     1       4.145   5.445  19.499  0.00  0.00    +0.000 C 
BRANCH   9  10
ATOM     10  O   UNL     1       3.436   6.014  18.395  0.00  0.00    +0.000 OA
BRANCH  10  15
ATOM     11 CL   UNL     1       0.186  10.608  20.150  0.00  0.00    +0.000 Cl
ATOM     12  C   UNL     1       1.138   9.279  19.611  0.00  0.00    +0.000 A 
ATOM     13  C   UNL     1       1.406   8.218  20.470  0.00  0.00    +0.000 A 
ATOM     14  C   UNL     1       2.183   7.139  20.029  0.00  0.00    +0.000 A 
ATOM     15  C   UNL     1       2.684   7.118  18.726  0.00  0.00    +0.000 A 
ATOM     16  C   UNL     1       2.422   8.196  17.875  0.00  0.00    +0.000 A 
ATOM     17  C   UNL     1       1.646   9.276  18.315  0.00  0.00    +0.000 A 
ENDBRANCH  10  15
ENDBRANCH   9  10
ENDBRANCH   1   9
BRANCH   1  18
ATOM     18  C   UNL     1       4.416   2.898  19.324  0.00  0.00    +0.000 C 
BRANCH  18  19
ATOM     19  N   UNL     1       3.049   2.948  19.801  0.00  0.00    +0.000 N 
ATOM     20  C   UNL     1       2.651   3.007  21.106  0.00  0.00    +0.000 A 
ATOM     21  C   UNL     1       1.277   3.035  21.057  0.00  0.00    +0.000 A 
ATOM     22  N   UNL     1       0.836   2.953  19.761  0.00  0.00    +0.000 NA
ATOM     23  C   UNL     1       1.924   2.882  19.028  0.00  0.00    +0.000 A 
ENDBRANCH  18  19
ENDBRANCH   1  18
TORSDOF 6
ENDMDL
MODEL 6
REMARK VINA RESULT:      -7.3      1.665      2.303
REMARK  Name = 
REMARK  6 active torsions:
REMARK  status: ('A' for Active; 'I' for Inactive)
REMARK    1  A    between atoms: C_5  and  O_6
REMARK    2  A    between atoms: O_6  and  C_7
REMARK    3  A    between atoms: C_7  and  C_8
REMARK    4  A    between atoms: C_8  and  C_9
REMARK    5  A    between atoms: C_8  and  C_15
REMARK    6  A    between atoms: C_9  and  N_10
REMARK                            x       y       z     vdW  Elec       q    Type
REMARK                         _______ _______ _______ _____ _____    ______ ____
ROOT
ATOM      1  C   UNL     1       2.960   5.930  18.634  0.00  0.00    +0.000 C 
ENDROOT
BRANCH   1   2
ATOM      2  C   UNL     1       3.924   5.602  17.484  0.00  0.00    +0.000 A 
ATOM      3  C   UNL     1       4.203   4.280  17.090  0.00  0.00    +0.000 A 
ATOM      4  C   UNL     1       5.096   4.001  16.051  0.00  0.00    +0.000 A 
ATOM      5  C   UNL     1       5.733   5.042  15.393  0.00  0.00    +0.000 A 
ATOM      6 CL   UNL     1       6.850   4.696  14.132  0.00  0.00    +0.000 Cl
ATOM      7  C   UNL     1       5.467   6.361  15.749  0.00  0.00    +0.000 A 
ATOM      8  C   UNL     1       4.557   6.640  16.776  0.00  0.00    +0.000 A 
ENDBRANCH   1   2
BRANCH   1   9
ATOM      9  C   UNL     1       2.492   7.404  18.617  0.00  0.00    +0.000 C 
BRANCH   9  10
ATOM     10  O   UNL     1       2.022   7.850  19.892  0.00  0.00    +0.000 OA
BRANCH  10  15
ATOM     11 CL   UNL     1      -1.727  12.397  19.960  0.00  0.00    +0.000 Cl
ATOM     12  C   UNL     1      -0.628  11.074  19.911  0.00  0.00    +0.000 A 
ATOM     13  C   UNL     1      -0.364  10.343  21.065  0.00  0.00    +0.000 A 
ATOM     14  C   UNL     1       0.533   9.267  21.022  0.00  0.00    +0.000 A 
ATOM     15  C   UNL     1       1.159   8.920  19.824  0.00  0.00    +0.000 A 
ATOM     16  C   UNL     1       0.900   9.670  18.673  0.00  0.00    +0.000 A 
ATOM     17  C   UNL     1       0.003  10.746  18.714  0.00  0.00    +0.000 A 
ENDBRANCH  10  15
ENDBRANCH   9  10
ENDBRANCH   1   9
BRANCH   1  18
ATOM     18  C   UNL     1       1.775   4.943  18.748  0.00  0.00    +0.000 C 
BRANCH  18  19
ATOM     19  N   UNL     1       1.776   4.127  19.945  0.00  0.00    +0.000 N 
ATOM     20  C   UNL     1       1.094   2.957  20.125  0.00  0.00    +0.000 A 
ATOM     21  C   UNL     1       1.402   2.561  21.405  0.00  0.00    +0.000 A 
ATOM     22  N   UNL     1       2.218   3.479  22.014  0.00  0.00    +0.000 NA
ATOM     23  C   UNL     1       2.410   4.421  21.118  0.00  0.00    +0.000 A 
ENDBRANCH  18  19
ENDBRANCH   1  18
TORSDOF 6
ENDMDL
MODEL 7
REMARK VINA RESULT:      -7.3      0.491      1.285
REMARK  Name = 
REMARK  6 active torsions:
REMARK  status: ('A' for Active; 'I' for Inactive)
REMARK    1  A    between atoms: C_5  and  O_6
REMARK    2  A    between atoms: O_6  and  C_7
REMARK    3  A    between atoms: C_7  and  C_8
REMARK    4  A    between atoms: C_8  and  C_9
REMARK    5  A    between atoms: C_8  and  C_15
REMARK    6  A    between atoms: C_9  and  N_10
REMARK                            x       y       z     vdW  Elec       q    Type
REMARK                         _______ _______ _______ _____ _____    ______ ____
ROOT
ATOM      1  C   UNL     1       4.607   4.516  18.219  0.00  0.00    +0.000 C 
ENDROOT
BRANCH   1   2
ATOM      2  C   UNL     1       5.374   4.658  16.896  0.00  0.00    +0.000 A 
ATOM      3  C   UNL     1       4.841   4.225  15.666  0.00  0.00    +0.000 A 
ATOM      4  C   UNL     1       5.562   4.348  14.475  0.00  0.00    +0.000 A 
ATOM      5  C   UNL     1       6.834   4.899  14.494  0.00  0.00    +0.000 A 
ATOM      6 CL   UNL     1       7.729   5.027  13.031  0.00  0.00    +0.000 Cl
ATOM      7  C   UNL     1       7.383   5.350  15.690  0.00  0.00    +0.000 A 
ATOM      8  C   UNL     1       6.653   5.245  16.880  0.00  0.00    +0.000 A 
ENDBRANCH   1   2
BRANCH   1   9
ATOM      9  C   UNL     1       4.116   5.874  18.771  0.00  0.00    +0.000 C 
BRANCH   9  10
ATOM     10  O   UNL     1       3.265   6.569  17.855  0.00  0.00    +0.000 OA
BRANCH  10  15
ATOM     11 CL   UNL     1      -0.058  10.514  20.706  0.00  0.00    +0.000 Cl
ATOM     12  C   UNL     1       0.909   9.378  19.848  0.00  0.00    +0.000 A 
ATOM     13  C   UNL     1       1.467   8.292  20.516  0.00  0.00    +0.000 A 
ATOM     14  C   UNL     1       2.254   7.369  19.815  0.00  0.00    +0.000 A 
ATOM     15  C   UNL     1       2.477   7.529  18.446  0.00  0.00    +0.000 A 
ATOM     16  C   UNL     1       1.924   8.631  17.787  0.00  0.00    +0.000 A 
ATOM     17  C   UNL     1       1.136   9.555  18.487  0.00  0.00    +0.000 A 
ENDBRANCH  10  15
ENDBRANCH   9  10
ENDBRANCH   1   9
BRANCH   1  18
ATOM     18  C   UNL     1       3.476   3.463  18.167  0.00  0.00    +0.000 C 
BRANCH  18  19
ATOM     19  N   UNL     1       2.812   3.221  19.432  0.00  0.00    +0.000 N 
ATOM     20  C   UNL     1       1.511   3.514  19.729  0.00  0.00    +0.000 A 
ATOM     21  C   UNL     1       1.346   3.110  21.033  0.00  0.00    +0.000 A 
ATOM     22  N   UNL     1       2.521   2.620  21.542  0.00  0.00    +0.000 NA
ATOM     23  C   UNL     1       3.391   2.718  20.562  0.00  0.00    +0.000 A 
ENDBRANCH  18  19
ENDBRANCH   1  18
TORSDOF 6
ENDMDL
MODEL 8
REMARK VINA RESULT:      -7.3      1.234      6.549
REMARK  Name = 
REMARK  6 active torsions:
REMARK  status: ('A' for Active; 'I' for Inactive)
REMARK    1  A    between atoms: C_5  and  O_6
REMARK    2  A    between atoms: O_6  and  C_7
REMARK    3  A    between atoms: C_7  and  C_8
REMARK    4  A    between atoms: C_8  and  C_9
REMARK    5  A    between atoms: C_8  and  C_15
REMARK    6  A    between atoms: C_9  and  N_10
REMARK                            x       y       z     vdW  Elec       q    Type
REMARK                         _______ _______ _______ _____ _____    ______ ____
ROOT
ATOM      1  C   UNL     1       3.159   6.284  18.458  0.00  0.00    +0.000 C 
ENDROOT
BRANCH   1   2
ATOM      2  C   UNL     1       2.326   7.523  18.820  0.00  0.00    +0.000 A 
ATOM      3  C   UNL     1       1.855   7.757  20.126  0.00  0.00    +0.000 A 
ATOM      4  C   UNL     1       1.083   8.882  20.432  0.00  0.00    +0.000 A 
ATOM      5  C   UNL     1       0.762   9.789  19.434  0.00  0.00    +0.000 A 
ATOM      6 CL   UNL     1      -0.208  11.159  19.808  0.00  0.00    +0.000 Cl
ATOM      7  C   UNL     1       1.225   9.593  18.136  0.00  0.00    +0.000 A 
ATOM      8  C   UNL     1       2.014   8.477  17.835  0.00  0.00    +0.000 A 
ENDBRANCH   1   2
BRANCH   1   9
ATOM      9  C   UNL     1       4.411   6.634  17.619  0.00  0.00    +0.000 C 
BRANCH   9  10
ATOM     10  O   UNL     1       5.405   5.607  17.655  0.00  0.00    +0.000 OA
BRANCH  10  15
ATOM     11 CL   UNL     1       6.767   3.622  12.275  0.00  0.00    +0.000 Cl
ATOM     12  C   UNL     1       6.397   4.213  13.849  0.00  0.00    +0.000 A 
ATOM     13  C   UNL     1       5.131   4.012  14.389  0.00  0.00    +0.000 A 
ATOM     14  C   UNL     1       4.832   4.496  15.670  0.00  0.00    +0.000 A 
ATOM     15  C   UNL     1       5.802   5.172  16.412  0.00  0.00    +0.000 A 
ATOM     16  C   UNL     1       7.067   5.382  15.854  0.00  0.00    +0.000 A 
ATOM     17  C   UNL     1       7.367   4.899  14.573  0.00  0.00    +0.000 A 
ENDBRANCH  10  15
ENDBRANCH   9  10
ENDBRANCH   1   9
BRANCH   1  18
ATOM     18  C   UNL     1       3.501   5.392  19.674  0.00  0.00    +0.000 C 
BRANCH  18  19
ATOM     19  N   UNL     1       2.495   4.402  20.003  0.00  0.00    +0.000 N 
ATOM     20  C   UNL     1       2.211   3.924  21.251  0.00  0.00    +0.000 A 
ATOM     21  C   UNL     1       1.200   3.014  21.060  0.00  0.00    +0.000 A 
ATOM     22  N   UNL     1       0.893   2.900  19.728  0.00  0.00    +0.000 NA
ATOM     23  C   UNL     1       1.703   3.734  19.114  0.00  0.00    +0.000 A 
ENDBRANCH  18  19
ENDBRANCH   1  18
TORSDOF 6
ENDMDL
MODEL 9
REMARK VINA RESULT:      -7.2      1.323      6.609
REMARK  Name = 
REMARK  6 active torsions:
REMARK  status: ('A' for Active; 'I' for Inactive)
REMARK    1  A    between atoms: C_5  and  O_6
REMARK    2  A    between atoms: O_6  and  C_7
REMARK    3  A    between atoms: C_7  and  C_8
REMARK    4  A    between atoms: C_8  and  C_9
REMARK    5  A    between atoms: C_8  and  C_15
REMARK    6  A    between atoms: C_9  and  N_10
REMARK                            x       y       z     vdW  Elec       q    Type
REMARK                         _______ _______ _______ _____ _____    ______ ____
ROOT
ATOM      1  C   UNL     1       3.276   6.276  18.361  0.00  0.00    +0.000 C 
ENDROOT
BRANCH   1   2
ATOM      2  C   UNL     1       2.427   7.490  18.766  0.00  0.00    +0.000 A 
ATOM      3  C   UNL     1       1.934   7.661  20.074  0.00  0.00    +0.000 A 
ATOM      4  C   UNL     1       1.149   8.765  20.419  0.00  0.00    +0.000 A 
ATOM      5  C   UNL     1       0.835   9.714  19.458  0.00  0.00    +0.000 A 
ATOM      6 CL   UNL     1      -0.153  11.058  19.879  0.00  0.00    +0.000 Cl
ATOM      7  C   UNL     1       1.318   9.581  18.160  0.00  0.00    +0.000 A 
ATOM      8  C   UNL     1       2.122   8.485  17.820  0.00  0.00    +0.000 A 
ENDBRANCH   1   2
BRANCH   1   9
ATOM      9  C   UNL     1       4.628   6.680  17.728  0.00  0.00    +0.000 C 
BRANCH   9  10
ATOM     10  O   UNL     1       5.562   5.599  17.679  0.00  0.00    +0.000 OA
BRANCH  10  15
ATOM     11 CL   UNL     1       6.757   3.598  12.266  0.00  0.00    +0.000 Cl
ATOM     12  C   UNL     1       6.382   4.167  13.846  0.00  0.00    +0.000 A 
ATOM     13  C   UNL     1       7.271   5.002  14.516  0.00  0.00    +0.000 A 
ATOM     14  C   UNL     1       6.964   5.462  15.803  0.00  0.00    +0.000 A 
ATOM     15  C   UNL     1       5.765   5.094  16.416  0.00  0.00    +0.000 A 
ATOM     16  C   UNL     1       4.884   4.243  15.740  0.00  0.00    +0.000 A 
ATOM     17  C   UNL     1       5.190   3.781  14.453  0.00  0.00    +0.000 A 
ENDBRANCH  10  15
ENDBRANCH   9  10
ENDBRANCH   1   9
BRANCH   1  18
ATOM     18  C   UNL     1       3.448   5.237  19.493  0.00  0.00    +0.000 C 
BRANCH  18  19
ATOM     19  N   UNL     1       2.954   3.911  19.181  0.00  0.00    +0.000 N 
ATOM     20  C   UNL     1       1.643   3.539  19.090  0.00  0.00    +0.000 A 
ATOM     21  C   UNL     1       1.675   2.201  18.781  0.00  0.00    +0.000 A 
ATOM     22  N   UNL     1       2.967   1.746  18.722  0.00  0.00    +0.000 NA
ATOM     23  C   UNL     1       3.715   2.794  18.987  0.00  0.00    +0.000 A 
ENDBRANCH  18  19
ENDBRANCH   1  18
TORSDOF 6
ENDMDL
