MODEL 1
REMARK VINA RESULT:      -8.3      0.000      0.000
REMARK  Name = 
REMARK  9 active torsions:
REMARK  status: ('A' for Active; 'I' for Inactive)
REMARK    1  A    between atoms: C_1  and  C_2
REMARK    2  A    between atoms: N_4  and  C_5
REMARK    3  A    between atoms: C_5  and  C_6
REMARK    4  A    between atoms: C_9  and  N_10
REMARK    5  A    between atoms: C_11  and  C_13
REMARK    6  A    between atoms: C_24  and  C_25
REMARK    7  A    between atoms: C_26  and  C_27
REMARK    8  A    between atoms: C_27  and  C_28
REMARK    9  A    between atoms: C_28  and  O_30
REMARK                            x       y       z     vdW  Elec       q    Type
REMARK                         _______ _______ _______ _____ _____    ______ ____
ROOT
ATOM      1  C   UNL     1       2.647   7.825  18.320  0.00  0.00    +0.000 A 
ATOM      2  C   UNL     1       2.150   8.957  17.662  0.00  0.00    +0.000 A 
ATOM      3  C   UNL     1       1.238   9.806  18.280  0.00  0.00    +0.000 A 
ATOM      4  C   UNL     1       0.769   9.544  19.573  0.00  0.00    +0.000 A 
ATOM      5  C   UNL     1       1.329   8.473  20.271  0.00  0.00    +0.000 A 
ATOM      6  C   UNL     1       2.255   7.615  19.653  0.00  0.00    +0.000 A 
ENDROOT
BRANCH   4   7
ATOM      7  N   UNL     1      -0.223  10.276  20.234  0.00  0.00    +0.000 N 
ATOM      8  C   UNL     1      -0.029  11.375  21.047  0.00  0.00    +0.000 C 
ATOM      9  O   UNL     1       1.062  11.814  21.408  0.00  0.00    +0.000 OA
ATOM     10  H   UNL     1      -1.177  10.068  19.996  0.00  0.00    +0.000 HD
BRANCH   8  11
ATOM     11  C   UNL     1      -1.255  12.054  21.503  0.00  0.00    +0.000 A 
ATOM     12  C   UNL     1      -2.385  12.268  20.740  0.00  0.00    +0.000 A 
ATOM     13  C   UNL     1      -3.468  12.816  21.488  0.00  0.00    +0.000 A 
ATOM     14  C   UNL     1      -4.787  13.101  21.093  0.00  0.00    +0.000 A 
ATOM     15  C   UNL     1      -5.781  12.814  22.019  0.00  0.00    +0.000 A 
ATOM     16  C   UNL     1      -5.484  12.907  23.368  0.00  0.00    +0.000 A 
ATOM     17  C   UNL     1      -4.167  13.120  23.795  0.00  0.00    +0.000 A 
ATOM     18  C   UNL     1      -3.157  12.899  22.844  0.00  0.00    +0.000 A 
ATOM     19  S   UNL     1      -1.468  12.663  23.088  0.00  0.00    +0.000 S 
ENDBRANCH   8  11
ENDBRANCH   4   7
BRANCH   1  20
ATOM     20  C   UNL     1       3.486   6.812  17.579  0.00  0.00    +0.000 C 
BRANCH  20  24
ATOM     21  C   UNL     1       0.977   2.803  18.549  0.00  0.00    +0.000 C 
ATOM     22  C   UNL     1       2.173   3.683  18.473  0.00  0.00    +0.000 A 
ATOM     23  N   UNL     1       2.047   4.932  18.023  0.00  0.00    +0.000 NA
ATOM     24  N   UNL     1       3.296   5.435  18.022  0.00  0.00    +0.000 N 
ATOM     25  C   UNL     1       4.200   4.581  18.614  0.00  0.00    +0.000 A 
ATOM     26  C   UNL     1       5.625   4.910  18.876  0.00  0.00    +0.000 C 
ATOM     27  C   UNL     1       3.513   3.396  18.847  0.00  0.00    +0.000 A 
BRANCH  27  28
ATOM     28  C   UNL     1       4.072   2.098  19.351  0.00  0.00    +0.000 C 
BRANCH  28  29
ATOM     29  C   UNL     1       4.264   1.962  20.850  0.00  0.00    +0.000 C 
ATOM     30  O   UNL     1       5.302   1.517  21.330  0.00  0.00    +0.000 OA
BRANCH  29  31
ATOM     31  O   UNL     1       3.251   2.356  21.644  0.00  0.00    +0.000 OA
ATOM     32  H   UNL     1       2.443   1.809  21.576  0.00  0.00    +0.000 HD
ENDBRANCH  29  31
ENDBRANCH  28  29
ENDBRANCH  27  28
ENDBRANCH  20  24
ENDBRANCH   1  20
TORSDOF 7
ENDMDL
MODEL 2
REMARK VINA RESULT:      -8.1      1.405      2.087
REMARK  Name = 
REMARK  9 active torsions:
REMARK  status: ('A' for Active; 'I' for Inactive)
REMARK    1  A    between atoms: C_1  and  C_2
REMARK    2  A    between atoms: N_4  and  C_5
REMARK    3  A    between atoms: C_5  and  C_6
REMARK    4  A    between atoms: C_9  and  N_10
REMARK    5  A    between atoms: C_11  and  C_13
REMARK    6  A    between atoms: C_24  and  C_25
REMARK    7  A    between atoms: C_26  and  C_27
REMARK    8  A    between atoms: C_27  and  C_28
REMARK    9  A    between atoms: C_28  and  O_30
REMARK                            x       y       z     vdW  Elec       q    Type
REMARK                         _______ _______ _______ _____ _____    ______ ____
ROOT
ATOM      1  C   UNL     1       2.344   7.798  18.516  0.00  0.00    +0.000 A 
ATOM      2  C   UNL     1       2.082   7.629  19.882  0.00  0.00    +0.000 A 
ATOM      3  C   UNL     1       1.313   8.549  20.587  0.00  0.00    +0.000 A 
ATOM      4  C   UNL     1       0.794   9.688  19.960  0.00  0.00    +0.000 A 
ATOM      5  C   UNL     1       0.969   9.816  18.581  0.00  0.00    +0.000 A 
ATOM      6  C   UNL     1       1.742   8.887  17.863  0.00  0.00    +0.000 A 
ENDROOT
BRANCH   4   7
ATOM      7  N   UNL     1       0.103  10.718  20.605  0.00  0.00    +0.000 N 
ATOM      8  C   UNL     1      -0.484  10.657  21.854  0.00  0.00    +0.000 C 
ATOM      9  O   UNL     1      -0.586   9.647  22.548  0.00  0.00    +0.000 OA
ATOM     10  H   UNL     1       0.145  11.629  20.183  0.00  0.00    +0.000 HD
BRANCH   8  11
ATOM     11  C   UNL     1      -1.022  11.929  22.367  0.00  0.00    +0.000 A 
ATOM     12  C   UNL     1      -2.182  12.072  23.102  0.00  0.00    +0.000 A 
ATOM     13  C   UNL     1      -2.374  13.398  23.589  0.00  0.00    +0.000 A 
ATOM     14  C   UNL     1      -3.379  13.917  24.425  0.00  0.00    +0.000 A 
ATOM     15  C   UNL     1      -2.970  14.842  25.375  0.00  0.00    +0.000 A 
ATOM     16  C   UNL     1      -1.892  15.662  25.088  0.00  0.00    +0.000 A 
ATOM     17  C   UNL     1      -1.121  15.450  23.938  0.00  0.00    +0.000 A 
ATOM     18  C   UNL     1      -1.280  14.209  23.299  0.00  0.00    +0.000 A 
ATOM     19  S   UNL     1      -0.253  13.442  22.147  0.00  0.00    +0.000 S 
ENDBRANCH   8  11
ENDBRANCH   4   7
BRANCH   1  20
ATOM     20  C   UNL     1       3.330   6.903  17.805  0.00  0.00    +0.000 C 
BRANCH  20  24
ATOM     21  C   UNL     1       1.105   2.672  18.481  0.00  0.00    +0.000 C 
ATOM     22  C   UNL     1       2.233   3.641  18.491  0.00  0.00    +0.000 A 
ATOM     23  N   UNL     1       2.025   4.900  18.102  0.00  0.00    +0.000 NA
ATOM     24  N   UNL     1       3.233   5.494  18.168  0.00  0.00    +0.000 N 
ATOM     25  C   UNL     1       4.181   4.678  18.745  0.00  0.00    +0.000 A 
ATOM     26  C   UNL     1       5.569   5.097  19.071  0.00  0.00    +0.000 C 
ATOM     27  C   UNL     1       3.580   3.434  18.893  0.00  0.00    +0.000 A 
BRANCH  27  28
ATOM     28  C   UNL     1       4.220   2.155  19.346  0.00  0.00    +0.000 C 
BRANCH  28  29
ATOM     29  C   UNL     1       4.369   1.948  20.841  0.00  0.00    +0.000 C 
ATOM     30  O   UNL     1       5.374   1.436  21.326  0.00  0.00    +0.000 OA
BRANCH  29  31
ATOM     31  O   UNL     1       3.355   2.354  21.629  0.00  0.00    +0.000 OA
ATOM     32  H   UNL     1       3.277   1.869  22.475  0.00  0.00    +0.000 HD
ENDBRANCH  29  31
ENDBRANCH  28  29
ENDBRANCH  27  28
ENDBRANCH  20  24
ENDBRANCH   1  20
TORSDOF 7
ENDMDL
MODEL 3
REMARK VINA RESULT:      -8.0      3.386      4.422
REMARK  Name = 
REMARK  9 active torsions:
REMARK  status: ('A' for Active; 'I' for Inactive)
REMARK    1  A    between atoms: C_1  and  C_2
REMARK    2  A    between atoms: N_4  and  C_5
REMARK    3  A    between atoms: C_5  and  C_6
REMARK    4  A    between atoms: C_9  and  N_10
REMARK    5  A    between atoms: C_11  and  C_13
REMARK    6  A    between atoms: C_24  and  C_25
REMARK    7  A    between atoms: C_26  and  C_27
REMARK    8  A    between atoms: C_27  and  C_28
REMARK    9  A    between atoms: C_28  and  O_30
REMARK                            x       y       z     vdW  Elec       q    Type
REMARK                         _______ _______ _______ _____ _____    ______ ____
ROOT
ATOM      1  C   UNL     1       2.272   6.463  19.736  0.00  0.00    +0.000 A 
ATOM      2  C   UNL     1       1.628   6.989  20.864  0.00  0.00    +0.000 A 
ATOM      3  C   UNL     1       1.185   8.307  20.892  0.00  0.00    +0.000 A 
ATOM      4  C   UNL     1       1.389   9.160  19.801  0.00  0.00    +0.000 A 
ATOM      5  C   UNL     1       1.943   8.621  18.639  0.00  0.00    +0.000 A 
ATOM      6  C   UNL     1       2.387   7.288  18.604  0.00  0.00    +0.000 A 
ENDROOT
BRANCH   4   7
ATOM      7  N   UNL     1       1.076  10.523  19.775  0.00  0.00    +0.000 N 
ATOM      8  C   UNL     1      -0.151  11.079  19.468  0.00  0.00    +0.000 C 
ATOM      9  O   UNL     1      -1.133  10.463  19.058  0.00  0.00    +0.000 OA
ATOM     10  H   UNL     1       1.767  11.156  20.138  0.00  0.00    +0.000 HD
BRANCH   8  11
ATOM     11  C   UNL     1      -0.255  12.536  19.659  0.00  0.00    +0.000 A 
ATOM     12  C   UNL     1       0.340  13.495  18.863  0.00  0.00    +0.000 A 
ATOM     13  C   UNL     1      -0.058  14.822  19.198  0.00  0.00    +0.000 A 
ATOM     14  C   UNL     1       0.265  16.045  18.581  0.00  0.00    +0.000 A 
ATOM     15  C   UNL     1      -0.761  16.974  18.487  0.00  0.00    +0.000 A 
ATOM     16  C   UNL     1      -1.738  16.992  19.468  0.00  0.00    +0.000 A 
ATOM     17  C   UNL     1      -1.790  15.986  20.441  0.00  0.00    +0.000 A 
ATOM     18  C   UNL     1      -1.045  14.824  20.180  0.00  0.00    +0.000 A 
ATOM     19  S   UNL     1      -1.174  13.266  20.904  0.00  0.00    +0.000 S 
ENDBRANCH   8  11
ENDBRANCH   4   7
BRANCH   1  20
ATOM     20  C   UNL     1       2.914   5.098  19.784  0.00  0.00    +0.000 C 
BRANCH  20  24
ATOM     21  C   UNL     1       7.636   5.783  19.049  0.00  0.00    +0.000 C 
ATOM     22  C   UNL     1       6.254   5.337  18.733  0.00  0.00    +0.000 A 
ATOM     23  N   UNL     1       5.269   5.571  19.602  0.00  0.00    +0.000 NA
ATOM     24  N   UNL     1       4.176   5.002  19.058  0.00  0.00    +0.000 N 
ATOM     25  C   UNL     1       4.410   4.544  17.781  0.00  0.00    +0.000 A 
ATOM     26  C   UNL     1       3.369   3.985  16.880  0.00  0.00    +0.000 C 
ATOM     27  C   UNL     1       5.777   4.675  17.570  0.00  0.00    +0.000 A 
BRANCH  27  28
ATOM     28  C   UNL     1       6.572   4.197  16.391  0.00  0.00    +0.000 C 
BRANCH  28  29
ATOM     29  C   UNL     1       6.777   5.176  15.250  0.00  0.00    +0.000 C 
ATOM     30  O   UNL     1       7.860   5.290  14.683  0.00  0.00    +0.000 OA
BRANCH  29  31
ATOM     31  O   UNL     1       5.720   5.919  14.872  0.00  0.00    +0.000 OA
ATOM     32  H   UNL     1       5.332   5.666  14.011  0.00  0.00    +0.000 HD
ENDBRANCH  29  31
ENDBRANCH  28  29
ENDBRANCH  27  28
ENDBRANCH  20  24
ENDBRANCH   1  20
TORSDOF 7
ENDMDL
MODEL 4
REMARK VINA RESULT:      -7.9      0.874      1.061
REMARK  Name = 
REMARK  9 active torsions:
REMARK  status: ('A' for Active; 'I' for Inactive)
REMARK    1  A    between atoms: C_1  and  C_2
REMARK    2  A    between atoms: N_4  and  C_5
REMARK    3  A    between atoms: C_5  and  C_6
REMARK    4  A    between atoms: C_9  and  N_10
REMARK    5  A    between atoms: C_11  and  C_13
REMARK    6  A    between atoms: C_24  and  C_25
REMARK    7  A    between atoms: C_26  and  C_27
REMARK    8  A    between atoms: C_27  and  C_28
REMARK    9  A    between atoms: C_28  and  O_30
REMARK                            x       y       z     vdW  Elec       q    Type
REMARK                         _______ _______ _______ _____ _____    ______ ____
ROOT
ATOM      1  C   UNL     1       2.523   7.880  18.343  0.00  0.00    +0.000 A 
ATOM      2  C   UNL     1       2.183   9.129  17.808  0.00  0.00    +0.000 A 
ATOM      3  C   UNL     1       1.410  10.034  18.528  0.00  0.00    +0.000 A 
ATOM      4  C   UNL     1       0.927   9.717  19.804  0.00  0.00    +0.000 A 
ATOM      5  C   UNL     1       1.340   8.516  20.383  0.00  0.00    +0.000 A 
ATOM      6  C   UNL     1       2.125   7.600  19.661  0.00  0.00    +0.000 A 
ENDROOT
BRANCH   4   7
ATOM      7  N   UNL     1       0.060  10.514  20.557  0.00  0.00    +0.000 N 
ATOM      8  C   UNL     1      -1.037  11.208  20.086  0.00  0.00    +0.000 C 
ATOM      9  O   UNL     1      -1.357  11.323  18.903  0.00  0.00    +0.000 OA
ATOM     10  H   UNL     1       0.161  10.479  21.556  0.00  0.00    +0.000 HD
BRANCH   8  11
ATOM     11  C   UNL     1      -1.873  11.853  21.114  0.00  0.00    +0.000 A 
ATOM     12  C   UNL     1      -2.978  12.644  20.869  0.00  0.00    +0.000 A 
ATOM     13  C   UNL     1      -3.676  13.008  22.058  0.00  0.00    +0.000 A 
ATOM     14  C   UNL     1      -4.872  13.732  22.218  0.00  0.00    +0.000 A 
ATOM     15  C   UNL     1      -5.736  13.278  23.204  0.00  0.00    +0.000 A 
ATOM     16  C   UNL     1      -5.206  12.664  24.327  0.00  0.00    +0.000 A 
ATOM     17  C   UNL     1      -3.842  12.353  24.391  0.00  0.00    +0.000 A 
ATOM     18  C   UNL     1      -3.136  12.379  23.177  0.00  0.00    +0.000 A 
ATOM     19  S   UNL     1      -1.606  11.685  22.795  0.00  0.00    +0.000 S 
ENDBRANCH   8  11
ENDBRANCH   4   7
BRANCH   1  20
ATOM     20  C   UNL     1       3.198   6.835  17.488  0.00  0.00    +0.000 C 
BRANCH  20  24
ATOM     21  C   UNL     1       0.815   2.808  18.673  0.00  0.00    +0.000 C 
ATOM     22  C   UNL     1       1.987   3.711  18.528  0.00  0.00    +0.000 A 
ATOM     23  N   UNL     1       1.817   4.941  18.042  0.00  0.00    +0.000 NA
ATOM     24  N   UNL     1       3.055   5.470  17.980  0.00  0.00    +0.000 N 
ATOM     25  C   UNL     1       3.998   4.656  18.568  0.00  0.00    +0.000 A 
ATOM     26  C   UNL     1       5.423   5.023  18.769  0.00  0.00    +0.000 C 
ATOM     27  C   UNL     1       3.346   3.464  18.863  0.00  0.00    +0.000 A 
BRANCH  27  28
ATOM     28  C   UNL     1       3.951   2.196  19.388  0.00  0.00    +0.000 C 
BRANCH  28  29
ATOM     29  C   UNL     1       4.103   2.072  20.893  0.00  0.00    +0.000 C 
ATOM     30  O   UNL     1       3.211   2.416  21.663  0.00  0.00    +0.000 OA
BRANCH  29  31
ATOM     31  O   UNL     1       5.258   1.562  21.360  0.00  0.00    +0.000 OA
ATOM     32  H   UNL     1       6.032   1.708  20.781  0.00  0.00    +0.000 HD
ENDBRANCH  29  31
ENDBRANCH  28  29
ENDBRANCH  27  28
ENDBRANCH  20  24
ENDBRANCH   1  20
TORSDOF 7
ENDMDL
MODEL 5
REMARK VINA RESULT:      -7.8      1.107      1.603
REMARK  Name = 
REMARK  9 active torsions:
REMARK  status: ('A' for Active; 'I' for Inactive)
REMARK    1  A    between atoms: C_1  and  C_2
REMARK    2  A    between atoms: N_4  and  C_5
REMARK    3  A    between atoms: C_5  and  C_6
REMARK    4  A    between atoms: C_9  and  N_10
REMARK    5  A    between atoms: C_11  and  C_13
REMARK    6  A    between atoms: C_24  and  C_25
REMARK    7  A    between atoms: C_26  and  C_27
REMARK    8  A    between atoms: C_27  and  C_28
REMARK    9  A    between atoms: C_28  and  O_30
REMARK                            x       y       z     vdW  Elec       q    Type
REMARK                         _______ _______ _______ _____ _____    ______ ____
ROOT
ATOM      1  C   UNL     1       2.528   7.752  18.356  0.00  0.00    +0.000 A 
ATOM      2  C   UNL     1       2.139   7.568  19.689  0.00  0.00    +0.000 A 
ATOM      3  C   UNL     1       1.392   8.529  20.360  0.00  0.00    +0.000 A 
ATOM      4  C   UNL     1       1.022   9.724  19.732  0.00  0.00    +0.000 A 
ATOM      5  C   UNL     1       1.322   9.875  18.377  0.00  0.00    +0.000 A 
ATOM      6  C   UNL     1       2.073   8.904  17.693  0.00  0.00    +0.000 A 
ENDROOT
BRANCH   4   7
ATOM      7  N   UNL     1       0.365  10.791  20.353  0.00  0.00    +0.000 N 
ATOM      8  C   UNL     1      -0.926  11.216  20.109  0.00  0.00    +0.000 C 
ATOM      9  O   UNL     1      -1.664  10.790  19.222  0.00  0.00    +0.000 OA
ATOM     10  H   UNL     1       0.823  11.210  21.143  0.00  0.00    +0.000 HD
BRANCH   8  11
ATOM     11  C   UNL     1      -1.430  12.271  21.006  0.00  0.00    +0.000 A 
ATOM     12  C   UNL     1      -2.753  12.643  21.145  0.00  0.00    +0.000 A 
ATOM     13  C   UNL     1      -2.959  13.587  22.193  0.00  0.00    +0.000 A 
ATOM     14  C   UNL     1      -4.153  14.142  22.687  0.00  0.00    +0.000 A 
ATOM     15  C   UNL     1      -4.233  14.302  24.063  0.00  0.00    +0.000 A 
ATOM     16  C   UNL     1      -3.071  14.551  24.775  0.00  0.00    +0.000 A 
ATOM     17  C   UNL     1      -1.821  14.472  24.148  0.00  0.00    +0.000 A 
ATOM     18  C   UNL     1      -1.784  13.822  22.903  0.00  0.00    +0.000 A 
ATOM     19  S   UNL     1      -0.430  13.186  22.050  0.00  0.00    +0.000 S 
ENDBRANCH   8  11
ENDBRANCH   4   7
BRANCH   1  20
ATOM     20  C   UNL     1       3.494   6.796  17.697  0.00  0.00    +0.000 C 
BRANCH  20  24
ATOM     21  C   UNL     1       1.103   2.679  18.497  0.00  0.00    +0.000 C 
ATOM     22  C   UNL     1       2.266   3.605  18.486  0.00  0.00    +0.000 A 
ATOM     23  N   UNL     1       2.110   4.856  18.050  0.00  0.00    +0.000 NA
ATOM     24  N   UNL     1       3.339   5.406  18.110  0.00  0.00    +0.000 N 
ATOM     25  C   UNL     1       4.250   4.577  18.727  0.00  0.00    +0.000 A 
ATOM     26  C   UNL     1       5.649   4.954  19.053  0.00  0.00    +0.000 C 
ATOM     27  C   UNL     1       3.600   3.362  18.911  0.00  0.00    +0.000 A 
BRANCH  27  28
ATOM     28  C   UNL     1       4.187   2.077  19.418  0.00  0.00    +0.000 C 
BRANCH  28  29
ATOM     29  C   UNL     1       4.330   1.927  20.921  0.00  0.00    +0.000 C 
ATOM     30  O   UNL     1       5.345   1.462  21.430  0.00  0.00    +0.000 OA
BRANCH  29  31
ATOM     31  O   UNL     1       3.298   2.329  21.686  0.00  0.00    +0.000 OA
ATOM     32  H   UNL     1       2.847   3.138  21.370  0.00  0.00    +0.000 HD
ENDBRANCH  29  31
ENDBRANCH  28  29
ENDBRANCH  27  28
ENDBRANCH  20  24
ENDBRANCH   1  20
TORSDOF 7
ENDMDL
MODEL 6
REMARK VINA RESULT:      -7.7      3.522      4.650
REMARK  Name = 
REMARK  9 active torsions:
REMARK  status: ('A' for Active; 'I' for Inactive)
REMARK    1  A    between atoms: C_1  and  C_2
REMARK    2  A    between atoms: N_4  and  C_5
REMARK    3  A    between atoms: C_5  and  C_6
REMARK    4  A    between atoms: C_9  and  N_10
REMARK    5  A    between atoms: C_11  and  C_13
REMARK    6  A    between atoms: C_24  and  C_25
REMARK    7  A    between atoms: C_26  and  C_27
REMARK    8  A    between atoms: C_27  and  C_28
REMARK    9  A    between atoms: C_28  and  O_30
REMARK                            x       y       z     vdW  Elec       q    Type
REMARK                         _______ _______ _______ _____ _____    ______ ____
ROOT
ATOM      1  C   UNL     1       2.356   6.357  19.705  0.00  0.00    +0.000 A 
ATOM      2  C   UNL     1       1.664   6.830  20.828  0.00  0.00    +0.000 A 
ATOM      3  C   UNL     1       1.191   8.137  20.885  0.00  0.00    +0.000 A 
ATOM      4  C   UNL     1       1.412   9.031  19.830  0.00  0.00    +0.000 A 
ATOM      5  C   UNL     1       2.015   8.544  18.670  0.00  0.00    +0.000 A 
ATOM      6  C   UNL     1       2.490   7.222  18.606  0.00  0.00    +0.000 A 
ENDROOT
BRANCH   4   7
ATOM      7  N   UNL     1       1.070  10.387  19.840  0.00  0.00    +0.000 N 
ATOM      8  C   UNL     1       0.787  11.156  20.953  0.00  0.00    +0.000 C 
ATOM      9  O   UNL     1       0.683  10.736  22.104  0.00  0.00    +0.000 OA
ATOM     10  H   UNL     1       1.163  10.887  18.973  0.00  0.00    +0.000 HD
BRANCH   8  11
ATOM     11  C   UNL     1       0.601  12.596  20.702  0.00  0.00    +0.000 A 
ATOM     12  C   UNL     1       1.533  13.437  20.127  0.00  0.00    +0.000 A 
ATOM     13  C   UNL     1       1.021  14.744  19.872  0.00  0.00    +0.000 A 
ATOM     14  C   UNL     1       1.627  15.844  19.239  0.00  0.00    +0.000 A 
ATOM     15  C   UNL     1       0.814  16.596  18.404  0.00  0.00    +0.000 A 
ATOM     16  C   UNL     1      -0.537  16.690  18.694  0.00  0.00    +0.000 A 
ATOM     17  C   UNL     1      -1.104  15.909  19.709  0.00  0.00    +0.000 A 
ATOM     18  C   UNL     1      -0.338  14.822  20.164  0.00  0.00    +0.000 A 
ATOM     19  S   UNL     1      -0.839  13.443  21.067  0.00  0.00    +0.000 S 
ENDBRANCH   8  11
ENDBRANCH   4   7
BRANCH   1  20
ATOM     20  C   UNL     1       3.026   5.005  19.727  0.00  0.00    +0.000 C 
BRANCH  20  24
ATOM     21  C   UNL     1       7.739   5.824  19.075  0.00  0.00    +0.000 C 
ATOM     22  C   UNL     1       6.373   5.348  18.731  0.00  0.00    +0.000 A 
ATOM     23  N   UNL     1       5.370   5.542  19.589  0.00  0.00    +0.000 NA
ATOM     24  N   UNL     1       4.300   4.953  19.019  0.00  0.00    +0.000 N 
ATOM     25  C   UNL     1       4.564   4.524  17.738  0.00  0.00    +0.000 A 
ATOM     26  C   UNL     1       3.551   3.954  16.813  0.00  0.00    +0.000 C 
ATOM     27  C   UNL     1       5.931   4.694  17.550  0.00  0.00    +0.000 A 
BRANCH  27  28
ATOM     28  C   UNL     1       6.755   4.256  16.375  0.00  0.00    +0.000 C 
BRANCH  28  29
ATOM     29  C   UNL     1       6.872   5.224  15.212  0.00  0.00    +0.000 C 
ATOM     30  O   UNL     1       7.899   5.312  14.546  0.00  0.00    +0.000 OA
BRANCH  29  31
ATOM     31  O   UNL     1       5.799   5.987  14.929  0.00  0.00    +0.000 OA
ATOM     32  H   UNL     1       6.007   6.917  14.711  0.00  0.00    +0.000 HD
ENDBRANCH  29  31
ENDBRANCH  28  29
ENDBRANCH  27  28
ENDBRANCH  20  24
ENDBRANCH   1  20
TORSDOF 7
ENDMDL
MODEL 7
REMARK VINA RESULT:      -7.7      3.429     10.346
REMARK  Name = 
REMARK  9 active torsions:
REMARK  status: ('A' for Active; 'I' for Inactive)
REMARK    1  A    between atoms: C_1  and  C_2
REMARK    2  A    between atoms: N_4  and  C_5
REMARK    3  A    between atoms: C_5  and  C_6
REMARK    4  A    between atoms: C_9  and  N_10
REMARK    5  A    between atoms: C_11  and  C_13
REMARK    6  A    between atoms: C_24  and  C_25
REMARK    7  A    between atoms: C_26  and  C_27
REMARK    8  A    between atoms: C_27  and  C_28
REMARK    9  A    between atoms: C_28  and  O_30
REMARK                            x       y       z     vdW  Elec       q    Type
REMARK                         _______ _______ _______ _____ _____    ______ ____
ROOT
ATOM      1  C   UNL     1      -1.471  12.486  20.385  0.00  0.00    +0.000 A 
ATOM      2  C   UNL     1      -1.235  11.606  21.450  0.00  0.00    +0.000 A 
ATOM      3  C   UNL     1      -0.467  10.459  21.280  0.00  0.00    +0.000 A 
ATOM      4  C   UNL     1       0.077  10.133  20.032  0.00  0.00    +0.000 A 
ATOM      5  C   UNL     1      -0.072  11.049  18.990  0.00  0.00    +0.000 A 
ATOM      6  C   UNL     1      -0.843  12.212  19.158  0.00  0.00    +0.000 A 
ENDROOT
BRANCH   4   7
ATOM      7  N   UNL     1       0.770   8.954  19.739  0.00  0.00    +0.000 N 
ATOM      8  C   UNL     1       1.427   8.141  20.641  0.00  0.00    +0.000 C 
ATOM      9  O   UNL     1       1.602   8.390  21.833  0.00  0.00    +0.000 OA
ATOM     10  H   UNL     1       0.674   8.589  18.807  0.00  0.00    +0.000 HD
BRANCH   8  11
ATOM     11  C   UNL     1       1.952   6.877  20.095  0.00  0.00    +0.000 A 
ATOM     12  C   UNL     1       1.756   5.624  20.641  0.00  0.00    +0.000 A 
ATOM     13  C   UNL     1       2.254   4.573  19.816  0.00  0.00    +0.000 A 
ATOM     14  C   UNL     1       2.179   3.179  19.986  0.00  0.00    +0.000 A 
ATOM     15  C   UNL     1       1.942   2.433  18.840  0.00  0.00    +0.000 A 
ATOM     16  C   UNL     1       2.414   2.904  17.627  0.00  0.00    +0.000 A 
ATOM     17  C   UNL     1       2.970   4.186  17.527  0.00  0.00    +0.000 A 
ATOM     18  C   UNL     1       2.720   5.061  18.598  0.00  0.00    +0.000 A 
ATOM     19  S   UNL     1       2.874   6.776  18.657  0.00  0.00    +0.000 S 
ENDBRANCH   8  11
ENDBRANCH   4   7
BRANCH   1  20
ATOM     20  C   UNL     1      -2.455  13.621  20.529  0.00  0.00    +0.000 C 
BRANCH  20  24
ATOM     21  C   UNL     1      -6.227  12.898  23.453  0.00  0.00    +0.000 C 
ATOM     22  C   UNL     1      -5.455  12.862  22.183  0.00  0.00    +0.000 A 
ATOM     23  N   UNL     1      -4.201  13.317  22.160  0.00  0.00    +0.000 NA
ATOM     24  N   UNL     1      -3.809  13.204  20.876  0.00  0.00    +0.000 N 
ATOM     25  C   UNL     1      -4.736  12.537  20.106  0.00  0.00    +0.000 A 
ATOM     26  C   UNL     1      -4.532  12.147  18.687  0.00  0.00    +0.000 C 
ATOM     27  C   UNL     1      -5.856  12.372  20.912  0.00  0.00    +0.000 A 
BRANCH  27  28
ATOM     28  C   UNL     1      -7.197  11.826  20.515  0.00  0.00    +0.000 C 
BRANCH  28  29
ATOM     29  C   UNL     1      -7.288  10.334  20.258  0.00  0.00    +0.000 C 
ATOM     30  O   UNL     1      -7.407   9.526  21.174  0.00  0.00    +0.000 OA
BRANCH  29  31
ATOM     31  O   UNL     1      -7.241   9.921  18.977  0.00  0.00    +0.000 OA
ATOM     32  H   UNL     1      -7.889  10.354  18.385  0.00  0.00    +0.000 HD
ENDBRANCH  29  31
ENDBRANCH  28  29
ENDBRANCH  27  28
ENDBRANCH  20  24
ENDBRANCH   1  20
TORSDOF 7
ENDMDL
MODEL 8
REMARK VINA RESULT:      -7.7      3.401      4.539
REMARK  Name = 
REMARK  9 active torsions:
REMARK  status: ('A' for Active; 'I' for Inactive)
REMARK    1  A    between atoms: C_1  and  C_2
REMARK    2  A    between atoms: N_4  and  C_5
REMARK    3  A    between atoms: C_5  and  C_6
REMARK    4  A    between atoms: C_9  and  N_10
REMARK    5  A    between atoms: C_11  and  C_13
REMARK    6  A    between atoms: C_24  and  C_25
REMARK    7  A    between atoms: C_26  and  C_27
REMARK    8  A    between atoms: C_27  and  C_28
REMARK    9  A    between atoms: C_28  and  O_30
REMARK                            x       y       z     vdW  Elec       q    Type
REMARK                         _______ _______ _______ _____ _____    ______ ____
ROOT
ATOM      1  C   UNL     1       2.452   6.278  19.729  0.00  0.00    +0.000 A 
ATOM      2  C   UNL     1       1.754   6.771  20.839  0.00  0.00    +0.000 A 
ATOM      3  C   UNL     1       1.222   8.056  20.841  0.00  0.00    +0.000 A 
ATOM      4  C   UNL     1       1.387   8.908  19.743  0.00  0.00    +0.000 A 
ATOM      5  C   UNL     1       1.998   8.395  18.598  0.00  0.00    +0.000 A 
ATOM      6  C   UNL     1       2.533   7.095  18.588  0.00  0.00    +0.000 A 
ENDROOT
BRANCH   4   7
ATOM      7  N   UNL     1       0.983  10.247  19.694  0.00  0.00    +0.000 N 
ATOM      8  C   UNL     1      -0.295  10.711  19.454  0.00  0.00    +0.000 C 
ATOM      9  O   UNL     1      -1.259  10.018  19.132  0.00  0.00    +0.000 OA
ATOM     10  H   UNL     1       1.653  10.936  19.989  0.00  0.00    +0.000 HD
BRANCH   8  11
ATOM     11  C   UNL     1      -0.484  12.165  19.604  0.00  0.00    +0.000 A 
ATOM     12  C   UNL     1      -0.657  12.832  20.799  0.00  0.00    +0.000 A 
ATOM     13  C   UNL     1      -0.665  14.250  20.650  0.00  0.00    +0.000 A 
ATOM     14  C   UNL     1      -0.742  15.262  21.624  0.00  0.00    +0.000 A 
ATOM     15  C   UNL     1       0.053  16.379  21.413  0.00  0.00    +0.000 A 
ATOM     16  C   UNL     1       0.329  16.766  20.112  0.00  0.00    +0.000 A 
ATOM     17  C   UNL     1      -0.040  15.953  19.033  0.00  0.00    +0.000 A 
ATOM     18  C   UNL     1      -0.380  14.624  19.339  0.00  0.00    +0.000 A 
ATOM     19  S   UNL     1      -0.483  13.261  18.290  0.00  0.00    +0.000 S 
ENDBRANCH   8  11
ENDBRANCH   4   7
BRANCH   1  20
ATOM     20  C   UNL     1       3.185   4.960  19.805  0.00  0.00    +0.000 C 
BRANCH  20  24
ATOM     21  C   UNL     1       7.845   5.863  18.928  0.00  0.00    +0.000 C 
ATOM     22  C   UNL     1       6.477   5.349  18.655  0.00  0.00    +0.000 A 
ATOM     23  N   UNL     1       5.508   5.543  19.551  0.00  0.00    +0.000 NA
ATOM     24  N   UNL     1       4.428   4.918  19.043  0.00  0.00    +0.000 N 
ATOM     25  C   UNL     1       4.646   4.462  17.762  0.00  0.00    +0.000 A 
ATOM     26  C   UNL     1       3.607   3.848  16.896  0.00  0.00    +0.000 C 
ATOM     27  C   UNL     1       5.999   4.657  17.510  0.00  0.00    +0.000 A 
BRANCH  27  28
ATOM     28  C   UNL     1       6.781   4.208  16.311  0.00  0.00    +0.000 C 
BRANCH  28  29
ATOM     29  C   UNL     1       6.567   4.973  15.019  0.00  0.00    +0.000 C 
ATOM     30  O   UNL     1       6.885   4.504  13.930  0.00  0.00    +0.000 OA
BRANCH  29  31
ATOM     31  O   UNL     1       6.004   6.193  15.105  0.00  0.00    +0.000 OA
ATOM     32  H   UNL     1       6.528   6.913  14.701  0.00  0.00    +0.000 HD
ENDBRANCH  29  31
ENDBRANCH  28  29
ENDBRANCH  27  28
ENDBRANCH  20  24
ENDBRANCH   1  20
TORSDOF 7
ENDMDL
MODEL 9
REMARK VINA RESULT:      -7.7      3.725      4.877
REMARK  Name = 
REMARK  9 active torsions:
REMARK  status: ('A' for Active; 'I' for Inactive)
REMARK    1  A    between atoms: C_1  and  C_2
REMARK    2  A    between atoms: N_4  and  C_5
REMARK    3  A    between atoms: C_5  and  C_6
REMARK    4  A    between atoms: C_9  and  N_10
REMARK    5  A    between atoms: C_11  and  C_13
REMARK    6  A    between atoms: C_24  and  C_25
REMARK    7  A    between atoms: C_26  and  C_27
REMARK    8  A    between atoms: C_27  and  C_28
REMARK    9  A    between atoms: C_28  and  O_30
REMARK                            x       y       z     vdW  Elec       q    Type
REMARK                         _______ _______ _______ _____ _____    ______ ____
ROOT
ATOM      1  C   UNL     1       2.323   6.719  19.519  0.00  0.00    +0.000 A 
ATOM      2  C   UNL     1       1.677   7.405  20.557  0.00  0.00    +0.000 A 
ATOM      3  C   UNL     1       1.259   8.721  20.399  0.00  0.00    +0.000 A 
ATOM      4  C   UNL     1       1.489   9.414  19.204  0.00  0.00    +0.000 A 
ATOM      5  C   UNL     1       2.044   8.712  18.134  0.00  0.00    +0.000 A 
ATOM      6  C   UNL     1       2.465   7.379  18.287  0.00  0.00    +0.000 A 
ENDROOT
BRANCH   4   7
ATOM      7  N   UNL     1       1.201  10.766  18.989  0.00  0.00    +0.000 N 
ATOM      8  C   UNL     1       1.167  11.761  19.946  0.00  0.00    +0.000 C 
ATOM      9  O   UNL     1       1.274  11.591  21.159  0.00  0.00    +0.000 OA
ATOM     10  H   UNL     1       1.141  11.072  18.034  0.00  0.00    +0.000 HD
BRANCH   8  11
ATOM     11  C   UNL     1       0.984  13.131  19.434  0.00  0.00    +0.000 A 
ATOM     12  C   UNL     1      -0.144  13.908  19.606  0.00  0.00    +0.000 A 
ATOM     13  C   UNL     1       0.021  15.243  19.131  0.00  0.00    +0.000 A 
ATOM     14  C   UNL     1      -0.857  16.339  19.194  0.00  0.00    +0.000 A 
ATOM     15  C   UNL     1      -0.281  17.572  19.466  0.00  0.00    +0.000 A 
ATOM     16  C   UNL     1       1.013  17.814  19.037  0.00  0.00    +0.000 A 
ATOM     17  C   UNL     1       1.788  16.783  18.491  0.00  0.00    +0.000 A 
ATOM     18  C   UNL     1       1.328  15.473  18.709  0.00  0.00    +0.000 A 
ATOM     19  S   UNL     1       2.183  13.984  18.560  0.00  0.00    +0.000 S 
ENDBRANCH   8  11
ENDBRANCH   4   7
BRANCH   1  20
ATOM     20  C   UNL     1       2.939   5.363  19.760  0.00  0.00    +0.000 C 
BRANCH  20  24
ATOM     21  C   UNL     1       7.519   5.474  18.238  0.00  0.00    +0.000 C 
ATOM     22  C   UNL     1       6.074   5.127  18.202  0.00  0.00    +0.000 A 
ATOM     23  N   UNL     1       5.263   5.573  19.162  0.00  0.00    +0.000 NA
ATOM     24  N   UNL     1       4.056   5.045  18.878  0.00  0.00    +0.000 N 
ATOM     25  C   UNL     1       4.046   4.396  17.663  0.00  0.00    +0.000 A 
ATOM     26  C   UNL     1       2.834   3.825  17.022  0.00  0.00    +0.000 C 
ATOM     27  C   UNL     1       5.367   4.362  17.234  0.00  0.00    +0.000 A 
BRANCH  27  28
ATOM     28  C   UNL     1       5.923   3.652  16.035  0.00  0.00    +0.000 C 
BRANCH  28  29
ATOM     29  C   UNL     1       6.077   4.460  14.761  0.00  0.00    +0.000 C 
ATOM     30  O   UNL     1       6.536   5.599  14.770  0.00  0.00    +0.000 OA
BRANCH  29  31
ATOM     31  O   UNL     1       5.697   3.879  13.607  0.00  0.00    +0.000 OA
ATOM     32  H   UNL     1       4.808   3.472  13.630  0.00  0.00    +0.000 HD
ENDBRANCH  29  31
ENDBRANCH  28  29
ENDBRANCH  27  28
ENDBRANCH  20  24
ENDBRANCH   1  20
TORSDOF 7
ENDMDL
