MODEL 1
REMARK VINA RESULT:      -6.3      0.000      0.000
REMARK  Name = 
REMARK  7 active torsions:
REMARK  status: ('A' for Active; 'I' for Inactive)
REMARK    1  A    between atoms: C_1  and  C_2
REMARK    2  A    between atoms: C_2  and  C_3
REMARK    3  A    between atoms: C_2  and  C_4
REMARK    4  A    between atoms: C_6  and  C_7
REMARK    5  A    between atoms: C_14  and  C_15
REMARK    6  A    between atoms: C_15  and  C_16
REMARK    7  A    between atoms: C_15  and  C_17
REMARK                            x       y       z     vdW  Elec       q    Type
REMARK                         _______ _______ _______ _____ _____    ______ ____
ROOT
ATOM      1  C   UNL     1      -2.062  11.737  19.030  0.00  0.00    +0.000 A 
ATOM      2  C   UNL     1      -2.152  12.277  20.342  0.00  0.00    +0.000 A 
ATOM      3  C   UNL     1      -3.324  12.768  20.891  0.00  0.00    +0.000 A 
ATOM      4  C   UNL     1      -4.444  12.637  20.085  0.00  0.00    +0.000 A 
ATOM      5  C   UNL     1      -4.434  11.995  18.816  0.00  0.00    +0.000 A 
ATOM      6  N   UNL     1      -3.218  11.568  18.269  0.00  0.00    +0.000 N 
ATOM      7  C   UNL     1      -3.191  10.997  16.943  0.00  0.00    +0.000 A 
ATOM      8  N   UNL     1      -4.229  11.032  16.123  0.00  0.00    +0.000 NA
ATOM      9  C   UNL     1      -3.898  10.424  14.946  0.00  0.00    +0.000 A 
ATOM     10  C   UNL     1      -2.600  10.019  14.989  0.00  0.00    +0.000 A 
ATOM     11  N   UNL     1      -2.179  10.342  16.250  0.00  0.00    +0.000 N 
ATOM     12  H   UNL     1      -1.256  10.104  16.575  0.00  0.00    +0.000 HD
ENDROOT
BRANCH   3  13
ATOM     13  C   UNL     1      -3.371  13.384  22.241  0.00  0.00    +0.000 A 
ATOM     14  C   UNL     1      -2.936  14.706  22.465  0.00  0.00    +0.000 A 
ATOM     15  C   UNL     1      -2.949  15.275  23.745  0.00  0.00    +0.000 A 
ATOM     16  C   UNL     1      -3.411  14.541  24.832  0.00  0.00    +0.000 A 
ATOM     17  C   UNL     1      -3.863  13.242  24.638  0.00  0.00    +0.000 A 
ATOM     18  C   UNL     1      -3.838  12.669  23.359  0.00  0.00    +0.000 A 
ENDBRANCH   3  13
BRANCH   1  20
ATOM     19  C   UNL     1       0.396  12.542  18.671  0.00  0.00    +0.000 C 
ATOM     20  C   UNL     1      -0.645  11.411  18.545  0.00  0.00    +0.000 C 
ATOM     21  C   UNL     1      -0.111  10.171  19.275  0.00  0.00    +0.000 C 
ENDBRANCH   1  20
BRANCH   5  22
ATOM     22  C   UNL     1      -5.810  11.822  18.134  0.00  0.00    +0.000 C 
ATOM     23  C   UNL     1      -6.739  10.748  18.741  0.00  0.00    +0.000 C 
ATOM     24  C   UNL     1      -6.567  13.154  18.101  0.00  0.00    +0.000 C 
ENDBRANCH   5  22
TORSDOF 3
ENDMDL
MODEL 2
REMARK VINA RESULT:      -6.3      0.196      1.006
REMARK  Name = 
REMARK  7 active torsions:
REMARK  status: ('A' for Active; 'I' for Inactive)
REMARK    1  A    between atoms: C_1  and  C_2
REMARK    2  A    between atoms: C_2  and  C_3
REMARK    3  A    between atoms: C_2  and  C_4
REMARK    4  A    between atoms: C_6  and  C_7
REMARK    5  A    between atoms: C_14  and  C_15
REMARK    6  A    between atoms: C_15  and  C_16
REMARK    7  A    between atoms: C_15  and  C_17
REMARK                            x       y       z     vdW  Elec       q    Type
REMARK                         _______ _______ _______ _____ _____    ______ ____
ROOT
ATOM      1  C   UNL     1      -2.150  11.759  18.948  0.00  0.00    +0.000 A 
ATOM      2  C   UNL     1      -2.251  12.306  20.257  0.00  0.00    +0.000 A 
ATOM      3  C   UNL     1      -3.432  12.779  20.801  0.00  0.00    +0.000 A 
ATOM      4  C   UNL     1      -4.549  12.622  19.994  0.00  0.00    +0.000 A 
ATOM      5  C   UNL     1      -4.526  11.972  18.730  0.00  0.00    +0.000 A 
ATOM      6  N   UNL     1      -3.301  11.564  18.187  0.00  0.00    +0.000 N 
ATOM      7  C   UNL     1      -3.262  10.986  16.864  0.00  0.00    +0.000 A 
ATOM      8  N   UNL     1      -4.300  10.996  16.043  0.00  0.00    +0.000 NA
ATOM      9  C   UNL     1      -3.956  10.386  14.871  0.00  0.00    +0.000 A 
ATOM     10  C   UNL     1      -2.651  10.006  14.918  0.00  0.00    +0.000 A 
ATOM     11  N   UNL     1      -2.237  10.344  16.177  0.00  0.00    +0.000 N 
ATOM     12  H   UNL     1      -1.311  10.126  16.504  0.00  0.00    +0.000 HD
ENDROOT
BRANCH   3  13
ATOM     13  C   UNL     1      -3.492  13.402  22.147  0.00  0.00    +0.000 A 
ATOM     14  C   UNL     1      -3.701  12.631  23.309  0.00  0.00    +0.000 A 
ATOM     15  C   UNL     1      -3.792  13.223  24.575  0.00  0.00    +0.000 A 
ATOM     16  C   UNL     1      -3.662  14.600  24.714  0.00  0.00    +0.000 A 
ATOM     17  C   UNL     1      -3.437  15.383  23.589  0.00  0.00    +0.000 A 
ATOM     18  C   UNL     1      -3.359  14.792  22.320  0.00  0.00    +0.000 A 
ENDBRANCH   3  13
BRANCH   1  20
ATOM     19  C   UNL     1       0.291  12.610  18.575  0.00  0.00    +0.000 C 
ATOM     20  C   UNL     1      -0.726  11.457  18.467  0.00  0.00    +0.000 C 
ATOM     21  C   UNL     1      -0.165  10.238  19.213  0.00  0.00    +0.000 C 
ENDBRANCH   1  20
BRANCH   5  22
ATOM     22  C   UNL     1      -5.897  11.769  18.047  0.00  0.00    +0.000 C 
ATOM     23  C   UNL     1      -6.810  10.689  18.666  0.00  0.00    +0.000 C 
ATOM     24  C   UNL     1      -6.675  13.090  17.997  0.00  0.00    +0.000 C 
ENDBRANCH   5  22
TORSDOF 3
ENDMDL
MODEL 3
REMARK VINA RESULT:      -6.2      0.495      3.626
REMARK  Name = 
REMARK  7 active torsions:
REMARK  status: ('A' for Active; 'I' for Inactive)
REMARK    1  A    between atoms: C_1  and  C_2
REMARK    2  A    between atoms: C_2  and  C_3
REMARK    3  A    between atoms: C_2  and  C_4
REMARK    4  A    between atoms: C_6  and  C_7
REMARK    5  A    between atoms: C_14  and  C_15
REMARK    6  A    between atoms: C_15  and  C_16
REMARK    7  A    between atoms: C_15  and  C_17
REMARK                            x       y       z     vdW  Elec       q    Type
REMARK                         _______ _______ _______ _____ _____    ______ ____
ROOT
ATOM      1  C   UNL     1      -4.804  11.896  18.813  0.00  0.00    +0.000 A 
ATOM      2  C   UNL     1      -4.820  12.506  20.097  0.00  0.00    +0.000 A 
ATOM      3  C   UNL     1      -3.678  12.797  20.822  0.00  0.00    +0.000 A 
ATOM      4  C   UNL     1      -2.487  12.510  20.173  0.00  0.00    +0.000 A 
ATOM      5  C   UNL     1      -2.411  12.014  18.842  0.00  0.00    +0.000 A 
ATOM      6  N   UNL     1      -3.589  11.673  18.166  0.00  0.00    +0.000 N 
ATOM      7  C   UNL     1      -3.514  11.085  16.849  0.00  0.00    +0.000 A 
ATOM      8  N   UNL     1      -2.380  10.662  16.314  0.00  0.00    +0.000 NA
ATOM      9  C   UNL     1      -2.627  10.151  15.072  0.00  0.00    +0.000 A 
ATOM     10  C   UNL     1      -3.962  10.207  14.812  0.00  0.00    +0.000 A 
ATOM     11  N   UNL     1      -4.501  10.828  15.905  0.00  0.00    +0.000 N 
ATOM     12  H   UNL     1      -5.482  11.049  15.955  0.00  0.00    +0.000 HD
ENDROOT
BRANCH   3  13
ATOM     13  C   UNL     1      -3.731  13.376  22.188  0.00  0.00    +0.000 A 
ATOM     14  C   UNL     1      -3.617  14.765  22.406  0.00  0.00    +0.000 A 
ATOM     15  C   UNL     1      -3.632  15.307  23.697  0.00  0.00    +0.000 A 
ATOM     16  C   UNL     1      -3.777  14.478  24.803  0.00  0.00    +0.000 A 
ATOM     17  C   UNL     1      -3.911  13.107  24.617  0.00  0.00    +0.000 A 
ATOM     18  C   UNL     1      -3.882  12.563  23.326  0.00  0.00    +0.000 A 
ENDBRANCH   3  13
BRANCH   1  20
ATOM     19  C   UNL     1      -6.878  10.316  18.954  0.00  0.00    +0.000 C 
ATOM     20  C   UNL     1      -6.174  11.495  18.254  0.00  0.00    +0.000 C 
ATOM     21  C   UNL     1      -7.120  12.704  18.262  0.00  0.00    +0.000 C 
ENDBRANCH   1  20
BRANCH   5  22
ATOM     22  C   UNL     1      -0.992  11.892  18.244  0.00  0.00    +0.000 C 
ATOM     23  C   UNL     1      -0.139  13.179  18.252  0.00  0.00    +0.000 C 
ATOM     24  C   UNL     1      -0.202  10.785  18.952  0.00  0.00    +0.000 C 
ENDBRANCH   5  22
TORSDOF 3
ENDMDL
MODEL 4
REMARK VINA RESULT:      -6.1      0.403      3.752
REMARK  Name = 
REMARK  7 active torsions:
REMARK  status: ('A' for Active; 'I' for Inactive)
REMARK    1  A    between atoms: C_1  and  C_2
REMARK    2  A    between atoms: C_2  and  C_3
REMARK    3  A    between atoms: C_2  and  C_4
REMARK    4  A    between atoms: C_6  and  C_7
REMARK    5  A    between atoms: C_14  and  C_15
REMARK    6  A    between atoms: C_15  and  C_16
REMARK    7  A    between atoms: C_15  and  C_17
REMARK                            x       y       z     vdW  Elec       q    Type
REMARK                         _______ _______ _______ _____ _____    ______ ____
ROOT
ATOM      1  C   UNL     1      -4.715  11.953  18.891  0.00  0.00    +0.000 A 
ATOM      2  C   UNL     1      -4.691  12.544  20.184  0.00  0.00    +0.000 A 
ATOM      3  C   UNL     1      -3.529  12.795  20.892  0.00  0.00    +0.000 A 
ATOM      4  C   UNL     1      -2.358  12.487  20.216  0.00  0.00    +0.000 A 
ATOM      5  C   UNL     1      -2.320  12.010  18.877  0.00  0.00    +0.000 A 
ATOM      6  N   UNL     1      -3.519  11.709  18.218  0.00  0.00    +0.000 N 
ATOM      7  C   UNL     1      -3.483  11.139  16.892  0.00  0.00    +0.000 A 
ATOM      8  N   UNL     1      -2.370  10.696  16.329  0.00  0.00    +0.000 NA
ATOM      9  C   UNL     1      -2.654  10.210  15.085  0.00  0.00    +0.000 A 
ATOM     10  C   UNL     1      -3.991  10.304  14.850  0.00  0.00    +0.000 A 
ATOM     11  N   UNL     1      -4.494  10.922  15.962  0.00  0.00    +0.000 N 
ATOM     12  H   UNL     1      -5.467  11.166  16.035  0.00  0.00    +0.000 HD
ENDROOT
BRANCH   3  13
ATOM     13  C   UNL     1      -3.541  13.354  22.266  0.00  0.00    +0.000 A 
ATOM     14  C   UNL     1      -3.942  12.580  23.375  0.00  0.00    +0.000 A 
ATOM     15  C   UNL     1      -3.987  13.119  24.667  0.00  0.00    +0.000 A 
ATOM     16  C   UNL     1      -3.618  14.442  24.887  0.00  0.00    +0.000 A 
ATOM     17  C   UNL     1      -3.201  15.222  23.816  0.00  0.00    +0.000 A 
ATOM     18  C   UNL     1      -3.168  14.687  22.521  0.00  0.00    +0.000 A 
ENDBRANCH   3  13
BRANCH   1  20
ATOM     19  C   UNL     1      -6.779  10.356  18.973  0.00  0.00    +0.000 C 
ATOM     20  C   UNL     1      -6.105  11.596  18.353  0.00  0.00    +0.000 C 
ATOM     21  C   UNL     1      -7.052  12.795  18.503  0.00  0.00    +0.000 C 
ENDBRANCH   1  20
BRANCH   5  22
ATOM     22  C   UNL     1      -0.915  11.860  18.251  0.00  0.00    +0.000 C 
ATOM     23  C   UNL     1      -0.034  13.128  18.251  0.00  0.00    +0.000 C 
ATOM     24  C   UNL     1      -0.137  10.729  18.934  0.00  0.00    +0.000 C 
ENDBRANCH   5  22
TORSDOF 3
ENDMDL
MODEL 5
REMARK VINA RESULT:      -6.0      2.152      6.261
REMARK  Name = 
REMARK  7 active torsions:
REMARK  status: ('A' for Active; 'I' for Inactive)
REMARK    1  A    between atoms: C_1  and  C_2
REMARK    2  A    between atoms: C_2  and  C_3
REMARK    3  A    between atoms: C_2  and  C_4
REMARK    4  A    between atoms: C_6  and  C_7
REMARK    5  A    between atoms: C_14  and  C_15
REMARK    6  A    between atoms: C_15  and  C_16
REMARK    7  A    between atoms: C_15  and  C_17
REMARK                            x       y       z     vdW  Elec       q    Type
REMARK                         _______ _______ _______ _____ _____    ______ ____
ROOT
ATOM      1  C   UNL     1      -2.786  11.456  18.713  0.00  0.00    +0.000 A 
ATOM      2  C   UNL     1      -1.720  10.527  18.559  0.00  0.00    +0.000 A 
ATOM      3  C   UNL     1      -0.636  10.454  19.416  0.00  0.00    +0.000 A 
ATOM      4  C   UNL     1      -0.689  11.320  20.497  0.00  0.00    +0.000 A 
ATOM      5  C   UNL     1      -1.788  12.182  20.766  0.00  0.00    +0.000 A 
ATOM      6  N   UNL     1      -2.836  12.273  19.842  0.00  0.00    +0.000 N 
ATOM      7  C   UNL     1      -3.909  13.213  20.066  0.00  0.00    +0.000 A 
ATOM      8  N   UNL     1      -3.864  14.145  21.004  0.00  0.00    +0.000 NA
ATOM      9  C   UNL     1      -5.013  14.881  20.966  0.00  0.00    +0.000 A 
ATOM     10  C   UNL     1      -5.807  14.441  19.952  0.00  0.00    +0.000 A 
ATOM     11  N   UNL     1      -5.131  13.375  19.424  0.00  0.00    +0.000 N 
ATOM     12  H   UNL     1      -5.521  12.820  18.680  0.00  0.00    +0.000 HD
ENDROOT
BRANCH   3  13
ATOM     13  C   UNL     1       0.491   9.515  19.191  0.00  0.00    +0.000 A 
ATOM     14  C   UNL     1       1.146   9.433  17.945  0.00  0.00    +0.000 A 
ATOM     15  C   UNL     1       2.187   8.523  17.723  0.00  0.00    +0.000 A 
ATOM     16  C   UNL     1       2.611   7.681  18.745  0.00  0.00    +0.000 A 
ATOM     17  C   UNL     1       1.997   7.753  19.989  0.00  0.00    +0.000 A 
ATOM     18  C   UNL     1       0.946   8.655  20.207  0.00  0.00    +0.000 A 
ENDBRANCH   3  13
BRANCH   1  20
ATOM     19  C   UNL     1      -3.247  11.189  16.157  0.00  0.00    +0.000 C 
ATOM     20  C   UNL     1      -3.799  11.497  17.563  0.00  0.00    +0.000 C 
ATOM     21  C   UNL     1      -4.963  10.541  17.852  0.00  0.00    +0.000 C 
ENDBRANCH   1  20
BRANCH   5  22
ATOM     22  C   UNL     1      -1.723  12.966  22.096  0.00  0.00    +0.000 C 
ATOM     23  C   UNL     1      -2.032  12.159  23.376  0.00  0.00    +0.000 C 
ATOM     24  C   UNL     1      -0.352  13.632  22.264  0.00  0.00    +0.000 C 
ENDBRANCH   5  22
TORSDOF 3
ENDMDL
MODEL 6
REMARK VINA RESULT:      -5.9      2.235      6.388
REMARK  Name = 
REMARK  7 active torsions:
REMARK  status: ('A' for Active; 'I' for Inactive)
REMARK    1  A    between atoms: C_1  and  C_2
REMARK    2  A    between atoms: C_2  and  C_3
REMARK    3  A    between atoms: C_2  and  C_4
REMARK    4  A    between atoms: C_6  and  C_7
REMARK    5  A    between atoms: C_14  and  C_15
REMARK    6  A    between atoms: C_15  and  C_16
REMARK    7  A    between atoms: C_15  and  C_17
REMARK                            x       y       z     vdW  Elec       q    Type
REMARK                         _______ _______ _______ _____ _____    ______ ____
ROOT
ATOM      1  C   UNL     1      -2.583  11.332  18.621  0.00  0.00    +0.000 A 
ATOM      2  C   UNL     1      -1.528  10.392  18.457  0.00  0.00    +0.000 A 
ATOM      3  C   UNL     1      -0.461  10.276  19.330  0.00  0.00    +0.000 A 
ATOM      4  C   UNL     1      -0.521  11.109  20.436  0.00  0.00    +0.000 A 
ATOM      5  C   UNL     1      -1.611  11.979  20.713  0.00  0.00    +0.000 A 
ATOM      6  N   UNL     1      -2.641  12.114  19.773  0.00  0.00    +0.000 N 
ATOM      7  C   UNL     1      -3.704  13.063  20.008  0.00  0.00    +0.000 A 
ATOM      8  N   UNL     1      -3.663  13.965  20.975  0.00  0.00    +0.000 NA
ATOM      9  C   UNL     1      -4.800  14.719  20.940  0.00  0.00    +0.000 A 
ATOM     10  C   UNL     1      -5.581  14.323  19.899  0.00  0.00    +0.000 A 
ATOM     11  N   UNL     1      -4.912  13.263  19.349  0.00  0.00    +0.000 N 
ATOM     12  H   UNL     1      -5.296  12.738  18.582  0.00  0.00    +0.000 HD
ENDROOT
BRANCH   3  13
ATOM     13  C   UNL     1       0.656   9.327  19.096  0.00  0.00    +0.000 A 
ATOM     14  C   UNL     1       1.092   8.437  20.099  0.00  0.00    +0.000 A 
ATOM     15  C   UNL     1       2.169   7.567  19.890  0.00  0.00    +0.000 A 
ATOM     16  C   UNL     1       2.828   7.551  18.666  0.00  0.00    +0.000 A 
ATOM     17  C   UNL     1       2.409   8.404  17.652  0.00  0.00    +0.000 A 
ATOM     18  C   UNL     1       1.339   9.285  17.867  0.00  0.00    +0.000 A 
ENDBRANCH   3  13
BRANCH   1  20
ATOM     19  C   UNL     1      -2.995  11.179  16.047  0.00  0.00    +0.000 C 
ATOM     20  C   UNL     1      -3.574  11.424  17.455  0.00  0.00    +0.000 C 
ATOM     21  C   UNL     1      -4.743  10.455  17.679  0.00  0.00    +0.000 C 
ENDBRANCH   1  20
BRANCH   5  22
ATOM     22  C   UNL     1      -1.559  12.720  22.068  0.00  0.00    +0.000 C 
ATOM     23  C   UNL     1      -1.705  11.842  23.329  0.00  0.00    +0.000 C 
ATOM     24  C   UNL     1      -0.263  13.530  22.190  0.00  0.00    +0.000 C 
ENDBRANCH   5  22
TORSDOF 3
ENDMDL
MODEL 7
REMARK VINA RESULT:      -5.8     11.413     13.236
REMARK  Name = 
REMARK  7 active torsions:
REMARK  status: ('A' for Active; 'I' for Inactive)
REMARK    1  A    between atoms: C_1  and  C_2
REMARK    2  A    between atoms: C_2  and  C_3
REMARK    3  A    between atoms: C_2  and  C_4
REMARK    4  A    between atoms: C_6  and  C_7
REMARK    5  A    between atoms: C_14  and  C_15
REMARK    6  A    between atoms: C_15  and  C_16
REMARK    7  A    between atoms: C_15  and  C_17
REMARK                            x       y       z     vdW  Elec       q    Type
REMARK                         _______ _______ _______ _____ _____    ______ ____
ROOT
ATOM      1  C   UNL     1       8.833  15.284  20.857  0.00  0.00    +0.000 A 
ATOM      2  C   UNL     1       8.316  14.673  22.032  0.00  0.00    +0.000 A 
ATOM      3  C   UNL     1       8.426  13.321  22.305  0.00  0.00    +0.000 A 
ATOM      4  C   UNL     1       9.146  12.595  21.370  0.00  0.00    +0.000 A 
ATOM      5  C   UNL     1       9.789  13.176  20.242  0.00  0.00    +0.000 A 
ATOM      6  N   UNL     1       9.601  14.536  19.967  0.00  0.00    +0.000 N 
ATOM      7  C   UNL     1      10.176  15.111  18.773  0.00  0.00    +0.000 A 
ATOM      8  N   UNL     1      10.713  14.380  17.809  0.00  0.00    +0.000 NA
ATOM      9  C   UNL     1      11.162  15.201  16.815  0.00  0.00    +0.000 A 
ATOM     10  C   UNL     1      10.873  16.495  17.123  0.00  0.00    +0.000 A 
ATOM     11  N   UNL     1      10.297  16.434  18.363  0.00  0.00    +0.000 N 
ATOM     12  H   UNL     1      10.028  17.266  18.860  0.00  0.00    +0.000 HD
ENDROOT
BRANCH   3  13
ATOM     13  C   UNL     1       7.820  12.703  23.511  0.00  0.00    +0.000 A 
ATOM     14  C   UNL     1       6.650  11.919  23.430  0.00  0.00    +0.000 A 
ATOM     15  C   UNL     1       6.059  11.364  24.573  0.00  0.00    +0.000 A 
ATOM     16  C   UNL     1       6.630  11.567  25.824  0.00  0.00    +0.000 A 
ATOM     17  C   UNL     1       7.793  12.320  25.932  0.00  0.00    +0.000 A 
ATOM     18  C   UNL     1       8.377  12.885  24.790  0.00  0.00    +0.000 A 
ENDBRANCH   3  13
BRANCH   1  20
ATOM     19  C   UNL     1       7.018  17.031  20.168  0.00  0.00    +0.000 C 
ATOM     20  C   UNL     1       8.454  16.757  20.657  0.00  0.00    +0.000 C 
ATOM     21  C   UNL     1       8.688  17.542  21.954  0.00  0.00    +0.000 C 
ENDBRANCH   1  20
BRANCH   5  22
ATOM     22  C   UNL     1      10.662  12.224  19.395  0.00  0.00    +0.000 C 
ATOM     23  C   UNL     1      12.059  11.895  19.966  0.00  0.00    +0.000 C 
ATOM     24  C   UNL     1       9.925  10.905  19.132  0.00  0.00    +0.000 C 
ENDBRANCH   5  22
TORSDOF 3
ENDMDL
MODEL 8
REMARK VINA RESULT:      -5.8     11.439     13.044
REMARK  Name = 
REMARK  7 active torsions:
REMARK  status: ('A' for Active; 'I' for Inactive)
REMARK    1  A    between atoms: C_1  and  C_2
REMARK    2  A    between atoms: C_2  and  C_3
REMARK    3  A    between atoms: C_2  and  C_4
REMARK    4  A    between atoms: C_6  and  C_7
REMARK    5  A    between atoms: C_14  and  C_15
REMARK    6  A    between atoms: C_15  and  C_16
REMARK    7  A    between atoms: C_15  and  C_17
REMARK                            x       y       z     vdW  Elec       q    Type
REMARK                         _______ _______ _______ _____ _____    ______ ____
ROOT
ATOM      1  C   UNL     1       9.678  13.098  20.193  0.00  0.00    +0.000 A 
ATOM      2  C   UNL     1       9.043  12.544  21.338  0.00  0.00    +0.000 A 
ATOM      3  C   UNL     1       8.421  13.303  22.313  0.00  0.00    +0.000 A 
ATOM      4  C   UNL     1       8.399  14.667  22.064  0.00  0.00    +0.000 A 
ATOM      5  C   UNL     1       8.910  15.262  20.878  0.00  0.00    +0.000 A 
ATOM      6  N   UNL     1       9.588  14.467  19.945  0.00  0.00    +0.000 N 
ATOM      7  C   UNL     1      10.188  15.080  18.783  0.00  0.00    +0.000 A 
ATOM      8  N   UNL     1      10.307  16.391  18.642  0.00  0.00    +0.000 NA
ATOM      9  C   UNL     1      10.918  16.665  17.453  0.00  0.00    +0.000 A 
ATOM     10  C   UNL     1      11.239  15.502  16.823  0.00  0.00    +0.000 A 
ATOM     11  N   UNL     1      10.744  14.521  17.638  0.00  0.00    +0.000 N 
ATOM     12  H   UNL     1      10.798  13.548  17.385  0.00  0.00    +0.000 HD
ENDROOT
BRANCH   3  13
ATOM     13  C   UNL     1       7.822  12.698  23.529  0.00  0.00    +0.000 A 
ATOM     14  C   UNL     1       6.671  11.885  23.458  0.00  0.00    +0.000 A 
ATOM     15  C   UNL     1       6.086  11.342  24.609  0.00  0.00    +0.000 A 
ATOM     16  C   UNL     1       6.644  11.585  25.859  0.00  0.00    +0.000 A 
ATOM     17  C   UNL     1       7.788  12.367  25.957  0.00  0.00    +0.000 A 
ATOM     18  C   UNL     1       8.366  12.921  24.806  0.00  0.00    +0.000 A 
ENDBRANCH   3  13
BRANCH   1  20
ATOM     19  C   UNL     1      11.910  11.813  19.763  0.00  0.00    +0.000 C 
ATOM     20  C   UNL     1      10.461  12.105  19.326  0.00  0.00    +0.000 C 
ATOM     21  C   UNL     1       9.701  10.775  19.231  0.00  0.00    +0.000 C 
ENDBRANCH   1  20
BRANCH   5  22
ATOM     22  C   UNL     1       8.665  16.779  20.721  0.00  0.00    +0.000 C 
ATOM     23  C   UNL     1       7.211  17.204  20.423  0.00  0.00    +0.000 C 
ATOM     24  C   UNL     1       9.145  17.534  21.966  0.00  0.00    +0.000 C 
ENDBRANCH   5  22
TORSDOF 3
ENDMDL
MODEL 9
REMARK VINA RESULT:      -5.7     11.436     13.021
REMARK  Name = 
REMARK  7 active torsions:
REMARK  status: ('A' for Active; 'I' for Inactive)
REMARK    1  A    between atoms: C_1  and  C_2
REMARK    2  A    between atoms: C_2  and  C_3
REMARK    3  A    between atoms: C_2  and  C_4
REMARK    4  A    between atoms: C_6  and  C_7
REMARK    5  A    between atoms: C_14  and  C_15
REMARK    6  A    between atoms: C_15  and  C_16
REMARK    7  A    between atoms: C_15  and  C_17
REMARK                            x       y       z     vdW  Elec       q    Type
REMARK                         _______ _______ _______ _____ _____    ______ ____
ROOT
ATOM      1  C   UNL     1       9.660  13.105  20.180  0.00  0.00    +0.000 A 
ATOM      2  C   UNL     1       9.017  12.564  21.327  0.00  0.00    +0.000 A 
ATOM      3  C   UNL     1       8.399  13.335  22.296  0.00  0.00    +0.000 A 
ATOM      4  C   UNL     1       8.391  14.697  22.038  0.00  0.00    +0.000 A 
ATOM      5  C   UNL     1       8.910  15.280  20.849  0.00  0.00    +0.000 A 
ATOM      6  N   UNL     1       9.583  14.473  19.923  0.00  0.00    +0.000 N 
ATOM      7  C   UNL     1      10.190  15.073  18.758  0.00  0.00    +0.000 A 
ATOM      8  N   UNL     1      10.321  16.382  18.609  0.00  0.00    +0.000 NA
ATOM      9  C   UNL     1      10.938  16.643  17.419  0.00  0.00    +0.000 A 
ATOM     10  C   UNL     1      11.250  15.473  16.799  0.00  0.00    +0.000 A 
ATOM     11  N   UNL     1      10.744  14.501  17.618  0.00  0.00    +0.000 N 
ATOM     12  H   UNL     1      10.790  13.527  17.372  0.00  0.00    +0.000 HD
ENDROOT
BRANCH   3  13
ATOM     13  C   UNL     1       7.792  12.743  23.514  0.00  0.00    +0.000 A 
ATOM     14  C   UNL     1       8.330  12.978  24.796  0.00  0.00    +0.000 A 
ATOM     15  C   UNL     1       7.777  12.391  25.942  0.00  0.00    +0.000 A 
ATOM     16  C   UNL     1       6.663  11.566  25.837  0.00  0.00    +0.000 A 
ATOM     17  C   UNL     1       6.100  11.332  24.588  0.00  0.00    +0.000 A 
ATOM     18  C   UNL     1       6.662  11.909  23.440  0.00  0.00    +0.000 A 
ENDBRANCH   3  13
BRANCH   1  20
ATOM     19  C   UNL     1      11.890  11.817  19.747  0.00  0.00    +0.000 C 
ATOM     20  C   UNL     1      10.436  12.099  19.321  0.00  0.00    +0.000 C 
ATOM     21  C   UNL     1       9.677  10.767  19.256  0.00  0.00    +0.000 C 
ENDBRANCH   1  20
BRANCH   5  22
ATOM     22  C   UNL     1       8.678  16.798  20.681  0.00  0.00    +0.000 C 
ATOM     23  C   UNL     1       7.230  17.234  20.374  0.00  0.00    +0.000 C 
ATOM     24  C   UNL     1       9.158  17.557  21.925  0.00  0.00    +0.000 C 
ENDBRANCH   5  22
TORSDOF 3
ENDMDL
