MODEL 1
REMARK VINA RESULT:      -7.9      0.000      0.000
REMARK  Name = 
REMARK  6 active torsions:
REMARK  status: ('A' for Active; 'I' for Inactive)
REMARK    1  A    between atoms: C_5  and  C_6
REMARK    2  A    between atoms: C_6  and  O_7
REMARK    3  A    between atoms: C_6  and  C_16
REMARK    4  A    between atoms: O_7  and  C_8
REMARK    5  A    between atoms: C_8  and  C_9
REMARK    6  A    between atoms: C_9  and  N_10
REMARK                            x       y       z     vdW  Elec       q    Type
REMARK                         _______ _______ _______ _____ _____    ______ ____
ROOT
ATOM      1  C   UNL     1       4.073   5.523  18.223  0.00  0.00    +0.000 C 
ENDROOT
BRANCH   1   6
ATOM      2 CL   UNL     1       0.390  10.081  19.729  0.00  0.00    +0.000 Cl
ATOM      3  C   UNL     1       1.447   8.794  19.300  0.00  0.00    +0.000 A 
ATOM      4  C   UNL     1       1.704   7.775  20.213  0.00  0.00    +0.000 A 
ATOM      5  C   UNL     1       2.560   6.728  19.861  0.00  0.00    +0.000 A 
ATOM      6  C   UNL     1       3.157   6.683  18.588  0.00  0.00    +0.000 A 
ATOM      7  C   UNL     1       2.889   7.725  17.686  0.00  0.00    +0.000 A 
ATOM      8  C   UNL     1       2.039   8.775  18.040  0.00  0.00    +0.000 A 
ENDBRANCH   1   6
BRANCH   1   9
ATOM      9  C   UNL     1       5.553   5.878  18.248  0.00  0.00    +0.000 A 
ATOM     10  C   UNL     1       6.066   6.836  17.356  0.00  0.00    +0.000 A 
ATOM     11  C   UNL     1       7.371   7.312  17.500  0.00  0.00    +0.000 A 
ATOM     12  C   UNL     1       8.182   6.827  18.524  0.00  0.00    +0.000 A 
ATOM     13  C   UNL     1       7.694   5.856  19.397  0.00  0.00    +0.000 A 
ATOM     14  C   UNL     1       6.394   5.380  19.260  0.00  0.00    +0.000 A 
ENDBRANCH   1   9
BRANCH   1  15
ATOM     15  O   UNL     1       3.714   4.983  16.927  0.00  0.00    +0.000 OA
BRANCH  15  16
ATOM     16  C   UNL     1       4.004   3.582  16.869  0.00  0.00    +0.000 C 
BRANCH  16  17
ATOM     17  C   UNL     1       2.848   2.708  17.372  0.00  0.00    +0.000 C 
BRANCH  17  18
ATOM     18  N   UNL     1       2.488   3.074  18.757  0.00  0.00    +0.000 NA
ATOM     19  C   UNL     1       1.041   2.993  19.004  0.00  0.00    +0.000 C 
ATOM     20  C   UNL     1       0.694   3.524  20.392  0.00  0.00    +0.000 C 
ATOM     21  C   UNL     1       1.456   2.767  21.470  0.00  0.00    +0.000 C 
ATOM     22  C   UNL     1       2.950   2.768  21.162  0.00  0.00    +0.000 C 
ATOM     23  C   UNL     1       3.237   2.279  19.738  0.00  0.00    +0.000 C 
ENDBRANCH  17  18
ENDBRANCH  16  17
ENDBRANCH  15  16
ENDBRANCH   1  15
TORSDOF 6
ENDMDL
MODEL 2
REMARK VINA RESULT:      -7.9      0.453      1.098
REMARK  Name = 
REMARK  6 active torsions:
REMARK  status: ('A' for Active; 'I' for Inactive)
REMARK    1  A    between atoms: C_5  and  C_6
REMARK    2  A    between atoms: C_6  and  O_7
REMARK    3  A    between atoms: C_6  and  C_16
REMARK    4  A    between atoms: O_7  and  C_8
REMARK    5  A    between atoms: C_8  and  C_9
REMARK    6  A    between atoms: C_9  and  N_10
REMARK                            x       y       z     vdW  Elec       q    Type
REMARK                         _______ _______ _______ _____ _____    ______ ____
ROOT
ATOM      1  C   UNL     1       4.204   5.500  18.116  0.00  0.00    +0.000 C 
ENDROOT
BRANCH   1   6
ATOM      2 CL   UNL     1       0.385   9.935  19.651  0.00  0.00    +0.000 Cl
ATOM      3  C   UNL     1       1.480   8.683  19.214  0.00  0.00    +0.000 A 
ATOM      4  C   UNL     1       1.766   7.664  20.120  0.00  0.00    +0.000 A 
ATOM      5  C   UNL     1       2.652   6.646  19.761  0.00  0.00    +0.000 A 
ATOM      6  C   UNL     1       3.253   6.629  18.488  0.00  0.00    +0.000 A 
ATOM      7  C   UNL     1       2.956   7.670  17.595  0.00  0.00    +0.000 A 
ATOM      8  C   UNL     1       2.075   8.692  17.955  0.00  0.00    +0.000 A 
ENDBRANCH   1   6
BRANCH   1   9
ATOM      9  C   UNL     1       5.675   5.886  18.188  0.00  0.00    +0.000 A 
ATOM     10  C   UNL     1       6.189   6.876  17.332  0.00  0.00    +0.000 A 
ATOM     11  C   UNL     1       7.478   7.377  17.520  0.00  0.00    +0.000 A 
ATOM     12  C   UNL     1       8.273   6.885  18.554  0.00  0.00    +0.000 A 
ATOM     13  C   UNL     1       7.786   5.883  19.391  0.00  0.00    +0.000 A 
ATOM     14  C   UNL     1       6.500   5.383  19.210  0.00  0.00    +0.000 A 
ENDBRANCH   1   9
BRANCH   1  15
ATOM     15  O   UNL     1       3.889   4.987  16.797  0.00  0.00    +0.000 OA
BRANCH  15  16
ATOM     16  C   UNL     1       3.107   3.792  16.897  0.00  0.00    +0.000 C 
BRANCH  16  17
ATOM     17  C   UNL     1       3.729   2.744  17.829  0.00  0.00    +0.000 C 
BRANCH  17  18
ATOM     18  N   UNL     1       2.868   2.527  19.010  0.00  0.00    +0.000 NA
ATOM     19  C   UNL     1       3.540   2.882  20.269  0.00  0.00    +0.000 C 
ATOM     20  C   UNL     1       2.681   2.502  21.472  0.00  0.00    +0.000 C 
ATOM     21  C   UNL     1       1.315   3.167  21.397  0.00  0.00    +0.000 C 
ATOM     22  C   UNL     1       0.658   2.879  20.051  0.00  0.00    +0.000 C 
ATOM     23  C   UNL     1       1.584   3.227  18.880  0.00  0.00    +0.000 C 
ENDBRANCH  17  18
ENDBRANCH  16  17
ENDBRANCH  15  16
ENDBRANCH   1  15
TORSDOF 6
ENDMDL
MODEL 3
REMARK VINA RESULT:      -7.9      0.363      1.477
REMARK  Name = 
REMARK  6 active torsions:
REMARK  status: ('A' for Active; 'I' for Inactive)
REMARK    1  A    between atoms: C_5  and  C_6
REMARK    2  A    between atoms: C_6  and  O_7
REMARK    3  A    between atoms: C_6  and  C_16
REMARK    4  A    between atoms: O_7  and  C_8
REMARK    5  A    between atoms: C_8  and  C_9
REMARK    6  A    between atoms: C_9  and  N_10
REMARK                            x       y       z     vdW  Elec       q    Type
REMARK                         _______ _______ _______ _____ _____    ______ ____
ROOT
ATOM      1  C   UNL     1       3.993   5.540  18.322  0.00  0.00    +0.000 C 
ENDROOT
BRANCH   1   6
ATOM      2 CL   UNL     1       0.471  10.358  19.318  0.00  0.00    +0.000 Cl
ATOM      3  C   UNL     1       1.462   8.980  19.036  0.00  0.00    +0.000 A 
ATOM      4  C   UNL     1       2.090   8.818  17.804  0.00  0.00    +0.000 A 
ATOM      5  C   UNL     1       2.897   7.701  17.578  0.00  0.00    +0.000 A 
ATOM      6  C   UNL     1       3.096   6.740  18.587  0.00  0.00    +0.000 A 
ATOM      7  C   UNL     1       2.448   6.921  19.819  0.00  0.00    +0.000 A 
ATOM      8  C   UNL     1       1.635   8.034  20.043  0.00  0.00    +0.000 A 
ENDBRANCH   1   6
BRANCH   1   9
ATOM      9  C   UNL     1       5.476   5.878  18.275  0.00  0.00    +0.000 A 
ATOM     10  C   UNL     1       5.960   6.811  17.341  0.00  0.00    +0.000 A 
ATOM     11  C   UNL     1       7.274   7.276  17.418  0.00  0.00    +0.000 A 
ATOM     12  C   UNL     1       8.123   6.805  18.417  0.00  0.00    +0.000 A 
ATOM     13  C   UNL     1       7.664   5.858  19.331  0.00  0.00    +0.000 A 
ATOM     14  C   UNL     1       6.354   5.394  19.261  0.00  0.00    +0.000 A 
ENDBRANCH   1   9
BRANCH   1  15
ATOM     15  O   UNL     1       3.598   4.873  17.097  0.00  0.00    +0.000 OA
BRANCH  15  16
ATOM     16  C   UNL     1       3.846   3.466  17.188  0.00  0.00    +0.000 C 
BRANCH  16  17
ATOM     17  C   UNL     1       2.570   2.644  17.408  0.00  0.00    +0.000 C 
BRANCH  17  18
ATOM     18  N   UNL     1       2.285   2.506  18.851  0.00  0.00    +0.000 NA
ATOM     19  C   UNL     1       3.494   2.633  19.677  0.00  0.00    +0.000 C 
ATOM     20  C   UNL     1       3.188   2.332  21.142  0.00  0.00    +0.000 C 
ATOM     21  C   UNL     1       2.091   3.246  21.667  0.00  0.00    +0.000 C 
ATOM     22  C   UNL     1       0.870   3.188  20.754  0.00  0.00    +0.000 C 
ATOM     23  C   UNL     1       1.244   3.442  19.289  0.00  0.00    +0.000 C 
ENDBRANCH  17  18
ENDBRANCH  16  17
ENDBRANCH  15  16
ENDBRANCH   1  15
TORSDOF 6
ENDMDL
MODEL 4
REMARK VINA RESULT:      -7.8      0.113      1.014
REMARK  Name = 
REMARK  6 active torsions:
REMARK  status: ('A' for Active; 'I' for Inactive)
REMARK    1  A    between atoms: C_5  and  C_6
REMARK    2  A    between atoms: C_6  and  O_7
REMARK    3  A    between atoms: C_6  and  C_16
REMARK    4  A    between atoms: O_7  and  C_8
REMARK    5  A    between atoms: C_8  and  C_9
REMARK    6  A    between atoms: C_9  and  N_10
REMARK                            x       y       z     vdW  Elec       q    Type
REMARK                         _______ _______ _______ _____ _____    ______ ____
ROOT
ATOM      1  C   UNL     1       4.171   5.503  18.181  0.00  0.00    +0.000 C 
ENDROOT
BRANCH   1   6
ATOM      2 CL   UNL     1       0.491  10.084  19.622  0.00  0.00    +0.000 Cl
ATOM      3  C   UNL     1       1.527   8.773  19.214  0.00  0.00    +0.000 A 
ATOM      4  C   UNL     1       2.148   8.743  17.967  0.00  0.00    +0.000 A 
ATOM      5  C   UNL     1       2.993   7.680  17.639  0.00  0.00    +0.000 A 
ATOM      6  C   UNL     1       3.235   6.642  18.558  0.00  0.00    +0.000 A 
ATOM      7  C   UNL     1       2.593   6.689  19.805  0.00  0.00    +0.000 A 
ATOM      8  C   UNL     1       1.743   7.748  20.132  0.00  0.00    +0.000 A 
ENDBRANCH   1   6
BRANCH   1   9
ATOM      9  C   UNL     1       5.646   5.878  18.227  0.00  0.00    +0.000 A 
ATOM     10  C   UNL     1       6.149   6.874  17.372  0.00  0.00    +0.000 A 
ATOM     11  C   UNL     1       7.446   7.364  17.539  0.00  0.00    +0.000 A 
ATOM     12  C   UNL     1       8.258   6.856  18.551  0.00  0.00    +0.000 A 
ATOM     13  C   UNL     1       7.781   5.848  19.387  0.00  0.00    +0.000 A 
ATOM     14  C   UNL     1       6.488   5.358  19.226  0.00  0.00    +0.000 A 
ENDBRANCH   1   9
BRANCH   1  15
ATOM     15  O   UNL     1       3.833   4.981  16.872  0.00  0.00    +0.000 OA
BRANCH  15  16
ATOM     16  C   UNL     1       3.982   3.557  16.846  0.00  0.00    +0.000 C 
BRANCH  16  17
ATOM     17  C   UNL     1       2.729   2.813  17.327  0.00  0.00    +0.000 C 
BRANCH  17  18
ATOM     18  N   UNL     1       2.453   3.129  18.743  0.00  0.00    +0.000 NA
ATOM     19  C   UNL     1       1.028   3.003  19.081  0.00  0.00    +0.000 C 
ATOM     20  C   UNL     1       0.760   3.483  20.504  0.00  0.00    +0.000 C 
ATOM     21  C   UNL     1       1.609   2.717  21.507  0.00  0.00    +0.000 C 
ATOM     22  C   UNL     1       3.080   2.766  21.103  0.00  0.00    +0.000 C 
ATOM     23  C   UNL     1       3.284   2.326  19.648  0.00  0.00    +0.000 C 
ENDBRANCH  17  18
ENDBRANCH  16  17
ENDBRANCH  15  16
ENDBRANCH   1  15
TORSDOF 6
ENDMDL
MODEL 5
REMARK VINA RESULT:      -7.7      1.894      5.001
REMARK  Name = 
REMARK  6 active torsions:
REMARK  status: ('A' for Active; 'I' for Inactive)
REMARK    1  A    between atoms: C_5  and  C_6
REMARK    2  A    between atoms: C_6  and  O_7
REMARK    3  A    between atoms: C_6  and  C_16
REMARK    4  A    between atoms: O_7  and  C_8
REMARK    5  A    between atoms: C_8  and  C_9
REMARK    6  A    between atoms: C_9  and  N_10
REMARK                            x       y       z     vdW  Elec       q    Type
REMARK                         _______ _______ _______ _____ _____    ______ ____
ROOT
ATOM      1  C   UNL     1       2.988   6.079  18.829  0.00  0.00    +0.000 C 
ENDROOT
BRANCH   1   6
ATOM      2 CL   UNL     1       0.173  11.402  19.423  0.00  0.00    +0.000 Cl
ATOM      3  C   UNL     1       0.985   9.894  19.251  0.00  0.00    +0.000 A 
ATOM      4  C   UNL     1       1.125   9.053  20.353  0.00  0.00    +0.000 A 
ATOM      5  C   UNL     1       1.780   7.828  20.210  0.00  0.00    +0.000 A 
ATOM      6  C   UNL     1       2.292   7.425  18.962  0.00  0.00    +0.000 A 
ATOM      7  C   UNL     1       2.145   8.292  17.868  0.00  0.00    +0.000 A 
ATOM      8  C   UNL     1       1.496   9.521  18.011  0.00  0.00    +0.000 A 
ENDBRANCH   1   6
BRANCH   1   9
ATOM      9  C   UNL     1       2.095   4.889  19.156  0.00  0.00    +0.000 A 
ATOM     10  C   UNL     1       1.674   4.020  18.135  0.00  0.00    +0.000 A 
ATOM     11  C   UNL     1       1.025   2.823  18.446  0.00  0.00    +0.000 A 
ATOM     12  C   UNL     1       0.777   2.489  19.776  0.00  0.00    +0.000 A 
ATOM     13  C   UNL     1       1.164   3.356  20.796  0.00  0.00    +0.000 A 
ATOM     14  C   UNL     1       1.814   4.549  20.492  0.00  0.00    +0.000 A 
ENDBRANCH   1   9
BRANCH   1  15
ATOM     15  O   UNL     1       4.182   6.043  19.651  0.00  0.00    +0.000 OA
BRANCH  15  16
ATOM     16  C   UNL     1       4.987   4.907  19.317  0.00  0.00    +0.000 C 
BRANCH  16  17
ATOM     17  C   UNL     1       6.291   5.284  18.602  0.00  0.00    +0.000 C 
BRANCH  17  18
ATOM     18  N   UNL     1       6.136   5.151  17.139  0.00  0.00    +0.000 NA
ATOM     19  C   UNL     1       7.411   4.879  16.460  0.00  0.00    +0.000 C 
ATOM     20  C   UNL     1       7.237   4.902  14.944  0.00  0.00    +0.000 C 
ATOM     21  C   UNL     1       6.180   3.901  14.502  0.00  0.00    +0.000 C 
ATOM     22  C   UNL     1       4.885   4.120  15.278  0.00  0.00    +0.000 C 
ATOM     23  C   UNL     1       5.126   4.144  16.791  0.00  0.00    +0.000 C 
ENDBRANCH  17  18
ENDBRANCH  16  17
ENDBRANCH  15  16
ENDBRANCH   1  15
TORSDOF 6
ENDMDL
MODEL 6
REMARK VINA RESULT:      -7.6      3.427      6.394
REMARK  Name = 
REMARK  6 active torsions:
REMARK  status: ('A' for Active; 'I' for Inactive)
REMARK    1  A    between atoms: C_5  and  C_6
REMARK    2  A    between atoms: C_6  and  O_7
REMARK    3  A    between atoms: C_6  and  C_16
REMARK    4  A    between atoms: O_7  and  C_8
REMARK    5  A    between atoms: C_8  and  C_9
REMARK    6  A    between atoms: C_9  and  N_10
REMARK                            x       y       z     vdW  Elec       q    Type
REMARK                         _______ _______ _______ _____ _____    ______ ____
ROOT
ATOM      1  C   UNL     1       3.347   6.332  19.056  0.00  0.00    +0.000 C 
ENDROOT
BRANCH   1   6
ATOM      2 CL   UNL     1       7.238   4.908  14.646  0.00  0.00    +0.000 Cl
ATOM      3  C   UNL     1       6.121   5.310  15.892  0.00  0.00    +0.000 A 
ATOM      4  C   UNL     1       6.111   4.576  17.076  0.00  0.00    +0.000 A 
ATOM      5  C   UNL     1       5.207   4.907  18.088  0.00  0.00    +0.000 A 
ATOM      6  C   UNL     1       4.312   5.983  17.932  0.00  0.00    +0.000 A 
ATOM      7  C   UNL     1       4.336   6.703  16.727  0.00  0.00    +0.000 A 
ATOM      8  C   UNL     1       5.235   6.369  15.712  0.00  0.00    +0.000 A 
ENDBRANCH   1   6
BRANCH   1   9
ATOM      9  C   UNL     1       2.365   5.219  19.392  0.00  0.00    +0.000 A 
ATOM     10  C   UNL     1       1.680   4.547  18.364  0.00  0.00    +0.000 A 
ATOM     11  C   UNL     1       0.932   3.401  18.642  0.00  0.00    +0.000 A 
ATOM     12  C   UNL     1       0.848   2.923  19.949  0.00  0.00    +0.000 A 
ATOM     13  C   UNL     1       1.499   3.597  20.980  0.00  0.00    +0.000 A 
ATOM     14  C   UNL     1       2.248   4.738  20.708  0.00  0.00    +0.000 A 
ENDBRANCH   1   9
BRANCH   1  15
ATOM     15  O   UNL     1       2.628   7.552  18.744  0.00  0.00    +0.000 OA
BRANCH  15  16
ATOM     16  C   UNL     1       1.897   8.009  19.888  0.00  0.00    +0.000 C 
BRANCH  16  17
ATOM     17  C   UNL     1       1.096   9.289  19.616  0.00  0.00    +0.000 C 
BRANCH  17  18
ATOM     18  N   UNL     1       0.666   9.909  20.885  0.00  0.00    +0.000 NA
ATOM     19  C   UNL     1      -0.301  10.998  20.681  0.00  0.00    +0.000 C 
ATOM     20  C   UNL     1      -0.603  11.712  21.996  0.00  0.00    +0.000 C 
ATOM     21  C   UNL     1      -1.122  10.735  23.040  0.00  0.00    +0.000 C 
ATOM     22  C   UNL     1      -0.167   9.554  23.182  0.00  0.00    +0.000 C 
ATOM     23  C   UNL     1       0.145   8.910  21.827  0.00  0.00    +0.000 C 
ENDBRANCH  17  18
ENDBRANCH  16  17
ENDBRANCH  15  16
ENDBRANCH   1  15
TORSDOF 6
ENDMDL
MODEL 7
REMARK VINA RESULT:      -7.6      1.859      5.047
REMARK  Name = 
REMARK  6 active torsions:
REMARK  status: ('A' for Active; 'I' for Inactive)
REMARK    1  A    between atoms: C_5  and  C_6
REMARK    2  A    between atoms: C_6  and  O_7
REMARK    3  A    between atoms: C_6  and  C_16
REMARK    4  A    between atoms: O_7  and  C_8
REMARK    5  A    between atoms: C_8  and  C_9
REMARK    6  A    between atoms: C_9  and  N_10
REMARK                            x       y       z     vdW  Elec       q    Type
REMARK                         _______ _______ _______ _____ _____    ______ ____
ROOT
ATOM      1  C   UNL     1       2.972   6.111  18.780  0.00  0.00    +0.000 C 
ENDROOT
BRANCH   1   6
ATOM      2 CL   UNL     1       0.269  11.495  19.334  0.00  0.00    +0.000 Cl
ATOM      3  C   UNL     1       1.026   9.958  19.180  0.00  0.00    +0.000 A 
ATOM      4  C   UNL     1       1.582   9.580  17.960  0.00  0.00    +0.000 A 
ATOM      5  C   UNL     1       2.200   8.333  17.837  0.00  0.00    +0.000 A 
ATOM      6  C   UNL     1       2.280   7.457  18.936  0.00  0.00    +0.000 A 
ATOM      7  C   UNL     1       1.706   7.857  20.153  0.00  0.00    +0.000 A 
ATOM      8  C   UNL     1       1.082   9.100  20.275  0.00  0.00    +0.000 A 
ENDBRANCH   1   6
BRANCH   1   9
ATOM      9  C   UNL     1       2.095   4.922  19.149  0.00  0.00    +0.000 A 
ATOM     10  C   UNL     1       1.671   4.021  18.157  0.00  0.00    +0.000 A 
ATOM     11  C   UNL     1       1.038   2.827  18.507  0.00  0.00    +0.000 A 
ATOM     12  C   UNL     1       0.808   2.526  19.848  0.00  0.00    +0.000 A 
ATOM     13  C   UNL     1       1.198   3.425  20.840  0.00  0.00    +0.000 A 
ATOM     14  C   UNL     1       1.832   4.615  20.496  0.00  0.00    +0.000 A 
ENDBRANCH   1   9
BRANCH   1  15
ATOM     15  O   UNL     1       4.199   6.080  19.551  0.00  0.00    +0.000 OA
BRANCH  15  16
ATOM     16  C   UNL     1       4.962   4.910  19.235  0.00  0.00    +0.000 C 
BRANCH  16  17
ATOM     17  C   UNL     1       6.350   5.233  18.668  0.00  0.00    +0.000 C 
BRANCH  17  18
ATOM     18  N   UNL     1       6.492   4.683  17.304  0.00  0.00    +0.000 NA
ATOM     19  C   UNL     1       5.262   4.032  16.829  0.00  0.00    +0.000 C 
ATOM     20  C   UNL     1       5.494   3.344  15.487  0.00  0.00    +0.000 C 
ATOM     21  C   UNL     1       6.004   4.332  14.448  0.00  0.00    +0.000 C 
ATOM     22  C   UNL     1       7.223   5.078  14.980  0.00  0.00    +0.000 C 
ATOM     23  C   UNL     1       6.953   5.702  16.354  0.00  0.00    +0.000 C 
ENDBRANCH  17  18
ENDBRANCH  16  17
ENDBRANCH  15  16
ENDBRANCH   1  15
TORSDOF 6
ENDMDL
MODEL 8
REMARK VINA RESULT:      -7.6      2.699      5.514
REMARK  Name = 
REMARK  6 active torsions:
REMARK  status: ('A' for Active; 'I' for Inactive)
REMARK    1  A    between atoms: C_5  and  C_6
REMARK    2  A    between atoms: C_6  and  O_7
REMARK    3  A    between atoms: C_6  and  C_16
REMARK    4  A    between atoms: O_7  and  C_8
REMARK    5  A    between atoms: C_8  and  C_9
REMARK    6  A    between atoms: C_9  and  N_10
REMARK                            x       y       z     vdW  Elec       q    Type
REMARK                         _______ _______ _______ _____ _____    ______ ____
ROOT
ATOM      1  C   UNL     1       3.606   5.936  17.550  0.00  0.00    +0.000 C 
ENDROOT
BRANCH   1   6
ATOM      2 CL   UNL     1       0.454  10.213  20.446  0.00  0.00    +0.000 Cl
ATOM      3  C   UNL     1       1.360   9.005  19.621  0.00  0.00    +0.000 A 
ATOM      4  C   UNL     1       1.737   7.844  20.291  0.00  0.00    +0.000 A 
ATOM      5  C   UNL     1       2.469   6.863  19.618  0.00  0.00    +0.000 A 
ATOM      6  C   UNL     1       2.821   7.027  18.265  0.00  0.00    +0.000 A 
ATOM      7  C   UNL     1       2.437   8.209  17.613  0.00  0.00    +0.000 A 
ATOM      8  C   UNL     1       1.711   9.194  18.287  0.00  0.00    +0.000 A 
ENDBRANCH   1   6
BRANCH   1   9
ATOM      9  C   UNL     1       3.194   4.524  17.943  0.00  0.00    +0.000 A 
ATOM     10  C   UNL     1       4.085   3.699  18.652  0.00  0.00    +0.000 A 
ATOM     11  C   UNL     1       3.654   2.485  19.187  0.00  0.00    +0.000 A 
ATOM     12  C   UNL     1       2.334   2.073  19.010  0.00  0.00    +0.000 A 
ATOM     13  C   UNL     1       1.448   2.869  18.285  0.00  0.00    +0.000 A 
ATOM     14  C   UNL     1       1.873   4.082  17.751  0.00  0.00    +0.000 A 
ENDBRANCH   1   9
BRANCH   1  15
ATOM     15  O   UNL     1       5.029   6.115  17.762  0.00  0.00    +0.000 OA
BRANCH  15  16
ATOM     16  C   UNL     1       5.680   6.456  16.532  0.00  0.00    +0.000 C 
BRANCH  16  17
ATOM     17  C   UNL     1       6.700   5.403  16.082  0.00  0.00    +0.000 C 
BRANCH  17  18
ATOM     18  N   UNL     1       6.554   5.127  14.638  0.00  0.00    +0.000 NA
ATOM     19  C   UNL     1       7.810   5.321  13.898  0.00  0.00    +0.000 C 
ATOM     20  C   UNL     1       7.584   5.178  12.395  0.00  0.00    +0.000 C 
ATOM     21  C   UNL     1       6.980   3.822  12.061  0.00  0.00    +0.000 C 
ATOM     22  C   UNL     1       5.729   3.579  12.901  0.00  0.00    +0.000 C 
ATOM     23  C   UNL     1       5.998   3.790  14.395  0.00  0.00    +0.000 C 
ENDBRANCH  17  18
ENDBRANCH  16  17
ENDBRANCH  15  16
ENDBRANCH   1  15
TORSDOF 6
ENDMDL
MODEL 9
REMARK VINA RESULT:      -7.6      3.344      6.398
REMARK  Name = 
REMARK  6 active torsions:
REMARK  status: ('A' for Active; 'I' for Inactive)
REMARK    1  A    between atoms: C_5  and  C_6
REMARK    2  A    between atoms: C_6  and  O_7
REMARK    3  A    between atoms: C_6  and  C_16
REMARK    4  A    between atoms: O_7  and  C_8
REMARK    5  A    between atoms: C_8  and  C_9
REMARK    6  A    between atoms: C_9  and  N_10
REMARK                            x       y       z     vdW  Elec       q    Type
REMARK                         _______ _______ _______ _____ _____    ______ ____
ROOT
ATOM      1  C   UNL     1       3.193   6.178  18.866  0.00  0.00    +0.000 C 
ENDROOT
BRANCH   1   6
ATOM      2 CL   UNL     1       6.647   4.452  14.207  0.00  0.00    +0.000 Cl
ATOM      3  C   UNL     1       5.655   4.947  15.523  0.00  0.00    +0.000 A 
ATOM      4  C   UNL     1       5.218   4.006  16.452  0.00  0.00    +0.000 A 
ATOM      5  C   UNL     1       4.416   4.410  17.522  0.00  0.00    +0.000 A 
ATOM      6  C   UNL     1       4.054   5.761  17.682  0.00  0.00    +0.000 A 
ATOM      7  C   UNL     1       4.501   6.690  16.730  0.00  0.00    +0.000 A 
ATOM      8  C   UNL     1       5.297   6.286  15.655  0.00  0.00    +0.000 A 
ENDBRANCH   1   6
BRANCH   1   9
ATOM      9  C   UNL     1       2.360   5.045  19.450  0.00  0.00    +0.000 A 
ATOM     10  C   UNL     1       1.542   4.265  18.613  0.00  0.00    +0.000 A 
ATOM     11  C   UNL     1       0.931   3.107  19.098  0.00  0.00    +0.000 A 
ATOM     12  C   UNL     1       1.118   2.724  20.425  0.00  0.00    +0.000 A 
ATOM     13  C   UNL     1       1.903   3.504  21.272  0.00  0.00    +0.000 A 
ATOM     14  C   UNL     1       2.517   4.658  20.792  0.00  0.00    +0.000 A 
ENDBRANCH   1   9
BRANCH   1  15
ATOM     15  O   UNL     1       2.335   7.288  18.501  0.00  0.00    +0.000 OA
BRANCH  15  16
ATOM     16  C   UNL     1       1.958   8.034  19.664  0.00  0.00    +0.000 C 
BRANCH  16  17
ATOM     17  C   UNL     1       1.172   9.308  19.331  0.00  0.00    +0.000 C 
BRANCH  17  18
ATOM     18  N   UNL     1       0.236   9.638  20.425  0.00  0.00    +0.000 NA
ATOM     19  C   UNL     1       0.595   8.982  21.691  0.00  0.00    +0.000 C 
ATOM     20  C   UNL     1      -0.476   9.221  22.751  0.00  0.00    +0.000 C 
ATOM     21  C   UNL     1      -0.700  10.709  22.974  0.00  0.00    +0.000 C 
ATOM     22  C   UNL     1      -0.977  11.408  21.646  0.00  0.00    +0.000 C 
ATOM     23  C   UNL     1       0.099  11.089  20.601  0.00  0.00    +0.000 C 
ENDBRANCH  17  18
ENDBRANCH  16  17
ENDBRANCH  15  16
ENDBRANCH   1  15
TORSDOF 6
ENDMDL
