MODEL 1
REMARK VINA RESULT:      -7.5      0.000      0.000
REMARK  Name = 
REMARK  8 active torsions:
REMARK  status: ('A' for Active; 'I' for Inactive)
REMARK    1  A    between atoms: C_2  and  C_3
REMARK    2  A    between atoms: C_2  and  C_15
REMARK    3  A    between atoms: C_5  and  O_6
REMARK    4  A    between atoms: O_6  and  C_7
REMARK    5  A    between atoms: C_8  and  O_9
REMARK    6  A    between atoms: O_9  and  C_10
REMARK    7  A    between atoms: C_11  and  O_12
REMARK    8  A    between atoms: O_12  and  C_13
REMARK                            x       y       z     vdW  Elec       q    Type
REMARK                         _______ _______ _______ _____ _____    ______ ____
ROOT
ATOM      1  C   UNL     1       4.759   4.435  16.511  0.00  0.00    +0.000 A 
ATOM      2  C   UNL     1       5.684   5.364  16.968  0.00  0.00    +0.000 A 
ATOM      3  C   UNL     1       6.839   5.657  16.236  0.00  0.00    +0.000 A 
ATOM      4  C   UNL     1       7.054   5.046  14.974  0.00  0.00    +0.000 A 
ATOM      5  C   UNL     1       6.163   4.061  14.521  0.00  0.00    +0.000 A 
ATOM      6  C   UNL     1       5.025   3.747  15.304  0.00  0.00    +0.000 A 
ENDROOT
BRANCH   1   8
ATOM      7  C   UNL     1       2.922   3.023  16.975  0.00  0.00    +0.000 C 
ATOM      8  C   UNL     1       3.535   4.160  17.334  0.00  0.00    +0.000 C 
BRANCH   8   9
ATOM      9  C   UNL     1       3.163   5.002  18.465  0.00  0.00    +0.000 A 
ATOM     10  C   UNL     1       3.404   4.545  19.749  0.00  0.00    +0.000 A 
ATOM     11  S   UNL     1       2.340   5.257  20.866  0.00  0.00    +0.000 S 
ATOM     12  C   UNL     1       2.132   6.610  19.831  0.00  0.00    +0.000 A 
ATOM     13  C   UNL     1       1.554   7.834  20.212  0.00  0.00    +0.000 A 
ATOM     14  C   UNL     1       1.649   8.912  19.341  0.00  0.00    +0.000 A 
ATOM     15  C   UNL     1       2.199   8.739  18.080  0.00  0.00    +0.000 A 
ATOM     16  C   UNL     1       2.649   7.475  17.655  0.00  0.00    +0.000 A 
ATOM     17  C   UNL     1       2.662   6.370  18.551  0.00  0.00    +0.000 A 
ENDBRANCH   8   9
ENDBRANCH   1   8
BRANCH   3  18
ATOM     18  O   UNL     1       7.785   6.545  16.672  0.00  0.00    +0.000 OA
ATOM     19  C   UNL     1       7.297   7.603  17.493  0.00  0.00    +0.000 C 
ENDBRANCH   3  18
BRANCH   4  20
ATOM     20  O   UNL     1       8.100   5.599  14.263  0.00  0.00    +0.000 OA
ATOM     21  C   UNL     1       8.080   5.627  12.844  0.00  0.00    +0.000 C 
ENDBRANCH   4  20
BRANCH   5  22
ATOM     22  O   UNL     1       6.406   3.497  13.298  0.00  0.00    +0.000 OA
ATOM     23  C   UNL     1       5.340   3.333  12.376  0.00  0.00    +0.000 C 
ENDBRANCH   5  22
TORSDOF 5
ENDMDL
MODEL 2
REMARK VINA RESULT:      -7.4      0.224      2.688
REMARK  Name = 
REMARK  8 active torsions:
REMARK  status: ('A' for Active; 'I' for Inactive)
REMARK    1  A    between atoms: C_2  and  C_3
REMARK    2  A    between atoms: C_2  and  C_15
REMARK    3  A    between atoms: C_5  and  O_6
REMARK    4  A    between atoms: O_6  and  C_7
REMARK    5  A    between atoms: C_8  and  O_9
REMARK    6  A    between atoms: O_9  and  C_10
REMARK    7  A    between atoms: C_11  and  O_12
REMARK    8  A    between atoms: O_12  and  C_13
REMARK                            x       y       z     vdW  Elec       q    Type
REMARK                         _______ _______ _______ _____ _____    ______ ____
ROOT
ATOM      1  C   UNL     1       4.681   4.579  16.577  0.00  0.00    +0.000 A 
ATOM      2  C   UNL     1       4.900   3.857  15.411  0.00  0.00    +0.000 A 
ATOM      3  C   UNL     1       6.014   4.108  14.603  0.00  0.00    +0.000 A 
ATOM      4  C   UNL     1       6.975   5.074  14.997  0.00  0.00    +0.000 A 
ATOM      5  C   UNL     1       6.742   5.855  16.139  0.00  0.00    +0.000 A 
ATOM      6  C   UNL     1       5.583   5.615  16.916  0.00  0.00    +0.000 A 
ENDROOT
BRANCH   1   8
ATOM      7  C   UNL     1       2.882   3.121  17.046  0.00  0.00    +0.000 C 
ATOM      8  C   UNL     1       3.472   4.268  17.410  0.00  0.00    +0.000 C 
BRANCH   8   9
ATOM      9  C   UNL     1       3.094   5.089  18.553  0.00  0.00    +0.000 A 
ATOM     10  C   UNL     1       3.344   4.619  19.831  0.00  0.00    +0.000 A 
ATOM     11  S   UNL     1       2.275   5.301  20.960  0.00  0.00    +0.000 S 
ATOM     12  C   UNL     1       2.046   6.665  19.944  0.00  0.00    +0.000 A 
ATOM     13  C   UNL     1       1.454   7.877  20.343  0.00  0.00    +0.000 A 
ATOM     14  C   UNL     1       1.532   8.968  19.487  0.00  0.00    +0.000 A 
ATOM     15  C   UNL     1       2.080   8.819  18.222  0.00  0.00    +0.000 A 
ATOM     16  C   UNL     1       2.545   7.567  17.778  0.00  0.00    +0.000 A 
ATOM     17  C   UNL     1       2.575   6.450  18.660  0.00  0.00    +0.000 A 
ENDBRANCH   8   9
ENDBRANCH   1   8
BRANCH   3  18
ATOM     18  O   UNL     1       6.244   3.435  13.433  0.00  0.00    +0.000 OA
ATOM     19  C   UNL     1       5.203   3.522  12.464  0.00  0.00    +0.000 C 
ENDBRANCH   3  18
BRANCH   4  20
ATOM     20  O   UNL     1       8.127   5.048  14.237  0.00  0.00    +0.000 OA
ATOM     21  C   UNL     1       8.203   5.759  13.010  0.00  0.00    +0.000 C 
ENDBRANCH   4  20
BRANCH   5  22
ATOM     22  O   UNL     1       7.695   6.775  16.486  0.00  0.00    +0.000 OA
ATOM     23  C   UNL     1       7.497   7.596  17.626  0.00  0.00    +0.000 C 
ENDBRANCH   5  22
TORSDOF 5
ENDMDL
MODEL 3
REMARK VINA RESULT:      -7.0      3.173      5.473
REMARK  Name = 
REMARK  8 active torsions:
REMARK  status: ('A' for Active; 'I' for Inactive)
REMARK    1  A    between atoms: C_2  and  C_3
REMARK    2  A    between atoms: C_2  and  C_15
REMARK    3  A    between atoms: C_5  and  O_6
REMARK    4  A    between atoms: O_6  and  C_7
REMARK    5  A    between atoms: C_8  and  O_9
REMARK    6  A    between atoms: O_9  and  C_10
REMARK    7  A    between atoms: C_11  and  O_12
REMARK    8  A    between atoms: O_12  and  C_13
REMARK                            x       y       z     vdW  Elec       q    Type
REMARK                         _______ _______ _______ _____ _____    ______ ____
ROOT
ATOM      1  C   UNL     1       2.677   6.366  19.201  0.00  0.00    +0.000 A 
ATOM      2  C   UNL     1       3.997   5.974  19.018  0.00  0.00    +0.000 A 
ATOM      3  C   UNL     1       4.408   4.666  19.294  0.00  0.00    +0.000 A 
ATOM      4  C   UNL     1       3.460   3.697  19.713  0.00  0.00    +0.000 A 
ATOM      5  C   UNL     1       2.136   4.086  19.961  0.00  0.00    +0.000 A 
ATOM      6  C   UNL     1       1.754   5.429  19.720  0.00  0.00    +0.000 A 
ENDROOT
BRANCH   1   8
ATOM      7  C   UNL     1       2.668   8.155  17.658  0.00  0.00    +0.000 C 
ATOM      8  C   UNL     1       2.288   7.781  18.887  0.00  0.00    +0.000 C 
BRANCH   8   9
ATOM      9  C   UNL     1       1.482   8.579  19.803  0.00  0.00    +0.000 A 
ATOM     10  C   UNL     1       1.375   8.181  21.124  0.00  0.00    +0.000 A 
ATOM     11  S   UNL     1      -0.063   8.751  21.827  0.00  0.00    +0.000 S 
ATOM     12  C   UNL     1      -0.119  10.045  20.700  0.00  0.00    +0.000 A 
ATOM     13  C   UNL     1      -0.941  11.180  20.818  0.00  0.00    +0.000 A 
ATOM     14  C   UNL     1      -0.726  12.248  19.955  0.00  0.00    +0.000 A 
ATOM     15  C   UNL     1       0.201  12.135  18.929  0.00  0.00    +0.000 A 
ATOM     16  C   UNL     1       0.920  10.941  18.734  0.00  0.00    +0.000 A 
ATOM     17  C   UNL     1       0.803   9.863  19.655  0.00  0.00    +0.000 A 
ENDBRANCH   8   9
ENDBRANCH   1   8
BRANCH   3  18
ATOM     18  O   UNL     1       5.705   4.255  19.152  0.00  0.00    +0.000 OA
ATOM     19  C   UNL     1       6.305   4.546  17.893  0.00  0.00    +0.000 C 
ENDBRANCH   3  18
BRANCH   4  20
ATOM     20  O   UNL     1       3.955   2.408  19.719  0.00  0.00    +0.000 OA
ATOM     21  C   UNL     1       3.684   1.521  18.643  0.00  0.00    +0.000 C 
ENDBRANCH   4  20
BRANCH   5  22
ATOM     22  O   UNL     1       1.253   3.120  20.363  0.00  0.00    +0.000 OA
ATOM     23  C   UNL     1       1.353   2.577  21.670  0.00  0.00    +0.000 C 
ENDBRANCH   5  22
TORSDOF 5
ENDMDL
MODEL 4
REMARK VINA RESULT:      -6.9      4.999      7.840
REMARK  Name = 
REMARK  8 active torsions:
REMARK  status: ('A' for Active; 'I' for Inactive)
REMARK    1  A    between atoms: C_2  and  C_3
REMARK    2  A    between atoms: C_2  and  C_15
REMARK    3  A    between atoms: C_5  and  O_6
REMARK    4  A    between atoms: O_6  and  C_7
REMARK    5  A    between atoms: C_8  and  O_9
REMARK    6  A    between atoms: O_9  and  C_10
REMARK    7  A    between atoms: C_11  and  O_12
REMARK    8  A    between atoms: O_12  and  C_13
REMARK                            x       y       z     vdW  Elec       q    Type
REMARK                         _______ _______ _______ _____ _____    ______ ____
ROOT
ATOM      1  C   UNL     1       1.901   8.248  19.070  0.00  0.00    +0.000 A 
ATOM      2  C   UNL     1       1.103   9.125  18.348  0.00  0.00    +0.000 A 
ATOM      3  C   UNL     1       0.297  10.068  18.993  0.00  0.00    +0.000 A 
ATOM      4  C   UNL     1       0.327  10.182  20.407  0.00  0.00    +0.000 A 
ATOM      5  C   UNL     1       1.081   9.267  21.158  0.00  0.00    +0.000 A 
ATOM      6  C   UNL     1       1.853   8.289  20.484  0.00  0.00    +0.000 A 
ENDROOT
BRANCH   1   8
ATOM      7  C   UNL     1       3.083   7.685  17.103  0.00  0.00    +0.000 C 
ATOM      8  C   UNL     1       2.751   7.258  18.329  0.00  0.00    +0.000 C 
BRANCH   8   9
ATOM      9  C   UNL     1       3.235   6.035  18.959  0.00  0.00    +0.000 A 
ATOM     10  C   UNL     1       4.594   5.878  19.163  0.00  0.00    +0.000 A 
ATOM     11  S   UNL     1       5.022   4.235  19.230  0.00  0.00    +0.000 S 
ATOM     12  C   UNL     1       3.431   3.824  19.726  0.00  0.00    +0.000 A 
ATOM     13  C   UNL     1       3.052   2.584  20.271  0.00  0.00    +0.000 A 
ATOM     14  C   UNL     1       1.786   2.464  20.831  0.00  0.00    +0.000 A 
ATOM     15  C   UNL     1       0.886   3.515  20.741  0.00  0.00    +0.000 A 
ATOM     16  C   UNL     1       1.227   4.704  20.071  0.00  0.00    +0.000 A 
ATOM     17  C   UNL     1       2.545   4.904  19.573  0.00  0.00    +0.000 A 
ENDBRANCH   8   9
ENDBRANCH   1   8
BRANCH   3  18
ATOM     18  O   UNL     1      -0.523  10.927  18.313  0.00  0.00    +0.000 OA
ATOM     19  C   UNL     1      -1.699  10.341  17.762  0.00  0.00    +0.000 C 
ENDBRANCH   3  18
BRANCH   4  20
ATOM     20  O   UNL     1      -0.329  11.297  20.886  0.00  0.00    +0.000 OA
ATOM     21  C   UNL     1       0.381  12.498  21.155  0.00  0.00    +0.000 C 
ENDBRANCH   4  20
BRANCH   5  22
ATOM     22  O   UNL     1       1.085   9.411  22.519  0.00  0.00    +0.000 OA
ATOM     23  C   UNL     1      -0.143   9.401  23.230  0.00  0.00    +0.000 C 
ENDBRANCH   5  22
TORSDOF 5
ENDMDL
MODEL 5
REMARK VINA RESULT:      -6.9      3.419      6.947
REMARK  Name = 
REMARK  8 active torsions:
REMARK  status: ('A' for Active; 'I' for Inactive)
REMARK    1  A    between atoms: C_2  and  C_3
REMARK    2  A    between atoms: C_2  and  C_15
REMARK    3  A    between atoms: C_5  and  O_6
REMARK    4  A    between atoms: O_6  and  C_7
REMARK    5  A    between atoms: C_8  and  O_9
REMARK    6  A    between atoms: O_9  and  C_10
REMARK    7  A    between atoms: C_11  and  O_12
REMARK    8  A    between atoms: O_12  and  C_13
REMARK                            x       y       z     vdW  Elec       q    Type
REMARK                         _______ _______ _______ _____ _____    ______ ____
ROOT
ATOM      1  C   UNL     1       2.461   6.810  18.963  0.00  0.00    +0.000 A 
ATOM      2  C   UNL     1       1.843   7.031  20.187  0.00  0.00    +0.000 A 
ATOM      3  C   UNL     1       1.278   8.271  20.499  0.00  0.00    +0.000 A 
ATOM      4  C   UNL     1       1.277   9.314  19.537  0.00  0.00    +0.000 A 
ATOM      5  C   UNL     1       1.948   9.132  18.319  0.00  0.00    +0.000 A 
ATOM      6  C   UNL     1       2.554   7.882  18.045  0.00  0.00    +0.000 A 
ENDROOT
BRANCH   1   8
ATOM      7  C   UNL     1       2.127   4.486  18.697  0.00  0.00    +0.000 C 
ATOM      8  C   UNL     1       3.049   5.459  18.678  0.00  0.00    +0.000 C 
BRANCH   8   9
ATOM      9  C   UNL     1       4.448   5.292  18.307  0.00  0.00    +0.000 A 
ATOM     10  C   UNL     1       5.405   5.230  19.305  0.00  0.00    +0.000 A 
ATOM     11  S   UNL     1       6.925   5.727  18.734  0.00  0.00    +0.000 S 
ATOM     12  C   UNL     1       6.482   5.301  17.132  0.00  0.00    +0.000 A 
ATOM     13  C   UNL     1       7.378   5.168  16.056  0.00  0.00    +0.000 A 
ATOM     14  C   UNL     1       6.917   4.605  14.873  0.00  0.00    +0.000 A 
ATOM     15  C   UNL     1       5.573   4.295  14.731  0.00  0.00    +0.000 A 
ATOM     16  C   UNL     1       4.657   4.560  15.765  0.00  0.00    +0.000 A 
ATOM     17  C   UNL     1       5.105   5.041  17.027  0.00  0.00    +0.000 A 
ENDBRANCH   8   9
ENDBRANCH   1   8
BRANCH   3  18
ATOM     18  O   UNL     1       0.687   8.531  21.706  0.00  0.00    +0.000 OA
ATOM     19  C   UNL     1       1.521   9.170  22.669  0.00  0.00    +0.000 C 
ENDBRANCH   3  18
BRANCH   4  20
ATOM     20  O   UNL     1       0.486  10.389  19.889  0.00  0.00    +0.000 OA
ATOM     21  C   UNL     1      -0.856  10.483  19.435  0.00  0.00    +0.000 C 
ENDBRANCH   4  20
BRANCH   5  22
ATOM     22  O   UNL     1       1.923  10.162  17.418  0.00  0.00    +0.000 OA
ATOM     23  C   UNL     1       2.501  11.411  17.763  0.00  0.00    +0.000 C 
ENDBRANCH   5  22
TORSDOF 5
ENDMDL
MODEL 6
REMARK VINA RESULT:      -6.9      3.289      5.914
REMARK  Name = 
REMARK  8 active torsions:
REMARK  status: ('A' for Active; 'I' for Inactive)
REMARK    1  A    between atoms: C_2  and  C_3
REMARK    2  A    between atoms: C_2  and  C_15
REMARK    3  A    between atoms: C_5  and  O_6
REMARK    4  A    between atoms: O_6  and  C_7
REMARK    5  A    between atoms: C_8  and  O_9
REMARK    6  A    between atoms: O_9  and  C_10
REMARK    7  A    between atoms: C_11  and  O_12
REMARK    8  A    between atoms: O_12  and  C_13
REMARK                            x       y       z     vdW  Elec       q    Type
REMARK                         _______ _______ _______ _____ _____    ______ ____
ROOT
ATOM      1  C   UNL     1       2.338   7.856  18.683  0.00  0.00    +0.000 A 
ATOM      2  C   UNL     1       3.161   7.333  17.695  0.00  0.00    +0.000 A 
ATOM      3  C   UNL     1       3.627   6.016  17.764  0.00  0.00    +0.000 A 
ATOM      4  C   UNL     1       3.213   5.170  18.825  0.00  0.00    +0.000 A 
ATOM      5  C   UNL     1       2.430   5.696  19.864  0.00  0.00    +0.000 A 
ATOM      6  C   UNL     1       2.010   7.047  19.796  0.00  0.00    +0.000 A 
ENDROOT
BRANCH   1   8
ATOM      7  C   UNL     1       2.562   9.970  17.652  0.00  0.00    +0.000 C 
ATOM      8  C   UNL     1       1.863   9.275  18.560  0.00  0.00    +0.000 C 
BRANCH   8   9
ATOM      9  C   UNL     1       0.692   9.759  19.280  0.00  0.00    +0.000 A 
ATOM     10  C   UNL     1      -0.440  10.107  18.564  0.00  0.00    +0.000 A 
ATOM     11  S   UNL     1      -1.378  11.246  19.407  0.00  0.00    +0.000 S 
ATOM     12  C   UNL     1      -0.724  10.704  20.898  0.00  0.00    +0.000 A 
ATOM     13  C   UNL     1      -1.247  11.012  22.167  0.00  0.00    +0.000 A 
ATOM     14  C   UNL     1      -0.753  10.331  23.272  0.00  0.00    +0.000 A 
ATOM     15  C   UNL     1       0.313   9.456  23.128  0.00  0.00    +0.000 A 
ATOM     16  C   UNL     1       0.922   9.259  21.875  0.00  0.00    +0.000 A 
ATOM     17  C   UNL     1       0.382   9.859  20.703  0.00  0.00    +0.000 A 
ENDBRANCH   8   9
ENDBRANCH   1   8
BRANCH   3  18
ATOM     18  O   UNL     1       4.463   5.478  16.823  0.00  0.00    +0.000 OA
ATOM     19  C   UNL     1       5.186   6.422  16.038  0.00  0.00    +0.000 C 
ENDBRANCH   3  18
BRANCH   4  20
ATOM     20  O   UNL     1       3.554   3.845  18.640  0.00  0.00    +0.000 OA
ATOM     21  C   UNL     1       4.580   3.244  19.415  0.00  0.00    +0.000 C 
ENDBRANCH   4  20
BRANCH   5  22
ATOM     22  O   UNL     1       2.051   4.847  20.868  0.00  0.00    +0.000 OA
ATOM     23  C   UNL     1       1.021   3.899  20.635  0.00  0.00    +0.000 C 
ENDBRANCH   5  22
TORSDOF 5
ENDMDL
MODEL 7
REMARK VINA RESULT:      -6.9      2.220      4.296
REMARK  Name = 
REMARK  8 active torsions:
REMARK  status: ('A' for Active; 'I' for Inactive)
REMARK    1  A    between atoms: C_2  and  C_3
REMARK    2  A    between atoms: C_2  and  C_15
REMARK    3  A    between atoms: C_5  and  O_6
REMARK    4  A    between atoms: O_6  and  C_7
REMARK    5  A    between atoms: C_8  and  O_9
REMARK    6  A    between atoms: O_9  and  C_10
REMARK    7  A    between atoms: C_11  and  O_12
REMARK    8  A    between atoms: O_12  and  C_13
REMARK                            x       y       z     vdW  Elec       q    Type
REMARK                         _______ _______ _______ _____ _____    ______ ____
ROOT
ATOM      1  C   UNL     1       3.302   6.082  18.553  0.00  0.00    +0.000 A 
ATOM      2  C   UNL     1       3.241   4.725  18.264  0.00  0.00    +0.000 A 
ATOM      3  C   UNL     1       4.180   4.123  17.421  0.00  0.00    +0.000 A 
ATOM      4  C   UNL     1       5.252   4.885  16.890  0.00  0.00    +0.000 A 
ATOM      5  C   UNL     1       5.298   6.269  17.121  0.00  0.00    +0.000 A 
ATOM      6  C   UNL     1       4.308   6.865  17.940  0.00  0.00    +0.000 A 
ENDROOT
BRANCH   1   8
ATOM      7  C   UNL     1       1.972   5.873  20.495  0.00  0.00    +0.000 C 
ATOM      8  C   UNL     1       2.271   6.678  19.467  0.00  0.00    +0.000 C 
BRANCH   8   9
ATOM      9  C   UNL     1       1.772   8.035  19.281  0.00  0.00    +0.000 A 
ATOM     10  C   UNL     1       1.764   8.580  18.010  0.00  0.00    +0.000 A 
ATOM     11  S   UNL     1       1.833  10.277  18.065  0.00  0.00    +0.000 S 
ATOM     12  C   UNL     1       1.143  10.270  19.636  0.00  0.00    +0.000 A 
ATOM     13  C   UNL     1       0.609  11.397  20.286  0.00  0.00    +0.000 A 
ATOM     14  C   UNL     1      -0.114  11.208  21.457  0.00  0.00    +0.000 A 
ATOM     15  C   UNL     1      -0.198   9.945  22.024  0.00  0.00    +0.000 A 
ATOM     16  C   UNL     1       0.457   8.846  21.439  0.00  0.00    +0.000 A 
ATOM     17  C   UNL     1       1.122   8.978  20.188  0.00  0.00    +0.000 A 
ENDBRANCH   8   9
ENDBRANCH   1   8
BRANCH   3  18
ATOM     18  O   UNL     1       4.132   2.795  17.092  0.00  0.00    +0.000 OA
ATOM     19  C   UNL     1       3.450   1.959  18.023  0.00  0.00    +0.000 C 
ENDBRANCH   3  18
BRANCH   4  20
ATOM     20  O   UNL     1       6.223   4.121  16.276  0.00  0.00    +0.000 OA
ATOM     21  C   UNL     1       6.334   4.086  14.861  0.00  0.00    +0.000 C 
ENDBRANCH   4  20
BRANCH   5  22
ATOM     22  O   UNL     1       6.349   6.968  16.592  0.00  0.00    +0.000 OA
ATOM     23  C   UNL     1       7.440   7.332  17.424  0.00  0.00    +0.000 C 
ENDBRANCH   5  22
TORSDOF 5
ENDMDL
MODEL 8
REMARK VINA RESULT:      -6.8      4.760      7.593
REMARK  Name = 
REMARK  8 active torsions:
REMARK  status: ('A' for Active; 'I' for Inactive)
REMARK    1  A    between atoms: C_2  and  C_3
REMARK    2  A    between atoms: C_2  and  C_15
REMARK    3  A    between atoms: C_5  and  O_6
REMARK    4  A    between atoms: O_6  and  C_7
REMARK    5  A    between atoms: C_8  and  O_9
REMARK    6  A    between atoms: O_9  and  C_10
REMARK    7  A    between atoms: C_11  and  O_12
REMARK    8  A    between atoms: O_12  and  C_13
REMARK                            x       y       z     vdW  Elec       q    Type
REMARK                         _______ _______ _______ _____ _____    ______ ____
ROOT
ATOM      1  C   UNL     1       2.139   7.949  18.747  0.00  0.00    +0.000 A 
ATOM      2  C   UNL     1       1.412   8.861  17.993  0.00  0.00    +0.000 A 
ATOM      3  C   UNL     1       0.453   9.689  18.586  0.00  0.00    +0.000 A 
ATOM      4  C   UNL     1       0.249   9.649  19.989  0.00  0.00    +0.000 A 
ATOM      5  C   UNL     1       0.930   8.694  20.760  0.00  0.00    +0.000 A 
ATOM      6  C   UNL     1       1.861   7.834  20.130  0.00  0.00    +0.000 A 
ENDROOT
BRANCH   1   8
ATOM      7  C   UNL     1       3.780   7.725  17.062  0.00  0.00    +0.000 C 
ATOM      8  C   UNL     1       3.158   7.086  18.063  0.00  0.00    +0.000 C 
BRANCH   8   9
ATOM      9  C   UNL     1       3.485   5.750  18.546  0.00  0.00    +0.000 A 
ATOM     10  C   UNL     1       4.678   5.552  19.219  0.00  0.00    +0.000 A 
ATOM     11  S   UNL     1       5.203   3.942  19.084  0.00  0.00    +0.000 S 
ATOM     12  C   UNL     1       3.589   3.420  18.825  0.00  0.00    +0.000 A 
ATOM     13  C   UNL     1       3.152   2.085  18.896  0.00  0.00    +0.000 A 
ATOM     14  C   UNL     1       1.786   1.831  18.884  0.00  0.00    +0.000 A 
ATOM     15  C   UNL     1       0.890   2.871  18.687  0.00  0.00    +0.000 A 
ATOM     16  C   UNL     1       1.342   4.186  18.478  0.00  0.00    +0.000 A 
ATOM     17  C   UNL     1       2.726   4.503  18.583  0.00  0.00    +0.000 A 
ENDBRANCH   8   9
ENDBRANCH   1   8
BRANCH   3  18
ATOM     18  O   UNL     1      -0.300  10.577  17.867  0.00  0.00    +0.000 OA
ATOM     19  C   UNL     1      -1.515  10.056  17.335  0.00  0.00    +0.000 C 
ENDBRANCH   3  18
BRANCH   4  20
ATOM     20  O   UNL     1      -0.546  10.674  20.461  0.00  0.00    +0.000 OA
ATOM     21  C   UNL     1       0.031  11.881  20.935  0.00  0.00    +0.000 C 
ENDBRANCH   4  20
BRANCH   5  22
ATOM     22  O   UNL     1       0.706   8.690  22.110  0.00  0.00    +0.000 OA
ATOM     23  C   UNL     1       1.633   9.321  22.978  0.00  0.00    +0.000 C 
ENDBRANCH   5  22
TORSDOF 5
ENDMDL
MODEL 9
REMARK VINA RESULT:      -6.8      4.550      7.567
REMARK  Name = 
REMARK  8 active torsions:
REMARK  status: ('A' for Active; 'I' for Inactive)
REMARK    1  A    between atoms: C_2  and  C_3
REMARK    2  A    between atoms: C_2  and  C_15
REMARK    3  A    between atoms: C_5  and  O_6
REMARK    4  A    between atoms: O_6  and  C_7
REMARK    5  A    between atoms: C_8  and  O_9
REMARK    6  A    between atoms: O_9  and  C_10
REMARK    7  A    between atoms: C_11  and  O_12
REMARK    8  A    between atoms: O_12  and  C_13
REMARK                            x       y       z     vdW  Elec       q    Type
REMARK                         _______ _______ _______ _____ _____    ______ ____
ROOT
ATOM      1  C   UNL     1       2.128   7.856  18.805  0.00  0.00    +0.000 A 
ATOM      2  C   UNL     1       1.380   8.692  17.987  0.00  0.00    +0.000 A 
ATOM      3  C   UNL     1       0.511   9.645  18.528  0.00  0.00    +0.000 A 
ATOM      4  C   UNL     1       0.425   9.811  19.934  0.00  0.00    +0.000 A 
ATOM      5  C   UNL     1       1.127   8.938  20.778  0.00  0.00    +0.000 A 
ATOM      6  C   UNL     1       1.964   7.949  20.207  0.00  0.00    +0.000 A 
ENDROOT
BRANCH   1   8
ATOM      7  C   UNL     1       4.094   7.430  17.565  0.00  0.00    +0.000 C 
ATOM      8  C   UNL     1       3.049   6.853  18.173  0.00  0.00    +0.000 C 
BRANCH   8   9
ATOM      9  C   UNL     1       2.849   5.418  18.334  0.00  0.00    +0.000 A 
ATOM     10  C   UNL     1       3.227   4.568  17.309  0.00  0.00    +0.000 A 
ATOM     11  S   UNL     1       2.335   3.123  17.344  0.00  0.00    +0.000 S 
ATOM     12  C   UNL     1       2.052   3.319  19.026  0.00  0.00    +0.000 A 
ATOM     13  C   UNL     1       1.571   2.315  19.885  0.00  0.00    +0.000 A 
ATOM     14  C   UNL     1       1.599   2.543  21.255  0.00  0.00    +0.000 A 
ATOM     15  C   UNL     1       1.984   3.783  21.744  0.00  0.00    +0.000 A 
ATOM     16  C   UNL     1       2.332   4.828  20.869  0.00  0.00    +0.000 A 
ATOM     17  C   UNL     1       2.413   4.605  19.466  0.00  0.00    +0.000 A 
ENDBRANCH   8   9
ENDBRANCH   1   8
BRANCH   3  18
ATOM     18  O   UNL     1      -0.263  10.464  17.751  0.00  0.00    +0.000 OA
ATOM     19  C   UNL     1      -1.536   9.937  17.387  0.00  0.00    +0.000 C 
ENDBRANCH   3  18
BRANCH   4  20
ATOM     20  O   UNL     1      -0.283  10.933  20.315  0.00  0.00    +0.000 OA
ATOM     21  C   UNL     1       0.391  12.125  20.691  0.00  0.00    +0.000 C 
ENDBRANCH   4  20
BRANCH   5  22
ATOM     22  O   UNL     1       1.018   9.133  22.129  0.00  0.00    +0.000 OA
ATOM     23  C   UNL     1      -0.232   8.930  22.769  0.00  0.00    +0.000 C 
ENDBRANCH   5  22
TORSDOF 5
ENDMDL
