MODEL 1
REMARK VINA RESULT:      -8.1      0.000      0.000
REMARK  Name = 
REMARK  3 active torsions:
REMARK  status: ('A' for Active; 'I' for Inactive)
REMARK    1  A    between atoms: O_1  and  C_2
REMARK    2  A    between atoms: N_7  and  C_8
REMARK    3  A    between atoms: C_8  and  C_9
REMARK                            x       y       z     vdW  Elec       q    Type
REMARK                         _______ _______ _______ _____ _____    ______ ____
ROOT
ATOM      1  C   UNL     1       2.873   5.790  20.381  0.00  0.00    +0.000 C 
ATOM      2  O   UNL     1       3.946   5.950  19.441  0.00  0.00    +0.000 OA
ATOM      3  C   UNL     1       3.995   4.821  18.522  0.00  0.00    +0.000 C 
ATOM      4  C   UNL     1       5.279   4.032  18.811  0.00  0.00    +0.000 C 
ATOM      5  C   UNL     1       6.514   4.770  18.299  0.00  0.00    +0.000 C 
ATOM      6  N   UNL     1       6.437   5.118  16.873  0.00  0.00    +0.000 NA
ATOM      7  C   UNL     1       5.273   5.995  16.659  0.00  0.00    +0.000 C 
ATOM      8  C   UNL     1       3.940   5.372  17.090  0.00  0.00    +0.000 C 
ATOM      9  C   UNL     1       2.782   4.008  18.860  0.00  0.00    +0.000 A 
ATOM     10  C   UNL     1       2.299   2.847  18.269  0.00  0.00    +0.000 A 
ATOM     11  C   UNL     1       1.138   2.269  18.787  0.00  0.00    +0.000 A 
ATOM     12  C   UNL     1       0.480   2.853  19.880  0.00  0.00    +0.000 A 
ATOM     13  C   UNL     1       0.978   4.019  20.465  0.00  0.00    +0.000 A 
ATOM     14  C   UNL     1       2.132   4.581  19.940  0.00  0.00    +0.000 A 
ENDROOT
BRANCH   1  15
ATOM     15  O   UNL     1       2.040   6.923  20.317  0.00  0.00    +0.000 OA
ATOM     16  H   UNL     1       1.473   6.753  19.547  0.00  0.00    +0.000 HD
ENDBRANCH   1  15
BRANCH   6  17
ATOM     17  C   UNL     1       6.412   3.958  15.963  0.00  0.00    +0.000 C 
BRANCH  17  18
ATOM     18  C   UNL     1       6.717   4.283  14.515  0.00  0.00    +0.000 A 
ATOM     19  C   UNL     1       6.002   3.651  13.482  0.00  0.00    +0.000 A 
ATOM     20  C   UNL     1       6.275   3.950  12.146  0.00  0.00    +0.000 A 
ATOM     21  C   UNL     1       7.257   4.883  11.842  0.00  0.00    +0.000 A 
ATOM     22  F   UNL     1       7.518   5.169  10.560  0.00  0.00    +0.000 F 
ATOM     23  C   UNL     1       7.972   5.524  12.848  0.00  0.00    +0.000 A 
ATOM     24  C   UNL     1       7.703   5.224  14.184  0.00  0.00    +0.000 A 
ENDBRANCH  17  18
ENDBRANCH   6  17
TORSDOF 3
ENDMDL
MODEL 2
REMARK VINA RESULT:      -8.1      0.056      1.011
REMARK  Name = 
REMARK  3 active torsions:
REMARK  status: ('A' for Active; 'I' for Inactive)
REMARK    1  A    between atoms: O_1  and  C_2
REMARK    2  A    between atoms: N_7  and  C_8
REMARK    3  A    between atoms: C_8  and  C_9
REMARK                            x       y       z     vdW  Elec       q    Type
REMARK                         _______ _______ _______ _____ _____    ______ ____
ROOT
ATOM      1  C   UNL     1       2.857   5.871  20.341  0.00  0.00    +0.000 C 
ATOM      2  O   UNL     1       3.934   6.018  19.405  0.00  0.00    +0.000 OA
ATOM      3  C   UNL     1       3.991   4.874  18.505  0.00  0.00    +0.000 C 
ATOM      4  C   UNL     1       5.275   4.093  18.814  0.00  0.00    +0.000 C 
ATOM      5  C   UNL     1       6.511   4.825  18.296  0.00  0.00    +0.000 C 
ATOM      6  N   UNL     1       6.441   5.150  16.865  0.00  0.00    +0.000 NA
ATOM      7  C   UNL     1       5.276   6.020  16.630  0.00  0.00    +0.000 C 
ATOM      8  C   UNL     1       3.942   5.401  17.064  0.00  0.00    +0.000 C 
ATOM      9  C   UNL     1       2.778   4.064  18.850  0.00  0.00    +0.000 A 
ATOM     10  C   UNL     1       2.300   2.892  18.276  0.00  0.00    +0.000 A 
ATOM     11  C   UNL     1       1.138   2.320  18.796  0.00  0.00    +0.000 A 
ATOM     12  C   UNL     1       0.472   2.920  19.876  0.00  0.00    +0.000 A 
ATOM     13  C   UNL     1       0.965   4.097  20.444  0.00  0.00    +0.000 A 
ATOM     14  C   UNL     1       2.120   4.654  19.917  0.00  0.00    +0.000 A 
ENDROOT
BRANCH   1  15
ATOM     15  O   UNL     1       2.021   7.001  20.254  0.00  0.00    +0.000 OA
ATOM     16  H   UNL     1       1.638   6.941  19.364  0.00  0.00    +0.000 HD
ENDBRANCH   1  15
BRANCH   6  17
ATOM     17  C   UNL     1       6.423   3.974  15.974  0.00  0.00    +0.000 C 
BRANCH  17  18
ATOM     18  C   UNL     1       6.707   4.280  14.517  0.00  0.00    +0.000 A 
ATOM     19  C   UNL     1       7.700   5.214  14.170  0.00  0.00    +0.000 A 
ATOM     20  C   UNL     1       7.968   5.496  12.830  0.00  0.00    +0.000 A 
ATOM     21  C   UNL     1       7.251   4.843  11.837  0.00  0.00    +0.000 A 
ATOM     22  F   UNL     1       7.509   5.115  10.551  0.00  0.00    +0.000 F 
ATOM     23  C   UNL     1       6.268   3.912  12.158  0.00  0.00    +0.000 A 
ATOM     24  C   UNL     1       5.996   3.631  13.497  0.00  0.00    +0.000 A 
ENDBRANCH  17  18
ENDBRANCH   6  17
TORSDOF 3
ENDMDL
MODEL 3
REMARK VINA RESULT:      -7.3      1.731      2.764
REMARK  Name = 
REMARK  3 active torsions:
REMARK  status: ('A' for Active; 'I' for Inactive)
REMARK    1  A    between atoms: O_1  and  C_2
REMARK    2  A    between atoms: N_7  and  C_8
REMARK    3  A    between atoms: C_8  and  C_9
REMARK                            x       y       z     vdW  Elec       q    Type
REMARK                         _______ _______ _______ _____ _____    ______ ____
ROOT
ATOM      1  C   UNL     1       2.037   4.731  20.796  0.00  0.00    +0.000 C 
ATOM      2  O   UNL     1       2.994   4.247  19.842  0.00  0.00    +0.000 OA
ATOM      3  C   UNL     1       3.286   5.270  18.846  0.00  0.00    +0.000 C 
ATOM      4  C   UNL     1       2.726   4.792  17.500  0.00  0.00    +0.000 C 
ATOM      5  C   UNL     1       3.580   3.674  16.906  0.00  0.00    +0.000 C 
ATOM      6  N   UNL     1       5.000   4.032  16.772  0.00  0.00    +0.000 NA
ATOM      7  C   UNL     1       5.540   4.346  18.106  0.00  0.00    +0.000 C 
ATOM      8  C   UNL     1       4.806   5.487  18.820  0.00  0.00    +0.000 C 
ATOM      9  C   UNL     1       2.551   6.485  19.328  0.00  0.00    +0.000 A 
ATOM     10  C   UNL     1       2.512   7.767  18.796  0.00  0.00    +0.000 A 
ATOM     11  C   UNL     1       1.730   8.731  19.436  0.00  0.00    +0.000 A 
ATOM     12  C   UNL     1       1.003   8.404  20.590  0.00  0.00    +0.000 A 
ATOM     13  C   UNL     1       1.050   7.110  21.113  0.00  0.00    +0.000 A 
ATOM     14  C   UNL     1       1.830   6.163  20.467  0.00  0.00    +0.000 A 
ENDROOT
BRANCH   1  15
ATOM     15  O   UNL     1       2.580   4.602  22.089  0.00  0.00    +0.000 OA
ATOM     16  H   UNL     1       3.536   4.697  21.953  0.00  0.00    +0.000 HD
ENDBRANCH   1  15
BRANCH   6  17
ATOM     17  C   UNL     1       5.265   5.122  15.814  0.00  0.00    +0.000 C 
BRANCH  17  18
ATOM     18  C   UNL     1       5.920   4.681  14.520  0.00  0.00    +0.000 A 
ATOM     19  C   UNL     1       5.284   3.744  13.688  0.00  0.00    +0.000 A 
ATOM     20  C   UNL     1       5.881   3.338  12.493  0.00  0.00    +0.000 A 
ATOM     21  C   UNL     1       7.109   3.872  12.127  0.00  0.00    +0.000 A 
ATOM     22  F   UNL     1       7.681   3.481  10.980  0.00  0.00    +0.000 F 
ATOM     23  C   UNL     1       7.753   4.804  12.933  0.00  0.00    +0.000 A 
ATOM     24  C   UNL     1       7.160   5.209  14.130  0.00  0.00    +0.000 A 
ENDBRANCH  17  18
ENDBRANCH   6  17
TORSDOF 3
ENDMDL
MODEL 4
REMARK VINA RESULT:      -7.3      1.744      2.950
REMARK  Name = 
REMARK  3 active torsions:
REMARK  status: ('A' for Active; 'I' for Inactive)
REMARK    1  A    between atoms: O_1  and  C_2
REMARK    2  A    between atoms: N_7  and  C_8
REMARK    3  A    between atoms: C_8  and  C_9
REMARK                            x       y       z     vdW  Elec       q    Type
REMARK                         _______ _______ _______ _____ _____    ______ ____
ROOT
ATOM      1  C   UNL     1       2.028   4.763  20.821  0.00  0.00    +0.000 C 
ATOM      2  O   UNL     1       2.986   4.279  19.868  0.00  0.00    +0.000 OA
ATOM      3  C   UNL     1       3.266   5.296  18.863  0.00  0.00    +0.000 C 
ATOM      4  C   UNL     1       2.706   4.803  17.523  0.00  0.00    +0.000 C 
ATOM      5  C   UNL     1       3.567   3.688  16.935  0.00  0.00    +0.000 C 
ATOM      6  N   UNL     1       4.983   4.056  16.794  0.00  0.00    +0.000 NA
ATOM      7  C   UNL     1       5.525   4.384  18.124  0.00  0.00    +0.000 C 
ATOM      8  C   UNL     1       4.784   5.525  18.830  0.00  0.00    +0.000 C 
ATOM      9  C   UNL     1       2.524   6.509  19.338  0.00  0.00    +0.000 A 
ATOM     10  C   UNL     1       2.473   7.787  18.796  0.00  0.00    +0.000 A 
ATOM     11  C   UNL     1       1.686   8.750  19.431  0.00  0.00    +0.000 A 
ATOM     12  C   UNL     1       0.965   8.426  20.590  0.00  0.00    +0.000 A 
ATOM     13  C   UNL     1       1.024   7.137  21.123  0.00  0.00    +0.000 A 
ATOM     14  C   UNL     1       1.809   6.191  20.481  0.00  0.00    +0.000 A 
ENDROOT
BRANCH   1  15
ATOM     15  O   UNL     1       2.576   4.648  22.114  0.00  0.00    +0.000 OA
ATOM     16  H   UNL     1       3.299   4.010  22.006  0.00  0.00    +0.000 HD
ENDBRANCH   1  15
BRANCH   6  17
ATOM     17  C   UNL     1       5.237   5.140  15.826  0.00  0.00    +0.000 C 
BRANCH  17  18
ATOM     18  C   UNL     1       5.884   4.693  14.530  0.00  0.00    +0.000 A 
ATOM     19  C   UNL     1       7.160   5.167  14.176  0.00  0.00    +0.000 A 
ATOM     20  C   UNL     1       7.763   4.754  12.987  0.00  0.00    +0.000 A 
ATOM     21  C   UNL     1       7.095   3.866  12.155  0.00  0.00    +0.000 A 
ATOM     22  F   UNL     1       7.674   3.471  11.013  0.00  0.00    +0.000 F 
ATOM     23  C   UNL     1       5.835   3.381  12.488  0.00  0.00    +0.000 A 
ATOM     24  C   UNL     1       5.229   3.794  13.675  0.00  0.00    +0.000 A 
ENDBRANCH  17  18
ENDBRANCH   6  17
TORSDOF 3
ENDMDL
MODEL 5
REMARK VINA RESULT:      -6.7      5.175      6.897
REMARK  Name = 
REMARK  3 active torsions:
REMARK  status: ('A' for Active; 'I' for Inactive)
REMARK    1  A    between atoms: O_1  and  C_2
REMARK    2  A    between atoms: N_7  and  C_8
REMARK    3  A    between atoms: C_8  and  C_9
REMARK                            x       y       z     vdW  Elec       q    Type
REMARK                         _______ _______ _______ _____ _____    ______ ____
ROOT
ATOM      1  C   UNL     1       0.586  11.789  20.164  0.00  0.00    +0.000 C 
ATOM      2  O   UNL     1       1.453  10.689  19.851  0.00  0.00    +0.000 OA
ATOM      3  C   UNL     1       0.743   9.684  19.072  0.00  0.00    +0.000 C 
ATOM      4  C   UNL     1       0.595   8.429  19.942  0.00  0.00    +0.000 C 
ATOM      5  C   UNL     1       1.922   7.686  20.080  0.00  0.00    +0.000 C 
ATOM      6  N   UNL     1       2.536   7.344  18.789  0.00  0.00    +0.000 NA
ATOM      7  C   UNL     1       2.795   8.586  18.041  0.00  0.00    +0.000 C 
ATOM      8  C   UNL     1       1.541   9.429  17.785  0.00  0.00    +0.000 C 
ATOM      9  C   UNL     1      -0.595  10.300  18.793  0.00  0.00    +0.000 A 
ATOM     10  C   UNL     1      -1.660   9.809  18.048  0.00  0.00    +0.000 A 
ATOM     11  C   UNL     1      -2.818  10.583  17.950  0.00  0.00    +0.000 A 
ATOM     12  C   UNL     1      -2.897  11.828  18.593  0.00  0.00    +0.000 A 
ATOM     13  C   UNL     1      -1.820  12.308  19.340  0.00  0.00    +0.000 A 
ATOM     14  C   UNL     1      -0.676  11.528  19.428  0.00  0.00    +0.000 A 
ENDROOT
BRANCH   1  15
ATOM     15  O   UNL     1       1.180  12.981  19.704  0.00  0.00    +0.000 OA
ATOM     16  H   UNL     1       0.540  13.670  19.945  0.00  0.00    +0.000 HD
ENDBRANCH   1  15
BRANCH   6  17
ATOM     17  C   UNL     1       1.763   6.381  17.983  0.00  0.00    +0.000 C 
BRANCH  17  18
ATOM     18  C   UNL     1       2.301   4.965  18.000  0.00  0.00    +0.000 A 
ATOM     19  C   UNL     1       1.483   3.901  18.421  0.00  0.00    +0.000 A 
ATOM     20  C   UNL     1       1.972   2.594  18.435  0.00  0.00    +0.000 A 
ATOM     21  C   UNL     1       3.275   2.348  18.022  0.00  0.00    +0.000 A 
ATOM     22  F   UNL     1       3.744   1.093  18.036  0.00  0.00    +0.000 F 
ATOM     23  C   UNL     1       4.099   3.384  17.597  0.00  0.00    +0.000 A 
ATOM     24  C   UNL     1       3.614   4.692  17.586  0.00  0.00    +0.000 A 
ENDBRANCH  17  18
ENDBRANCH   6  17
TORSDOF 3
ENDMDL
MODEL 6
REMARK VINA RESULT:      -6.7      5.204      7.015
REMARK  Name = 
REMARK  3 active torsions:
REMARK  status: ('A' for Active; 'I' for Inactive)
REMARK    1  A    between atoms: O_1  and  C_2
REMARK    2  A    between atoms: N_7  and  C_8
REMARK    3  A    between atoms: C_8  and  C_9
REMARK                            x       y       z     vdW  Elec       q    Type
REMARK                         _______ _______ _______ _____ _____    ______ ____
ROOT
ATOM      1  C   UNL     1       0.697  11.853  20.010  0.00  0.00    +0.000 C 
ATOM      2  O   UNL     1       1.539  10.728  19.719  0.00  0.00    +0.000 OA
ATOM      3  C   UNL     1       0.791   9.699  19.009  0.00  0.00    +0.000 C 
ATOM      4  C   UNL     1       0.656   8.486  19.940  0.00  0.00    +0.000 C 
ATOM      5  C   UNL     1       1.977   7.732  20.068  0.00  0.00    +0.000 C 
ATOM      6  N   UNL     1       2.545   7.324  18.776  0.00  0.00    +0.000 NA
ATOM      7  C   UNL     1       2.796   8.528  17.964  0.00  0.00    +0.000 C 
ATOM      8  C   UNL     1       1.544   9.376  17.710  0.00  0.00    +0.000 C 
ATOM      9  C   UNL     1      -0.547  10.320  18.745  0.00  0.00    +0.000 A 
ATOM     10  C   UNL     1      -1.642   9.812  18.057  0.00  0.00    +0.000 A 
ATOM     11  C   UNL     1      -2.792  10.596  17.962  0.00  0.00    +0.000 A 
ATOM     12  C   UNL     1      -2.835  11.869  18.550  0.00  0.00    +0.000 A 
ATOM     13  C   UNL     1      -1.728  12.367  19.240  0.00  0.00    +0.000 A 
ATOM     14  C   UNL     1      -0.592  11.577  19.327  0.00  0.00    +0.000 A 
ENDROOT
BRANCH   1  15
ATOM     15  O   UNL     1       1.290  13.014  19.478  0.00  0.00    +0.000 OA
ATOM     16  H   UNL     1       0.993  13.722  20.072  0.00  0.00    +0.000 HD
ENDBRANCH   1  15
BRANCH   6  17
ATOM     17  C   UNL     1       1.734   6.337  18.038  0.00  0.00    +0.000 C 
BRANCH  17  18
ATOM     18  C   UNL     1       2.243   4.912  18.121  0.00  0.00    +0.000 A 
ATOM     19  C   UNL     1       3.476   4.565  17.539  0.00  0.00    +0.000 A 
ATOM     20  C   UNL     1       3.951   3.256  17.616  0.00  0.00    +0.000 A 
ATOM     21  C   UNL     1       3.200   2.294  18.278  0.00  0.00    +0.000 A 
ATOM     22  F   UNL     1       3.658   1.036  18.352  0.00  0.00    +0.000 F 
ATOM     23  C   UNL     1       1.982   2.616  18.865  0.00  0.00    +0.000 A 
ATOM     24  C   UNL     1       1.502   3.924  18.786  0.00  0.00    +0.000 A 
ENDBRANCH  17  18
ENDBRANCH   6  17
TORSDOF 3
ENDMDL
MODEL 7
REMARK VINA RESULT:      -6.6      5.157      7.101
REMARK  Name = 
REMARK  3 active torsions:
REMARK  status: ('A' for Active; 'I' for Inactive)
REMARK    1  A    between atoms: O_1  and  C_2
REMARK    2  A    between atoms: N_7  and  C_8
REMARK    3  A    between atoms: C_8  and  C_9
REMARK                            x       y       z     vdW  Elec       q    Type
REMARK                         _______ _______ _______ _____ _____    ______ ____
ROOT
ATOM      1  C   UNL     1       1.094  11.944  18.903  0.00  0.00    +0.000 C 
ATOM      2  O   UNL     1       1.799  10.705  19.065  0.00  0.00    +0.000 OA
ATOM      3  C   UNL     1       0.902   9.575  18.867  0.00  0.00    +0.000 C 
ATOM      4  C   UNL     1       0.733   8.864  20.217  0.00  0.00    +0.000 C 
ATOM      5  C   UNL     1       1.984   8.073  20.591  0.00  0.00    +0.000 C 
ATOM      6  N   UNL     1       2.400   7.115  19.557  0.00  0.00    +0.000 NA
ATOM      7  C   UNL     1       2.693   7.852  18.315  0.00  0.00    +0.000 C 
ATOM      8  C   UNL     1       1.509   8.669  17.786  0.00  0.00    +0.000 C 
ATOM      9  C   UNL     1      -0.390  10.193  18.425  0.00  0.00    +0.000 A 
ATOM     10  C   UNL     1      -1.581   9.586  18.048  0.00  0.00    +0.000 A 
ATOM     11  C   UNL     1      -2.658  10.397  17.685  0.00  0.00    +0.000 A 
ATOM     12  C   UNL     1      -2.532  11.795  17.702  0.00  0.00    +0.000 A 
ATOM     13  C   UNL     1      -1.329  12.391  18.085  0.00  0.00    +0.000 A 
ATOM     14  C   UNL     1      -0.269  11.573  18.443  0.00  0.00    +0.000 A 
ENDROOT
BRANCH   1  15
ATOM     15  O   UNL     1       1.746  12.714  17.920  0.00  0.00    +0.000 OA
ATOM     16  H   UNL     1       2.665  12.761  18.231  0.00  0.00    +0.000 HD
ENDBRANCH   1  15
BRANCH   6  17
ATOM     17  C   UNL     1       1.441   6.020  19.320  0.00  0.00    +0.000 C 
BRANCH  17  18
ATOM     18  C   UNL     1       2.076   4.674  19.034  0.00  0.00    +0.000 A 
ATOM     19  C   UNL     1       2.039   4.135  17.735  0.00  0.00    +0.000 A 
ATOM     20  C   UNL     1       2.627   2.899  17.465  0.00  0.00    +0.000 A 
ATOM     21  C   UNL     1       3.255   2.203  18.489  0.00  0.00    +0.000 A 
ATOM     22  F   UNL     1       3.818   1.015  18.228  0.00  0.00    +0.000 F 
ATOM     23  C   UNL     1       3.307   2.718  19.779  0.00  0.00    +0.000 A 
ATOM     24  C   UNL     1       2.718   3.953  20.052  0.00  0.00    +0.000 A 
ENDBRANCH  17  18
ENDBRANCH   6  17
TORSDOF 3
ENDMDL
MODEL 8
REMARK VINA RESULT:      -6.6      5.176      7.149
REMARK  Name = 
REMARK  3 active torsions:
REMARK  status: ('A' for Active; 'I' for Inactive)
REMARK    1  A    between atoms: O_1  and  C_2
REMARK    2  A    between atoms: N_7  and  C_8
REMARK    3  A    between atoms: C_8  and  C_9
REMARK                            x       y       z     vdW  Elec       q    Type
REMARK                         _______ _______ _______ _____ _____    ______ ____
ROOT
ATOM      1  C   UNL     1       0.887  11.997  19.000  0.00  0.00    +0.000 C 
ATOM      2  O   UNL     1       1.623  10.780  19.192  0.00  0.00    +0.000 OA
ATOM      3  C   UNL     1       0.759   9.623  18.995  0.00  0.00    +0.000 C 
ATOM      4  C   UNL     1       0.585   8.927  20.351  0.00  0.00    +0.000 C 
ATOM      5  C   UNL     1       1.849   8.174  20.758  0.00  0.00    +0.000 C 
ATOM      6  N   UNL     1       2.309   7.214  19.745  0.00  0.00    +0.000 NA
ATOM      7  C   UNL     1       2.604   7.941  18.498  0.00  0.00    +0.000 C 
ATOM      8  C   UNL     1       1.409   8.720  17.937  0.00  0.00    +0.000 C 
ATOM      9  C   UNL     1      -0.541  10.200  18.521  0.00  0.00    +0.000 A 
ATOM     10  C   UNL     1      -1.709   9.556  18.132  0.00  0.00    +0.000 A 
ATOM     11  C   UNL     1      -2.800  10.334  17.738  0.00  0.00    +0.000 A 
ATOM     12  C   UNL     1      -2.711  11.734  17.738  0.00  0.00    +0.000 A 
ATOM     13  C   UNL     1      -1.531  12.368  18.133  0.00  0.00    +0.000 A 
ATOM     14  C   UNL     1      -0.456  11.583  18.522  0.00  0.00    +0.000 A 
ENDROOT
BRANCH   1  15
ATOM     15  O   UNL     1       1.536  12.770  18.018  0.00  0.00    +0.000 OA
ATOM     16  H   UNL     1       0.808  13.161  17.508  0.00  0.00    +0.000 HD
ENDBRANCH   1  15
BRANCH   6  17
ATOM     17  C   UNL     1       1.384   6.090  19.507  0.00  0.00    +0.000 C 
BRANCH  17  18
ATOM     18  C   UNL     1       2.053   4.798  19.082  0.00  0.00    +0.000 A 
ATOM     19  C   UNL     1       2.818   4.061  20.004  0.00  0.00    +0.000 A 
ATOM     20  C   UNL     1       3.432   2.869  19.619  0.00  0.00    +0.000 A 
ATOM     21  C   UNL     1       3.279   2.410  18.318  0.00  0.00    +0.000 A 
ATOM     22  F   UNL     1       3.870   1.265  17.950  0.00  0.00    +0.000 F 
ATOM     23  C   UNL     1       2.524   3.120  17.392  0.00  0.00    +0.000 A 
ATOM     24  C   UNL     1       1.911   4.315  17.773  0.00  0.00    +0.000 A 
ENDBRANCH  17  18
ENDBRANCH   6  17
TORSDOF 3
ENDMDL
MODEL 9
REMARK VINA RESULT:      -6.5      5.679      7.428
REMARK  Name = 
REMARK  3 active torsions:
REMARK  status: ('A' for Active; 'I' for Inactive)
REMARK    1  A    between atoms: O_1  and  C_2
REMARK    2  A    between atoms: N_7  and  C_8
REMARK    3  A    between atoms: C_8  and  C_9
REMARK                            x       y       z     vdW  Elec       q    Type
REMARK                         _______ _______ _______ _____ _____    ______ ____
ROOT
ATOM      1  C   UNL     1      -1.533  12.694  19.266  0.00  0.00    +0.000 C 
ATOM      2  O   UNL     1      -0.707  11.799  18.507  0.00  0.00    +0.000 OA
ATOM      3  C   UNL     1      -0.060  10.832  19.384  0.00  0.00    +0.000 C 
ATOM      4  C   UNL     1       1.446  11.127  19.382  0.00  0.00    +0.000 C 
ATOM      5  C   UNL     1       2.099  10.690  18.073  0.00  0.00    +0.000 C 
ATOM      6  N   UNL     1       1.854   9.280  17.740  0.00  0.00    +0.000 NA
ATOM      7  C   UNL     1       0.402   9.067  17.608  0.00  0.00    +0.000 C 
ATOM      8  C   UNL     1      -0.394   9.425  18.868  0.00  0.00    +0.000 C 
ATOM      9  C   UNL     1      -0.653  11.093  20.735  0.00  0.00    +0.000 A 
ATOM     10  C   UNL     1      -0.441  10.435  21.940  0.00  0.00    +0.000 A 
ATOM     11  C   UNL     1      -1.116  10.887  23.075  0.00  0.00    +0.000 A 
ATOM     12  C   UNL     1      -1.989  11.982  22.993  0.00  0.00    +0.000 A 
ATOM     13  C   UNL     1      -2.192  12.636  21.776  0.00  0.00    +0.000 A 
ATOM     14  C   UNL     1      -1.514  12.176  20.657  0.00  0.00    +0.000 A 
ENDROOT
BRANCH   1  15
ATOM     15  O   UNL     1      -2.842  12.653  18.749  0.00  0.00    +0.000 OA
ATOM     16  H   UNL     1      -3.361  13.172  19.385  0.00  0.00    +0.000 HD
ENDBRANCH   1  15
BRANCH   6  17
ATOM     17  C   UNL     1       2.455   8.318  18.684  0.00  0.00    +0.000 C 
BRANCH  17  18
ATOM     18  C   UNL     1       3.056   7.087  18.035  0.00  0.00    +0.000 A 
ATOM     19  C   UNL     1       4.226   7.194  17.262  0.00  0.00    +0.000 A 
ATOM     20  C   UNL     1       4.786   6.062  16.667  0.00  0.00    +0.000 A 
ATOM     21  C   UNL     1       4.182   4.826  16.847  0.00  0.00    +0.000 A 
ATOM     22  F   UNL     1       4.720   3.740  16.274  0.00  0.00    +0.000 F 
ATOM     23  C   UNL     1       3.027   4.697  17.611  0.00  0.00    +0.000 A 
ATOM     24  C   UNL     1       2.463   5.827  18.204  0.00  0.00    +0.000 A 
ENDBRANCH  17  18
ENDBRANCH   6  17
TORSDOF 3
ENDMDL
