MODEL 1
REMARK VINA RESULT:      -7.5      0.000      0.000
REMARK  Name = 
REMARK  7 active torsions:
REMARK  status: ('A' for Active; 'I' for Inactive)
REMARK    1  A    between atoms: C_1  and  C_2
REMARK    2  A    between atoms: C_2  and  N_3
REMARK    3  A    between atoms: C_4  and  C_5
REMARK    4  A    between atoms: C_5  and  C_6
REMARK    5  A    between atoms: C_16  and  O_17
REMARK    6  A    between atoms: C_19  and  O_20
REMARK    7  A    between atoms: O_20  and  C_21
REMARK                            x       y       z     vdW  Elec       q    Type
REMARK                         _______ _______ _______ _____ _____    ______ ____
ROOT
ATOM      1  N   UNL     1       2.228   6.373  19.889  0.00  0.00    +0.000 N 
ATOM      2  C   UNL     1       2.818   6.199  18.616  0.00  0.00    +0.000 A 
ATOM      3  C   UNL     1       2.870   7.177  17.693  0.00  0.00    +0.000 A 
ATOM      4  C   UNL     1       2.261   8.478  17.968  0.00  0.00    +0.000 A 
ATOM      5  O   UNL     1       2.264   9.361  17.114  0.00  0.00    +0.000 OA
ATOM      6  C   UNL     1       1.650   8.691  19.291  0.00  0.00    +0.000 A 
ATOM      7  C   UNL     1       1.072   9.939  19.577  0.00  0.00    +0.000 A 
ATOM      8  C   UNL     1       0.483  10.178  20.809  0.00  0.00    +0.000 A 
ATOM      9  C   UNL     1       0.479   9.172  21.768  0.00  0.00    +0.000 A 
ATOM     10  C   UNL     1       1.072   7.928  21.483  0.00  0.00    +0.000 A 
ATOM     11  C   UNL     1       1.655   7.637  20.233  0.00  0.00    +0.000 A 
ENDROOT
BRANCH   1  13
ATOM     12  C   UNL     1       0.917   4.301  20.375  0.00  0.00    +0.000 C 
ATOM     13  C   UNL     1       2.039   5.234  20.819  0.00  0.00    +0.000 C 
ENDBRANCH   1  13
BRANCH   7  14
ATOM     14  O   UNL     1       1.039  10.979  18.684  0.00  0.00    +0.000 OA
ATOM     15  H   UNL     1       0.242  11.525  18.878  0.00  0.00    +0.000 HD
ENDBRANCH   7  14
BRANCH   9  16
ATOM     16  O   UNL     1      -0.070   9.282  23.021  0.00  0.00    +0.000 OA
ATOM     17  C   UNL     1      -0.962  10.373  23.236  0.00  0.00    +0.000 C 
ENDBRANCH   9  16
BRANCH   2  18
ATOM     18  C   UNL     1       3.478   4.878  18.224  0.00  0.00    +0.000 C 
BRANCH  18  19
ATOM     19  C   UNL     1       4.994   4.856  18.181  0.00  0.00    +0.000 A 
ATOM     20  C   UNL     1       5.717   4.461  17.045  0.00  0.00    +0.000 A 
ATOM     21  C   UNL     1       7.107   4.590  17.003  0.00  0.00    +0.000 A 
ATOM     22  C   UNL     1       7.794   5.116  18.093  0.00  0.00    +0.000 A 
ATOM     23  C   UNL     1       7.095   5.496  19.235  0.00  0.00    +0.000 A 
ATOM     24  C   UNL     1       5.705   5.369  19.278  0.00  0.00    +0.000 A 
ENDBRANCH  18  19
ENDBRANCH   2  18
TORSDOF 5
ENDMDL
MODEL 2
REMARK VINA RESULT:      -7.5      0.726      1.367
REMARK  Name = 
REMARK  7 active torsions:
REMARK  status: ('A' for Active; 'I' for Inactive)
REMARK    1  A    between atoms: C_1  and  C_2
REMARK    2  A    between atoms: C_2  and  N_3
REMARK    3  A    between atoms: C_4  and  C_5
REMARK    4  A    between atoms: C_5  and  C_6
REMARK    5  A    between atoms: C_16  and  O_17
REMARK    6  A    between atoms: C_19  and  O_20
REMARK    7  A    between atoms: O_20  and  C_21
REMARK                            x       y       z     vdW  Elec       q    Type
REMARK                         _______ _______ _______ _____ _____    ______ ____
ROOT
ATOM      1  N   UNL     1       2.373   6.128  20.004  0.00  0.00    +0.000 N 
ATOM      2  C   UNL     1       3.151   5.920  18.842  0.00  0.00    +0.000 A 
ATOM      3  C   UNL     1       3.284   6.845  17.874  0.00  0.00    +0.000 A 
ATOM      4  C   UNL     1       2.573   8.119  17.975  0.00  0.00    +0.000 A 
ATOM      5  O   UNL     1       2.653   8.951  17.074  0.00  0.00    +0.000 OA
ATOM      6  C   UNL     1       1.765   8.368  19.182  0.00  0.00    +0.000 A 
ATOM      7  C   UNL     1       1.086   9.592  19.301  0.00  0.00    +0.000 A 
ATOM      8  C   UNL     1       0.312   9.863  20.418  0.00  0.00    +0.000 A 
ATOM      9  C   UNL     1       0.222   8.915  21.430  0.00  0.00    +0.000 A 
ATOM     10  C   UNL     1       0.916   7.696  21.313  0.00  0.00    +0.000 A 
ATOM     11  C   UNL     1       1.690   7.372  20.181  0.00  0.00    +0.000 A 
ENDROOT
BRANCH   1  13
ATOM     12  C   UNL     1       1.009   4.093  20.498  0.00  0.00    +0.000 C 
ATOM     13  C   UNL     1       2.112   5.034  20.970  0.00  0.00    +0.000 C 
ENDBRANCH   1  13
BRANCH   7  14
ATOM     14  O   UNL     1       1.128  10.576  18.346  0.00  0.00    +0.000 OA
ATOM     15  H   UNL     1       2.057  10.894  18.275  0.00  0.00    +0.000 HD
ENDBRANCH   7  14
BRANCH   9  16
ATOM     16  O   UNL     1      -0.508   9.061  22.582  0.00  0.00    +0.000 OA
ATOM     17  C   UNL     1      -0.780  10.395  23.004  0.00  0.00    +0.000 C 
ENDBRANCH   9  16
BRANCH   2  18
ATOM     18  C   UNL     1       3.930   4.622  18.635  0.00  0.00    +0.000 C 
BRANCH  18  19
ATOM     19  C   UNL     1       5.031   4.644  17.590  0.00  0.00    +0.000 A 
ATOM     20  C   UNL     1       6.374   4.899  17.906  0.00  0.00    +0.000 A 
ATOM     21  C   UNL     1       7.372   4.770  16.937  0.00  0.00    +0.000 A 
ATOM     22  C   UNL     1       7.043   4.384  15.640  0.00  0.00    +0.000 A 
ATOM     23  C   UNL     1       5.713   4.144  15.306  0.00  0.00    +0.000 A 
ATOM     24  C   UNL     1       4.715   4.271  16.273  0.00  0.00    +0.000 A 
ENDBRANCH  18  19
ENDBRANCH   2  18
TORSDOF 5
ENDMDL
MODEL 3
REMARK VINA RESULT:      -7.0      2.681      6.669
REMARK  Name = 
REMARK  7 active torsions:
REMARK  status: ('A' for Active; 'I' for Inactive)
REMARK    1  A    between atoms: C_1  and  C_2
REMARK    2  A    between atoms: C_2  and  N_3
REMARK    3  A    between atoms: C_4  and  C_5
REMARK    4  A    between atoms: C_5  and  C_6
REMARK    5  A    between atoms: C_16  and  O_17
REMARK    6  A    between atoms: C_19  and  O_20
REMARK    7  A    between atoms: O_20  and  C_21
REMARK                            x       y       z     vdW  Elec       q    Type
REMARK                         _______ _______ _______ _____ _____    ______ ____
ROOT
ATOM      1  N   UNL     1       1.141   8.410  20.041  0.00  0.00    +0.000 N 
ATOM      2  C   UNL     1       1.306   9.403  19.049  0.00  0.00    +0.000 A 
ATOM      3  C   UNL     1       2.078   9.231  17.961  0.00  0.00    +0.000 A 
ATOM      4  C   UNL     1       2.829   7.988  17.784  0.00  0.00    +0.000 A 
ATOM      5  O   UNL     1       3.572   7.840  16.816  0.00  0.00    +0.000 OA
ATOM      6  C   UNL     1       2.666   6.930  18.796  0.00  0.00    +0.000 A 
ATOM      7  C   UNL     1       3.370   5.725  18.637  0.00  0.00    +0.000 A 
ATOM      8  C   UNL     1       3.248   4.707  19.569  0.00  0.00    +0.000 A 
ATOM      9  C   UNL     1       2.409   4.884  20.663  0.00  0.00    +0.000 A 
ATOM     10  C   UNL     1       1.695   6.088  20.812  0.00  0.00    +0.000 A 
ATOM     11  C   UNL     1       1.815   7.157  19.901  0.00  0.00    +0.000 A 
ENDROOT
BRANCH   1  13
ATOM     12  C   UNL     1       1.329   9.284  22.375  0.00  0.00    +0.000 C 
ATOM     13  C   UNL     1       0.419   8.689  21.305  0.00  0.00    +0.000 C 
ENDBRANCH   1  13
BRANCH   7  14
ATOM     14  O   UNL     1       4.212   5.476  17.583  0.00  0.00    +0.000 OA
ATOM     15  H   UNL     1       4.460   4.524  17.607  0.00  0.00    +0.000 HD
ENDBRANCH   7  14
BRANCH   9  16
ATOM     16  O   UNL     1       2.201   3.958  21.653  0.00  0.00    +0.000 OA
ATOM     17  C   UNL     1       1.423   2.814  21.308  0.00  0.00    +0.000 C 
ENDBRANCH   9  16
BRANCH   2  18
ATOM     18  C   UNL     1       0.571  10.740  19.138  0.00  0.00    +0.000 C 
BRANCH  18  19
ATOM     19  C   UNL     1      -0.830  10.792  18.559  0.00  0.00    +0.000 A 
ATOM     20  C   UNL     1      -1.278   9.904  17.569  0.00  0.00    +0.000 A 
ATOM     21  C   UNL     1      -2.616   9.897  17.168  0.00  0.00    +0.000 A 
ATOM     22  C   UNL     1      -3.525  10.776  17.751  0.00  0.00    +0.000 A 
ATOM     23  C   UNL     1      -3.094  11.676  18.721  0.00  0.00    +0.000 A 
ATOM     24  C   UNL     1      -1.758  11.683  19.124  0.00  0.00    +0.000 A 
ENDBRANCH  18  19
ENDBRANCH   2  18
TORSDOF 5
ENDMDL
MODEL 4
REMARK VINA RESULT:      -6.9      2.671      6.696
REMARK  Name = 
REMARK  7 active torsions:
REMARK  status: ('A' for Active; 'I' for Inactive)
REMARK    1  A    between atoms: C_1  and  C_2
REMARK    2  A    between atoms: C_2  and  N_3
REMARK    3  A    between atoms: C_4  and  C_5
REMARK    4  A    between atoms: C_5  and  C_6
REMARK    5  A    between atoms: C_16  and  O_17
REMARK    6  A    between atoms: C_19  and  O_20
REMARK    7  A    between atoms: O_20  and  C_21
REMARK                            x       y       z     vdW  Elec       q    Type
REMARK                         _______ _______ _______ _____ _____    ______ ____
ROOT
ATOM      1  N   UNL     1       1.216   8.290  20.050  0.00  0.00    +0.000 N 
ATOM      2  C   UNL     1       1.427   9.261  19.044  0.00  0.00    +0.000 A 
ATOM      3  C   UNL     1       2.223   9.053  17.980  0.00  0.00    +0.000 A 
ATOM      4  C   UNL     1       2.953   7.793  17.846  0.00  0.00    +0.000 A 
ATOM      5  O   UNL     1       3.718   7.612  16.901  0.00  0.00    +0.000 OA
ATOM      6  C   UNL     1       2.742   6.757  18.873  0.00  0.00    +0.000 A 
ATOM      7  C   UNL     1       3.426   5.536  18.753  0.00  0.00    +0.000 A 
ATOM      8  C   UNL     1       3.258   4.538  19.700  0.00  0.00    +0.000 A 
ATOM      9  C   UNL     1       2.395   4.752  20.768  0.00  0.00    +0.000 A 
ATOM     10  C   UNL     1       1.702   5.972  20.877  0.00  0.00    +0.000 A 
ATOM     11  C   UNL     1       1.867   7.021  19.951  0.00  0.00    +0.000 A 
ENDROOT
BRANCH   1  13
ATOM     12  C   UNL     1       1.356   9.223  22.364  0.00  0.00    +0.000 C 
ATOM     13  C   UNL     1       0.467   8.606  21.289  0.00  0.00    +0.000 C 
ENDBRANCH   1  13
BRANCH   7  14
ATOM     14  O   UNL     1       4.290   5.251  17.727  0.00  0.00    +0.000 OA
ATOM     15  H   UNL     1       3.882   4.549  17.169  0.00  0.00    +0.000 HD
ENDBRANCH   7  14
BRANCH   9  16
ATOM     16  O   UNL     1       2.144   3.848  21.769  0.00  0.00    +0.000 OA
ATOM     17  C   UNL     1       1.556   2.609  21.380  0.00  0.00    +0.000 C 
ENDBRANCH   9  16
BRANCH   2  18
ATOM     18  C   UNL     1       0.717  10.614  19.090  0.00  0.00    +0.000 C 
BRANCH  18  19
ATOM     19  C   UNL     1      -0.736  10.640  18.653  0.00  0.00    +0.000 A 
ATOM     20  C   UNL     1      -1.675  11.535  19.188  0.00  0.00    +0.000 A 
ATOM     21  C   UNL     1      -2.964  11.619  18.656  0.00  0.00    +0.000 A 
ATOM     22  C   UNL     1      -3.332  10.812  17.583  0.00  0.00    +0.000 A 
ATOM     23  C   UNL     1      -2.418   9.907  17.052  0.00  0.00    +0.000 A 
ATOM     24  C   UNL     1      -1.130   9.822  17.581  0.00  0.00    +0.000 A 
ENDBRANCH  18  19
ENDBRANCH   2  18
TORSDOF 5
ENDMDL
MODEL 5
REMARK VINA RESULT:      -6.9      3.634      7.746
REMARK  Name = 
REMARK  7 active torsions:
REMARK  status: ('A' for Active; 'I' for Inactive)
REMARK    1  A    between atoms: C_1  and  C_2
REMARK    2  A    between atoms: C_2  and  N_3
REMARK    3  A    between atoms: C_4  and  C_5
REMARK    4  A    between atoms: C_5  and  C_6
REMARK    5  A    between atoms: C_16  and  O_17
REMARK    6  A    between atoms: C_19  and  O_20
REMARK    7  A    between atoms: O_20  and  C_21
REMARK                            x       y       z     vdW  Elec       q    Type
REMARK                         _______ _______ _______ _____ _____    ______ ____
ROOT
ATOM      1  N   UNL     1       4.369   4.617  16.671  0.00  0.00    +0.000 N 
ATOM      2  C   UNL     1       4.761   5.482  17.718  0.00  0.00    +0.000 A 
ATOM      3  C   UNL     1       5.882   6.224  17.675  0.00  0.00    +0.000 A 
ATOM      4  C   UNL     1       6.783   6.125  16.527  0.00  0.00    +0.000 A 
ATOM      5  O   UNL     1       7.832   6.765  16.499  0.00  0.00    +0.000 OA
ATOM      6  C   UNL     1       6.393   5.240  15.414  0.00  0.00    +0.000 A 
ATOM      7  C   UNL     1       7.240   5.143  14.298  0.00  0.00    +0.000 A 
ATOM      8  C   UNL     1       6.911   4.318  13.233  0.00  0.00    +0.000 A 
ATOM      9  C   UNL     1       5.725   3.595  13.274  0.00  0.00    +0.000 A 
ATOM     10  C   UNL     1       4.873   3.706  14.388  0.00  0.00    +0.000 A 
ATOM     11  C   UNL     1       5.186   4.511  15.502  0.00  0.00    +0.000 A 
ENDROOT
BRANCH   1  13
ATOM     12  C   UNL     1       3.563   2.468  17.659  0.00  0.00    +0.000 C 
ATOM     13  C   UNL     1       3.220   3.692  16.818  0.00  0.00    +0.000 C 
ENDBRANCH   1  13
BRANCH   7  14
ATOM     14  O   UNL     1       8.422   5.827  14.184  0.00  0.00    +0.000 OA
ATOM     15  H   UNL     1       8.594   5.987  13.228  0.00  0.00    +0.000 HD
ENDBRANCH   7  14
BRANCH   9  16
ATOM     16  O   UNL     1       5.287   2.746  12.289  0.00  0.00    +0.000 OA
ATOM     17  C   UNL     1       4.271   3.243  11.421  0.00  0.00    +0.000 C 
ENDBRANCH   9  16
BRANCH   2  18
ATOM     18  C   UNL     1       3.896   5.656  18.966  0.00  0.00    +0.000 C 
BRANCH  18  19
ATOM     19  C   UNL     1       2.914   6.814  18.963  0.00  0.00    +0.000 A 
ATOM     20  C   UNL     1       2.190   7.200  20.101  0.00  0.00    +0.000 A 
ATOM     21  C   UNL     1       1.406   8.356  20.089  0.00  0.00    +0.000 A 
ATOM     22  C   UNL     1       1.335   9.142  18.942  0.00  0.00    +0.000 A 
ATOM     23  C   UNL     1       2.032   8.763  17.799  0.00  0.00    +0.000 A 
ATOM     24  C   UNL     1       2.818   7.609  17.809  0.00  0.00    +0.000 A 
ENDBRANCH  18  19
ENDBRANCH   2  18
TORSDOF 5
ENDMDL
MODEL 6
REMARK VINA RESULT:      -6.8      3.221      7.344
REMARK  Name = 
REMARK  7 active torsions:
REMARK  status: ('A' for Active; 'I' for Inactive)
REMARK    1  A    between atoms: C_1  and  C_2
REMARK    2  A    between atoms: C_2  and  N_3
REMARK    3  A    between atoms: C_4  and  C_5
REMARK    4  A    between atoms: C_5  and  C_6
REMARK    5  A    between atoms: C_16  and  O_17
REMARK    6  A    between atoms: C_19  and  O_20
REMARK    7  A    between atoms: O_20  and  C_21
REMARK                            x       y       z     vdW  Elec       q    Type
REMARK                         _______ _______ _______ _____ _____    ______ ____
ROOT
ATOM      1  N   UNL     1       3.426   5.014  17.831  0.00  0.00    +0.000 N 
ATOM      2  C   UNL     1       3.642   5.392  19.177  0.00  0.00    +0.000 A 
ATOM      3  C   UNL     1       4.867   5.488  19.723  0.00  0.00    +0.000 A 
ATOM      4  C   UNL     1       6.051   5.153  18.933  0.00  0.00    +0.000 A 
ATOM      5  O   UNL     1       7.171   5.194  19.438  0.00  0.00    +0.000 OA
ATOM      6  C   UNL     1       5.857   4.768  17.524  0.00  0.00    +0.000 A 
ATOM      7  C   UNL     1       6.984   4.455  16.746  0.00  0.00    +0.000 A 
ATOM      8  C   UNL     1       6.844   4.084  15.418  0.00  0.00    +0.000 A 
ATOM      9  C   UNL     1       5.574   4.035  14.856  0.00  0.00    +0.000 A 
ATOM     10  C   UNL     1       4.449   4.363  15.634  0.00  0.00    +0.000 A 
ATOM     11  C   UNL     1       4.547   4.717  16.995  0.00  0.00    +0.000 A 
ENDROOT
BRANCH   1  13
ATOM     12  C   UNL     1       1.476   3.450  17.827  0.00  0.00    +0.000 C 
ATOM     13  C   UNL     1       2.064   4.757  17.306  0.00  0.00    +0.000 C 
ENDBRANCH   1  13
BRANCH   7  14
ATOM     14  O   UNL     1       8.267   4.483  17.229  0.00  0.00    +0.000 OA
ATOM     15  H   UNL     1       8.241   4.242  18.184  0.00  0.00    +0.000 HD
ENDBRANCH   7  14
BRANCH   9  16
ATOM     16  O   UNL     1       5.302   3.684  13.558  0.00  0.00    +0.000 OA
ATOM     17  C   UNL     1       6.403   3.671  12.653  0.00  0.00    +0.000 C 
ENDBRANCH   9  16
BRANCH   2  18
ATOM     18  C   UNL     1       2.474   5.758  20.092  0.00  0.00    +0.000 C 
BRANCH  18  19
ATOM     19  C   UNL     1       1.979   7.191  20.031  0.00  0.00    +0.000 A 
ATOM     20  C   UNL     1       2.109   7.993  18.887  0.00  0.00    +0.000 A 
ATOM     21  C   UNL     1       1.514   9.256  18.829  0.00  0.00    +0.000 A 
ATOM     22  C   UNL     1       0.782   9.734  19.912  0.00  0.00    +0.000 A 
ATOM     23  C   UNL     1       0.658   8.959  21.061  0.00  0.00    +0.000 A 
ATOM     24  C   UNL     1       1.250   7.696  21.120  0.00  0.00    +0.000 A 
ENDBRANCH  18  19
ENDBRANCH   2  18
TORSDOF 5
ENDMDL
MODEL 7
REMARK VINA RESULT:      -6.8      2.948      4.693
REMARK  Name = 
REMARK  7 active torsions:
REMARK  status: ('A' for Active; 'I' for Inactive)
REMARK    1  A    between atoms: C_1  and  C_2
REMARK    2  A    between atoms: C_2  and  N_3
REMARK    3  A    between atoms: C_4  and  C_5
REMARK    4  A    between atoms: C_5  and  C_6
REMARK    5  A    between atoms: C_16  and  O_17
REMARK    6  A    between atoms: C_19  and  O_20
REMARK    7  A    between atoms: O_20  and  C_21
REMARK                            x       y       z     vdW  Elec       q    Type
REMARK                         _______ _______ _______ _____ _____    ______ ____
ROOT
ATOM      1  N   UNL     1       0.897   8.906  19.555  0.00  0.00    +0.000 N 
ATOM      2  C   UNL     1       1.667   8.147  20.466  0.00  0.00    +0.000 A 
ATOM      3  C   UNL     1       1.602   8.318  21.799  0.00  0.00    +0.000 A 
ATOM      4  C   UNL     1       0.739   9.353  22.365  0.00  0.00    +0.000 A 
ATOM      5  O   UNL     1       0.707   9.546  23.579  0.00  0.00    +0.000 OA
ATOM      6  C   UNL     1      -0.085  10.150  21.439  0.00  0.00    +0.000 A 
ATOM      7  C   UNL     1      -0.930  11.141  21.966  0.00  0.00    +0.000 A 
ATOM      8  C   UNL     1      -1.717  11.915  21.129  0.00  0.00    +0.000 A 
ATOM      9  C   UNL     1      -1.673  11.694  19.757  0.00  0.00    +0.000 A 
ATOM     10  C   UNL     1      -0.836  10.692  19.235  0.00  0.00    +0.000 A 
ATOM     11  C   UNL     1       0.001   9.903  20.050  0.00  0.00    +0.000 A 
ENDROOT
BRANCH   1  13
ATOM     12  C   UNL     1       2.271   9.678  17.615  0.00  0.00    +0.000 C 
ATOM     13  C   UNL     1       1.111   8.810  18.091  0.00  0.00    +0.000 C 
ENDBRANCH   1  13
BRANCH   7  14
ATOM     14  O   UNL     1      -1.030  11.415  23.306  0.00  0.00    +0.000 OA
ATOM     15  H   UNL     1      -1.439  12.305  23.408  0.00  0.00    +0.000 HD
ENDBRANCH   7  14
BRANCH   9  16
ATOM     16  O   UNL     1      -2.400  12.390  18.824  0.00  0.00    +0.000 OA
ATOM     17  C   UNL     1      -3.266  11.627  17.988  0.00  0.00    +0.000 C 
ENDBRANCH   9  16
BRANCH   2  18
ATOM     18  C   UNL     1       2.606   7.043  19.981  0.00  0.00    +0.000 C 
BRANCH  18  19
ATOM     19  C   UNL     1       1.971   5.711  19.627  0.00  0.00    +0.000 A 
ATOM     20  C   UNL     1       1.973   5.190  18.324  0.00  0.00    +0.000 A 
ATOM     21  C   UNL     1       1.503   3.899  18.071  0.00  0.00    +0.000 A 
ATOM     22  C   UNL     1       1.026   3.111  19.115  0.00  0.00    +0.000 A 
ATOM     23  C   UNL     1       1.001   3.619  20.411  0.00  0.00    +0.000 A 
ATOM     24  C   UNL     1       1.471   4.908  20.666  0.00  0.00    +0.000 A 
ENDBRANCH  18  19
ENDBRANCH   2  18
TORSDOF 5
ENDMDL
MODEL 8
REMARK VINA RESULT:      -6.7      3.243      7.366
REMARK  Name = 
REMARK  7 active torsions:
REMARK  status: ('A' for Active; 'I' for Inactive)
REMARK    1  A    between atoms: C_1  and  C_2
REMARK    2  A    between atoms: C_2  and  N_3
REMARK    3  A    between atoms: C_4  and  C_5
REMARK    4  A    between atoms: C_5  and  C_6
REMARK    5  A    between atoms: C_16  and  O_17
REMARK    6  A    between atoms: C_19  and  O_20
REMARK    7  A    between atoms: O_20  and  C_21
REMARK                            x       y       z     vdW  Elec       q    Type
REMARK                         _______ _______ _______ _____ _____    ______ ____
ROOT
ATOM      1  N   UNL     1       3.432   4.863  17.882  0.00  0.00    +0.000 N 
ATOM      2  C   UNL     1       3.664   5.219  19.231  0.00  0.00    +0.000 A 
ATOM      3  C   UNL     1       4.898   5.354  19.750  0.00  0.00    +0.000 A 
ATOM      4  C   UNL     1       6.075   5.090  18.924  0.00  0.00    +0.000 A 
ATOM      5  O   UNL     1       7.204   5.167  19.402  0.00  0.00    +0.000 OA
ATOM      6  C   UNL     1       5.862   4.729  17.511  0.00  0.00    +0.000 A 
ATOM      7  C   UNL     1       6.982   4.483  16.699  0.00  0.00    +0.000 A 
ATOM      8  C   UNL     1       6.825   4.137  15.366  0.00  0.00    +0.000 A 
ATOM      9  C   UNL     1       5.544   4.046  14.833  0.00  0.00    +0.000 A 
ATOM     10  C   UNL     1       4.426   4.307  15.647  0.00  0.00    +0.000 A 
ATOM     11  C   UNL     1       4.543   4.634  17.013  0.00  0.00    +0.000 A 
ENDROOT
BRANCH   1  13
ATOM     12  C   UNL     1       1.541   3.228  17.907  0.00  0.00    +0.000 C 
ATOM     13  C   UNL     1       2.069   4.560  17.384  0.00  0.00    +0.000 C 
ENDBRANCH   1  13
BRANCH   7  14
ATOM     14  O   UNL     1       8.274   4.555  17.152  0.00  0.00    +0.000 OA
ATOM     15  H   UNL     1       8.824   3.944  16.609  0.00  0.00    +0.000 HD
ENDBRANCH   7  14
BRANCH   9  16
ATOM     16  O   UNL     1       5.254   3.713  13.534  0.00  0.00    +0.000 OA
ATOM     17  C   UNL     1       6.359   3.597  12.641  0.00  0.00    +0.000 C 
ENDBRANCH   9  16
BRANCH   2  18
ATOM     18  C   UNL     1       2.505   5.512  20.182  0.00  0.00    +0.000 C 
BRANCH  18  19
ATOM     19  C   UNL     1       1.885   6.895  20.100  0.00  0.00    +0.000 A 
ATOM     20  C   UNL     1       1.165   7.470  21.158  0.00  0.00    +0.000 A 
ATOM     21  C   UNL     1       0.734   8.797  21.090  0.00  0.00    +0.000 A 
ATOM     22  C   UNL     1       1.017   9.568  19.966  0.00  0.00    +0.000 A 
ATOM     23  C   UNL     1       1.714   9.008  18.900  0.00  0.00    +0.000 A 
ATOM     24  C   UNL     1       2.147   7.682  18.966  0.00  0.00    +0.000 A 
ENDBRANCH  18  19
ENDBRANCH   2  18
TORSDOF 5
ENDMDL
MODEL 9
REMARK VINA RESULT:      -6.7      3.621      7.714
REMARK  Name = 
REMARK  7 active torsions:
REMARK  status: ('A' for Active; 'I' for Inactive)
REMARK    1  A    between atoms: C_1  and  C_2
REMARK    2  A    between atoms: C_2  and  N_3
REMARK    3  A    between atoms: C_4  and  C_5
REMARK    4  A    between atoms: C_5  and  C_6
REMARK    5  A    between atoms: C_16  and  O_17
REMARK    6  A    between atoms: C_19  and  O_20
REMARK    7  A    between atoms: O_20  and  C_21
REMARK                            x       y       z     vdW  Elec       q    Type
REMARK                         _______ _______ _______ _____ _____    ______ ____
ROOT
ATOM      1  N   UNL     1       4.324   4.649  16.626  0.00  0.00    +0.000 N 
ATOM      2  C   UNL     1       4.688   5.528  17.672  0.00  0.00    +0.000 A 
ATOM      3  C   UNL     1       5.808   6.272  17.648  0.00  0.00    +0.000 A 
ATOM      4  C   UNL     1       6.737   6.162  16.525  0.00  0.00    +0.000 A 
ATOM      5  O   UNL     1       7.786   6.804  16.516  0.00  0.00    +0.000 OA
ATOM      6  C   UNL     1       6.379   5.263  15.414  0.00  0.00    +0.000 A 
ATOM      7  C   UNL     1       7.254   5.154  14.320  0.00  0.00    +0.000 A 
ATOM      8  C   UNL     1       6.955   4.317  13.258  0.00  0.00    +0.000 A 
ATOM      9  C   UNL     1       5.770   3.591  13.276  0.00  0.00    +0.000 A 
ATOM     10  C   UNL     1       4.889   3.712  14.367  0.00  0.00    +0.000 A 
ATOM     11  C   UNL     1       5.171   4.532  15.479  0.00  0.00    +0.000 A 
ENDROOT
BRANCH   1  13
ATOM     12  C   UNL     1       3.489   2.525  17.643  0.00  0.00    +0.000 C 
ATOM     13  C   UNL     1       3.174   3.723  16.754  0.00  0.00    +0.000 C 
ENDBRANCH   1  13
BRANCH   7  14
ATOM     14  O   UNL     1       8.437   5.841  14.229  0.00  0.00    +0.000 OA
ATOM     15  H   UNL     1       8.244   6.742  13.881  0.00  0.00    +0.000 HD
ENDBRANCH   7  14
BRANCH   9  16
ATOM     16  O   UNL     1       5.359   2.729  12.290  0.00  0.00    +0.000 OA
ATOM     17  C   UNL     1       4.323   3.191  11.427  0.00  0.00    +0.000 C 
ENDBRANCH   9  16
BRANCH   2  18
ATOM     18  C   UNL     1       3.790   5.714  18.895  0.00  0.00    +0.000 C 
BRANCH  18  19
ATOM     19  C   UNL     1       2.970   6.989  18.954  0.00  0.00    +0.000 A 
ATOM     20  C   UNL     1       2.806   7.841  17.851  0.00  0.00    +0.000 A 
ATOM     21  C   UNL     1       1.929   8.926  17.911  0.00  0.00    +0.000 A 
ATOM     22  C   UNL     1       1.203   9.176  19.073  0.00  0.00    +0.000 A 
ATOM     23  C   UNL     1       1.367   8.351  20.182  0.00  0.00    +0.000 A 
ATOM     24  C   UNL     1       2.242   7.265  20.123  0.00  0.00    +0.000 A 
ENDBRANCH  18  19
ENDBRANCH   2  18
TORSDOF 5
ENDMDL
