MODEL 1
REMARK VINA RESULT:      -5.7      0.000      0.000
REMARK  Name = 
REMARK  5 active torsions:
REMARK  status: ('A' for Active; 'I' for Inactive)
REMARK    1  A    between atoms: C_1  and  N_2
REMARK    2  A    between atoms: N_2  and  C_3
REMARK    3  A    between atoms: N_2  and  S_4
REMARK    4  A    between atoms: S_4  and  C_7
REMARK    5  A    between atoms: C_10  and  O_11
REMARK                            x       y       z     vdW  Elec       q    Type
REMARK                         _______ _______ _______ _____ _____    ______ ____
ROOT
ATOM      1  C   UNL     1       5.285   4.280  17.724  0.00  0.00    +0.000 A 
ATOM      2  C   UNL     1       4.743   4.255  16.433  0.00  0.00    +0.000 A 
ATOM      3  C   UNL     1       5.546   4.597  15.341  0.00  0.00    +0.000 A 
ATOM      4  C   UNL     1       6.860   4.987  15.552  0.00  0.00    +0.000 A 
ATOM      5  C   UNL     1       7.395   5.041  16.836  0.00  0.00    +0.000 A 
ATOM      6  C   UNL     1       6.608   4.686  17.932  0.00  0.00    +0.000 A 
ENDROOT
BRANCH   1   7
ATOM      7  S   UNL     1       4.245   3.884  19.125  0.00  0.00    +0.000 S 
ATOM      8  O   UNL     1       3.917   5.140  19.776  0.00  0.00    +0.000 OA
ATOM      9  O   UNL     1       4.884   2.813  19.851  0.00  0.00    +0.000 OA
BRANCH   7  11
ATOM     10  C   UNL     1       2.510   1.875  18.731  0.00  0.00    +0.000 C 
ATOM     11  N   UNL     1       2.818   3.276  18.399  0.00  0.00    +0.000 NA
ATOM     12  C   UNL     1       1.624   4.140  18.474  0.00  0.00    +0.000 C 
ENDBRANCH   7  11
ENDBRANCH   1   7
BRANCH   4  13
ATOM     13  O   UNL     1       7.670   5.338  14.513  0.00  0.00    +0.000 OA
ATOM     14  H   UNL     1       7.137   5.397  13.703  0.00  0.00    +0.000 HD
ENDBRANCH   4  13
TORSDOF 3
ENDMDL
MODEL 2
REMARK VINA RESULT:      -5.6      2.094      2.621
REMARK  Name = 
REMARK  5 active torsions:
REMARK  status: ('A' for Active; 'I' for Inactive)
REMARK    1  A    between atoms: C_1  and  N_2
REMARK    2  A    between atoms: N_2  and  C_3
REMARK    3  A    between atoms: N_2  and  S_4
REMARK    4  A    between atoms: S_4  and  C_7
REMARK    5  A    between atoms: C_10  and  O_11
REMARK                            x       y       z     vdW  Elec       q    Type
REMARK                         _______ _______ _______ _____ _____    ______ ____
ROOT
ATOM      1  C   UNL     1       3.804   4.369  17.297  0.00  0.00    +0.000 A 
ATOM      2  C   UNL     1       4.016   5.710  17.635  0.00  0.00    +0.000 A 
ATOM      3  C   UNL     1       5.199   6.344  17.242  0.00  0.00    +0.000 A 
ATOM      4  C   UNL     1       6.161   5.626  16.549  0.00  0.00    +0.000 A 
ATOM      5  C   UNL     1       5.968   4.284  16.233  0.00  0.00    +0.000 A 
ATOM      6  C   UNL     1       4.785   3.646  16.607  0.00  0.00    +0.000 A 
ENDROOT
BRANCH   1   7
ATOM      7  S   UNL     1       2.310   3.546  17.838  0.00  0.00    +0.000 S 
ATOM      8  O   UNL     1       2.480   2.132  17.555  0.00  0.00    +0.000 OA
ATOM      9  O   UNL     1       1.191   4.284  17.304  0.00  0.00    +0.000 OA
BRANCH   7  11
ATOM     10  C   UNL     1       1.011   3.885  20.162  0.00  0.00    +0.000 C 
ATOM     11  N   UNL     1       2.339   3.754  19.537  0.00  0.00    +0.000 NA
ATOM     12  C   UNL     1       3.221   2.845  20.295  0.00  0.00    +0.000 C 
ENDBRANCH   7  11
ENDBRANCH   1   7
BRANCH   4  13
ATOM     13  O   UNL     1       7.332   6.207  16.158  0.00  0.00    +0.000 OA
ATOM     14  H   UNL     1       7.871   5.547  15.691  0.00  0.00    +0.000 HD
ENDBRANCH   4  13
TORSDOF 3
ENDMDL
MODEL 3
REMARK VINA RESULT:      -5.6      0.312      1.318
REMARK  Name = 
REMARK  5 active torsions:
REMARK  status: ('A' for Active; 'I' for Inactive)
REMARK    1  A    between atoms: C_1  and  N_2
REMARK    2  A    between atoms: N_2  and  C_3
REMARK    3  A    between atoms: N_2  and  S_4
REMARK    4  A    between atoms: S_4  and  C_7
REMARK    5  A    between atoms: C_10  and  O_11
REMARK                            x       y       z     vdW  Elec       q    Type
REMARK                         _______ _______ _______ _____ _____    ______ ____
ROOT
ATOM      1  C   UNL     1       5.288   4.437  17.710  0.00  0.00    +0.000 A 
ATOM      2  C   UNL     1       6.392   5.273  17.911  0.00  0.00    +0.000 A 
ATOM      3  C   UNL     1       7.205   5.616  16.825  0.00  0.00    +0.000 A 
ATOM      4  C   UNL     1       6.925   5.099  15.570  0.00  0.00    +0.000 A 
ATOM      5  C   UNL     1       5.844   4.244  15.370  0.00  0.00    +0.000 A 
ATOM      6  C   UNL     1       5.017   3.909  16.442  0.00  0.00    +0.000 A 
ENDROOT
BRANCH   1   7
ATOM      7  S   UNL     1       4.274   3.963  19.106  0.00  0.00    +0.000 S 
ATOM      8  O   UNL     1       3.886   5.188  19.782  0.00  0.00    +0.000 OA
ATOM      9  O   UNL     1       4.966   2.911  19.808  0.00  0.00    +0.000 OA
BRANCH   7  11
ATOM     10  C   UNL     1       2.599   1.899  18.730  0.00  0.00    +0.000 C 
ATOM     11  N   UNL     1       2.876   3.300  18.371  0.00  0.00    +0.000 NA
ATOM     12  C   UNL     1       1.658   4.133  18.406  0.00  0.00    +0.000 C 
ENDBRANCH   7  11
ENDBRANCH   1   7
BRANCH   4  13
ATOM     13  O   UNL     1       7.701   5.402  14.490  0.00  0.00    +0.000 OA
ATOM     14  H   UNL     1       8.352   4.693  14.360  0.00  0.00    +0.000 HD
ENDBRANCH   4  13
TORSDOF 3
ENDMDL
MODEL 4
REMARK VINA RESULT:      -5.6      1.893      2.284
REMARK  Name = 
REMARK  5 active torsions:
REMARK  status: ('A' for Active; 'I' for Inactive)
REMARK    1  A    between atoms: C_1  and  N_2
REMARK    2  A    between atoms: N_2  and  C_3
REMARK    3  A    between atoms: N_2  and  S_4
REMARK    4  A    between atoms: S_4  and  C_7
REMARK    5  A    between atoms: C_10  and  O_11
REMARK                            x       y       z     vdW  Elec       q    Type
REMARK                         _______ _______ _______ _____ _____    ______ ____
ROOT
ATOM      1  C   UNL     1       4.305   3.831  18.088  0.00  0.00    +0.000 A 
ATOM      2  C   UNL     1       4.791   3.537  16.809  0.00  0.00    +0.000 A 
ATOM      3  C   UNL     1       5.133   4.581  15.944  0.00  0.00    +0.000 A 
ATOM      4  C   UNL     1       4.957   5.895  16.353  0.00  0.00    +0.000 A 
ATOM      5  C   UNL     1       4.447   6.192  17.614  0.00  0.00    +0.000 A 
ATOM      6  C   UNL     1       4.118   5.158  18.492  0.00  0.00    +0.000 A 
ENDROOT
BRANCH   1   7
ATOM      7  S   UNL     1       3.826   2.495  19.179  0.00  0.00    +0.000 S 
ATOM      8  O   UNL     1       4.875   2.366  20.175  0.00  0.00    +0.000 OA
ATOM      9  O   UNL     1       3.441   1.377  18.353  0.00  0.00    +0.000 OA
BRANCH   7  11
ATOM     10  C   UNL     1       1.157   2.745  19.309  0.00  0.00    +0.000 C 
ATOM     11  N   UNL     1       2.428   3.105  19.959  0.00  0.00    +0.000 NA
ATOM     12  C   UNL     1       2.368   2.938  21.424  0.00  0.00    +0.000 C 
ENDBRANCH   7  11
ENDBRANCH   1   7
BRANCH   4  13
ATOM     13  O   UNL     1       5.269   6.939  15.534  0.00  0.00    +0.000 OA
ATOM     14  H   UNL     1       6.167   6.810  15.186  0.00  0.00    +0.000 HD
ENDBRANCH   4  13
TORSDOF 3
ENDMDL
MODEL 5
REMARK VINA RESULT:      -5.6      1.837      2.505
REMARK  Name = 
REMARK  5 active torsions:
REMARK  status: ('A' for Active; 'I' for Inactive)
REMARK    1  A    between atoms: C_1  and  N_2
REMARK    2  A    between atoms: N_2  and  C_3
REMARK    3  A    between atoms: N_2  and  S_4
REMARK    4  A    between atoms: S_4  and  C_7
REMARK    5  A    between atoms: C_10  and  O_11
REMARK                            x       y       z     vdW  Elec       q    Type
REMARK                         _______ _______ _______ _____ _____    ______ ____
ROOT
ATOM      1  C   UNL     1       4.593   3.718  18.449  0.00  0.00    +0.000 A 
ATOM      2  C   UNL     1       5.435   4.628  19.098  0.00  0.00    +0.000 A 
ATOM      3  C   UNL     1       5.972   5.703  18.382  0.00  0.00    +0.000 A 
ATOM      4  C   UNL     1       5.689   5.836  17.031  0.00  0.00    +0.000 A 
ATOM      5  C   UNL     1       4.874   4.918  16.375  0.00  0.00    +0.000 A 
ATOM      6  C   UNL     1       4.320   3.851  17.083  0.00  0.00    +0.000 A 
ENDROOT
BRANCH   1   7
ATOM      7  S   UNL     1       3.942   2.319  19.354  0.00  0.00    +0.000 S 
ATOM      8  O   UNL     1       4.878   2.034  20.426  0.00  0.00    +0.000 OA
ATOM      9  O   UNL     1       3.583   1.308  18.390  0.00  0.00    +0.000 OA
BRANCH   7  11
ATOM     10  C   UNL     1       1.268   2.561  19.353  0.00  0.00    +0.000 C 
ATOM     11  N   UNL     1       2.507   2.937  20.056  0.00  0.00    +0.000 NA
ATOM     12  C   UNL     1       2.378   2.796  21.519  0.00  0.00    +0.000 C 
ENDBRANCH   7  11
ENDBRANCH   1   7
BRANCH   4  13
ATOM     13  O   UNL     1       6.203   6.865  16.298  0.00  0.00    +0.000 OA
ATOM     14  H   UNL     1       7.008   6.561  15.848  0.00  0.00    +0.000 HD
ENDBRANCH   4  13
TORSDOF 3
ENDMDL
MODEL 6
REMARK VINA RESULT:      -5.6      2.083      2.542
REMARK  Name = 
REMARK  5 active torsions:
REMARK  status: ('A' for Active; 'I' for Inactive)
REMARK    1  A    between atoms: C_1  and  N_2
REMARK    2  A    between atoms: N_2  and  C_3
REMARK    3  A    between atoms: N_2  and  S_4
REMARK    4  A    between atoms: S_4  and  C_7
REMARK    5  A    between atoms: C_10  and  O_11
REMARK                            x       y       z     vdW  Elec       q    Type
REMARK                         _______ _______ _______ _____ _____    ______ ____
ROOT
ATOM      1  C   UNL     1       3.852   4.366  17.389  0.00  0.00    +0.000 A 
ATOM      2  C   UNL     1       4.764   3.680  16.578  0.00  0.00    +0.000 A 
ATOM      3  C   UNL     1       5.943   4.315  16.175  0.00  0.00    +0.000 A 
ATOM      4  C   UNL     1       6.180   5.626  16.558  0.00  0.00    +0.000 A 
ATOM      5  C   UNL     1       5.263   6.322  17.341  0.00  0.00    +0.000 A 
ATOM      6  C   UNL     1       4.091   5.693  17.763  0.00  0.00    +0.000 A 
ENDROOT
BRANCH   1   7
ATOM      7  S   UNL     1       2.324   3.569  17.868  0.00  0.00    +0.000 S 
ATOM      8  O   UNL     1       2.472   2.155  17.572  0.00  0.00    +0.000 OA
ATOM      9  O   UNL     1       1.239   4.338  17.309  0.00  0.00    +0.000 OA
BRANCH   7  11
ATOM     10  C   UNL     1       0.954   3.836  20.161  0.00  0.00    +0.000 C 
ATOM     11  N   UNL     1       2.300   3.752  19.571  0.00  0.00    +0.000 NA
ATOM     12  C   UNL     1       3.188   2.858  20.340  0.00  0.00    +0.000 C 
ENDBRANCH   7  11
ENDBRANCH   1   7
BRANCH   4  13
ATOM     13  O   UNL     1       7.313   6.282  16.176  0.00  0.00    +0.000 OA
ATOM     14  H   UNL     1       7.124   6.798  15.374  0.00  0.00    +0.000 HD
ENDBRANCH   4  13
TORSDOF 3
ENDMDL
MODEL 7
REMARK VINA RESULT:      -5.5      1.892      2.302
REMARK  Name = 
REMARK  5 active torsions:
REMARK  status: ('A' for Active; 'I' for Inactive)
REMARK    1  A    between atoms: C_1  and  N_2
REMARK    2  A    between atoms: N_2  and  C_3
REMARK    3  A    between atoms: N_2  and  S_4
REMARK    4  A    between atoms: S_4  and  C_7
REMARK    5  A    between atoms: C_10  and  O_11
REMARK                            x       y       z     vdW  Elec       q    Type
REMARK                         _______ _______ _______ _____ _____    ______ ____
ROOT
ATOM      1  C   UNL     1       4.017   4.506  18.006  0.00  0.00    +0.000 A 
ATOM      2  C   UNL     1       4.306   4.064  16.710  0.00  0.00    +0.000 A 
ATOM      3  C   UNL     1       5.633   4.039  16.269  0.00  0.00    +0.000 A 
ATOM      4  C   UNL     1       6.643   4.483  17.109  0.00  0.00    +0.000 A 
ATOM      5  C   UNL     1       6.358   4.949  18.390  0.00  0.00    +0.000 A 
ATOM      6  C   UNL     1       5.040   4.962  18.847  0.00  0.00    +0.000 A 
ENDROOT
BRANCH   1   7
ATOM      7  S   UNL     1       2.316   4.578  18.556  0.00  0.00    +0.000 S 
ATOM      8  O   UNL     1       1.489   4.206  17.422  0.00  0.00    +0.000 OA
ATOM      9  O   UNL     1       2.132   5.839  19.232  0.00  0.00    +0.000 OA
BRANCH   7  11
ATOM     10  C   UNL     1       1.591   3.704  20.988  0.00  0.00    +0.000 C 
ATOM     11  N   UNL     1       2.222   3.320  19.714  0.00  0.00    +0.000 NA
ATOM     12  C   UNL     1       1.738   2.014  19.227  0.00  0.00    +0.000 C 
ENDBRANCH   7  11
ENDBRANCH   1   7
BRANCH   4  13
ATOM     13  O   UNL     1       7.947   4.484  16.711  0.00  0.00    +0.000 OA
ATOM     14  H   UNL     1       8.514   4.629  17.486  0.00  0.00    +0.000 HD
ENDBRANCH   4  13
TORSDOF 3
ENDMDL
MODEL 8
REMARK VINA RESULT:      -5.5      2.247      4.980
REMARK  Name = 
REMARK  5 active torsions:
REMARK  status: ('A' for Active; 'I' for Inactive)
REMARK    1  A    between atoms: C_1  and  N_2
REMARK    2  A    between atoms: N_2  and  C_3
REMARK    3  A    between atoms: N_2  and  S_4
REMARK    4  A    between atoms: S_4  and  C_7
REMARK    5  A    between atoms: C_10  and  O_11
REMARK                            x       y       z     vdW  Elec       q    Type
REMARK                         _______ _______ _______ _____ _____    ______ ____
ROOT
ATOM      1  C   UNL     1       3.636   4.371  18.133  0.00  0.00    +0.000 A 
ATOM      2  C   UNL     1       3.773   3.030  17.757  0.00  0.00    +0.000 A 
ATOM      3  C   UNL     1       2.671   2.172  17.843  0.00  0.00    +0.000 A 
ATOM      4  C   UNL     1       1.466   2.653  18.331  0.00  0.00    +0.000 A 
ATOM      5  C   UNL     1       1.331   3.980  18.732  0.00  0.00    +0.000 A 
ATOM      6  C   UNL     1       2.419   4.848  18.635  0.00  0.00    +0.000 A 
ENDROOT
BRANCH   1   7
ATOM      7  S   UNL     1       5.056   5.457  18.063  0.00  0.00    +0.000 S 
ATOM      8  O   UNL     1       5.715   5.375  19.354  0.00  0.00    +0.000 OA
ATOM      9  O   UNL     1       4.608   6.723  17.535  0.00  0.00    +0.000 OA
BRANCH   7  11
ATOM     10  C   UNL     1       5.890   5.200  15.525  0.00  0.00    +0.000 C 
ATOM     11  N   UNL     1       6.068   4.709  16.903  0.00  0.00    +0.000 NA
ATOM     12  C   UNL     1       7.493   4.574  17.263  0.00  0.00    +0.000 C 
ENDBRANCH   7  11
ENDBRANCH   1   7
BRANCH   4  13
ATOM     13  O   UNL     1       0.373   1.845  18.440  0.00  0.00    +0.000 OA
ATOM     14  H   UNL     1      -0.172   2.150  19.184  0.00  0.00    +0.000 HD
ENDBRANCH   4  13
TORSDOF 3
ENDMDL
MODEL 9
REMARK VINA RESULT:      -5.5      1.859      2.357
REMARK  Name = 
REMARK  5 active torsions:
REMARK  status: ('A' for Active; 'I' for Inactive)
REMARK    1  A    between atoms: C_1  and  N_2
REMARK    2  A    between atoms: N_2  and  C_3
REMARK    3  A    between atoms: N_2  and  S_4
REMARK    4  A    between atoms: S_4  and  C_7
REMARK    5  A    between atoms: C_10  and  O_11
REMARK                            x       y       z     vdW  Elec       q    Type
REMARK                         _______ _______ _______ _____ _____    ______ ____
ROOT
ATOM      1  C   UNL     1       3.802   4.980  17.362  0.00  0.00    +0.000 A 
ATOM      2  C   UNL     1       4.326   6.276  17.293  0.00  0.00    +0.000 A 
ATOM      3  C   UNL     1       5.514   6.504  16.591  0.00  0.00    +0.000 A 
ATOM      4  C   UNL     1       6.174   5.439  15.998  0.00  0.00    +0.000 A 
ATOM      5  C   UNL     1       5.672   4.143  16.088  0.00  0.00    +0.000 A 
ATOM      6  C   UNL     1       4.479   3.906  16.772  0.00  0.00    +0.000 A 
ENDROOT
BRANCH   1   7
ATOM      7  S   UNL     1       2.306   4.681  18.297  0.00  0.00    +0.000 S 
ATOM      8  O   UNL     1       1.266   4.356  17.338  0.00  0.00    +0.000 OA
ATOM      9  O   UNL     1       2.149   5.773  19.226  0.00  0.00    +0.000 OA
BRANCH   7  11
ATOM     10  C   UNL     1       2.735   3.446  20.642  0.00  0.00    +0.000 C 
ATOM     11  N   UNL     1       2.671   3.261  19.182  0.00  0.00    +0.000 NA
ATOM     12  C   UNL     1       1.923   2.044  18.810  0.00  0.00    +0.000 C 
ENDBRANCH   7  11
ENDBRANCH   1   7
BRANCH   4  13
ATOM     13  O   UNL     1       7.340   5.620  15.314  0.00  0.00    +0.000 OA
ATOM     14  H   UNL     1       7.458   4.884  14.691  0.00  0.00    +0.000 HD
ENDBRANCH   4  13
TORSDOF 3
ENDMDL
