MODEL 1
REMARK VINA RESULT:      -7.0      0.000      0.000
REMARK  Name = 
REMARK  5 active torsions:
REMARK  status: ('A' for Active; 'I' for Inactive)
REMARK    1  A    between atoms: C_1  and  C_2
REMARK    2  A    between atoms: C_2  and  C_3
REMARK    3  A    between atoms: C_3  and  N_4
REMARK    4  A    between atoms: N_17  and  C_18
REMARK    5  A    between atoms: C_18  and  C_19
REMARK                            x       y       z     vdW  Elec       q    Type
REMARK                         _______ _______ _______ _____ _____    ______ ____
ROOT
ATOM      1  N   UNL     1       4.413   4.223  17.342  0.00  0.00    +0.000 N 
ATOM      2  C   UNL     1       4.146   5.021  18.441  0.00  0.00    +0.000 C 
ATOM      3  O   UNL     1       4.242   4.609  19.588  0.00  0.00    +0.000 OA
ATOM      4  C   UNL     1       3.838   6.426  18.002  0.00  0.00    +0.000 C 
ATOM      5  C   UNL     1       2.965   7.364  18.508  0.00  0.00    +0.000 C 
ATOM      6  C   UNL     1       2.793   8.579  17.682  0.00  0.00    +0.000 C 
ATOM      7  C   UNL     1       1.958   9.575  17.965  0.00  0.00    +0.000 C 
ATOM      8  C   UNL     1       1.175   9.524  19.181  0.00  0.00    +0.000 A 
ATOM      9  C   UNL     1       0.343  10.633  19.444  0.00  0.00    +0.000 A 
ATOM     10  C   UNL     1      -0.426  10.684  20.593  0.00  0.00    +0.000 A 
ATOM     11  C   UNL     1      -0.365   9.620  21.470  0.00  0.00    +0.000 A 
ATOM     12  C   UNL     1       0.465   8.515  21.195  0.00  0.00    +0.000 A 
ATOM     13  C   UNL     1       1.270   8.404  20.049  0.00  0.00    +0.000 A 
ATOM     14  N   UNL     1       2.133   7.308  19.714  0.00  0.00    +0.000 N 
ATOM     15  S   UNL     1       4.762   6.602  16.506  0.00  0.00    +0.000 S 
ATOM     16  C   UNL     1       4.924   4.878  16.255  0.00  0.00    +0.000 C 
ATOM     17  S   UNL     1       5.597   4.235  14.874  0.00  0.00    +0.000 S 
ENDROOT
BRANCH  14  18
ATOM     18  C   UNL     1       2.302   6.119  20.596  0.00  0.00    +0.000 C 
ATOM     19  C   UNL     1       1.353   4.953  20.735  0.00  0.00    +0.000 C 
ENDBRANCH  14  18
BRANCH   1  20
ATOM     20  C   UNL     1       4.261   2.775  17.482  0.00  0.00    +0.000 C 
BRANCH  20  22
ATOM     21  C   UNL     1       2.276   1.863  18.804  0.00  0.00    +0.000 C 
ATOM     22  C   UNL     1       2.777   2.365  17.455  0.00  0.00    +0.000 C 
ENDBRANCH  20  22
ENDBRANCH   1  20
TORSDOF 3
ENDMDL
MODEL 2
REMARK VINA RESULT:      -6.4      2.941      7.021
REMARK  Name = 
REMARK  5 active torsions:
REMARK  status: ('A' for Active; 'I' for Inactive)
REMARK    1  A    between atoms: C_1  and  C_2
REMARK    2  A    between atoms: C_2  and  C_3
REMARK    3  A    between atoms: C_3  and  N_4
REMARK    4  A    between atoms: N_17  and  C_18
REMARK    5  A    between atoms: C_18  and  C_19
REMARK                            x       y       z     vdW  Elec       q    Type
REMARK                         _______ _______ _______ _____ _____    ______ ____
ROOT
ATOM      1  N   UNL     1       0.678   9.894  19.490  0.00  0.00    +0.000 N 
ATOM      2  C   UNL     1       1.718   9.047  19.149  0.00  0.00    +0.000 C 
ATOM      3  O   UNL     1       2.513   9.312  18.259  0.00  0.00    +0.000 OA
ATOM      4  C   UNL     1       1.754   7.865  20.079  0.00  0.00    +0.000 C 
ATOM      5  C   UNL     1       2.086   6.547  19.858  0.00  0.00    +0.000 C 
ATOM      6  C   UNL     1       1.811   5.628  20.985  0.00  0.00    +0.000 C 
ATOM      7  C   UNL     1       2.008   4.312  20.955  0.00  0.00    +0.000 C 
ATOM      8  C   UNL     1       2.569   3.704  19.768  0.00  0.00    +0.000 A 
ATOM      9  C   UNL     1       2.793   2.311  19.818  0.00  0.00    +0.000 A 
ATOM     10  C   UNL     1       3.347   1.645  18.739  0.00  0.00    +0.000 A 
ATOM     11  C   UNL     1       3.665   2.374  17.611  0.00  0.00    +0.000 A 
ATOM     12  C   UNL     1       3.432   3.763  17.570  0.00  0.00    +0.000 A 
ATOM     13  C   UNL     1       2.875   4.497  18.631  0.00  0.00    +0.000 A 
ATOM     14  N   UNL     1       2.614   5.907  18.649  0.00  0.00    +0.000 N 
ATOM     15  S   UNL     1       1.089   8.506  21.585  0.00  0.00    +0.000 S 
ATOM     16  C   UNL     1       0.316   9.871  20.809  0.00  0.00    +0.000 C 
ATOM     17  S   UNL     1      -0.691  10.914  21.630  0.00  0.00    +0.000 S 
ENDROOT
BRANCH  14  18
ATOM     18  C   UNL     1       2.941   6.801  17.502  0.00  0.00    +0.000 C 
ATOM     19  C   UNL     1       4.298   7.011  16.877  0.00  0.00    +0.000 C 
ENDBRANCH  14  18
BRANCH   1  20
ATOM     20  C   UNL     1       0.166  10.811  18.472  0.00  0.00    +0.000 C 
BRANCH  20  22
ATOM     21  C   UNL     1      -2.249  11.374  17.863  0.00  0.00    +0.000 C 
ATOM     22  C   UNL     1      -1.163  10.305  17.883  0.00  0.00    +0.000 C 
ENDBRANCH  20  22
ENDBRANCH   1  20
TORSDOF 3
ENDMDL
MODEL 3
REMARK VINA RESULT:      -6.4      2.416      3.965
REMARK  Name = 
REMARK  5 active torsions:
REMARK  status: ('A' for Active; 'I' for Inactive)
REMARK    1  A    between atoms: C_1  and  C_2
REMARK    2  A    between atoms: C_2  and  C_3
REMARK    3  A    between atoms: C_3  and  N_4
REMARK    4  A    between atoms: N_17  and  C_18
REMARK    5  A    between atoms: C_18  and  C_19
REMARK                            x       y       z     vdW  Elec       q    Type
REMARK                         _______ _______ _______ _____ _____    ______ ____
ROOT
ATOM      1  N   UNL     1       4.071   6.704  18.083  0.00  0.00    +0.000 N 
ATOM      2  C   UNL     1       2.979   7.551  18.029  0.00  0.00    +0.000 C 
ATOM      3  O   UNL     1       2.702   8.200  17.030  0.00  0.00    +0.000 OA
ATOM      4  C   UNL     1       2.183   7.458  19.301  0.00  0.00    +0.000 C 
ATOM      5  C   UNL     1       1.481   8.412  20.005  0.00  0.00    +0.000 C 
ATOM      6  C   UNL     1       0.983   7.982  21.330  0.00  0.00    +0.000 C 
ATOM      7  C   UNL     1       0.333   8.767  22.186  0.00  0.00    +0.000 C 
ATOM      8  C   UNL     1       0.034  10.133  21.814  0.00  0.00    +0.000 A 
ATOM      9  C   UNL     1      -0.696  10.897  22.748  0.00  0.00    +0.000 A 
ATOM     10  C   UNL     1      -1.048  12.206  22.470  0.00  0.00    +0.000 A 
ATOM     11  C   UNL     1      -0.658  12.748  21.262  0.00  0.00    +0.000 A 
ATOM     12  C   UNL     1       0.076  11.977  20.339  0.00  0.00    +0.000 A 
ATOM     13  C   UNL     1       0.462  10.645  20.559  0.00  0.00    +0.000 A 
ATOM     14  N   UNL     1       1.208   9.811  19.661  0.00  0.00    +0.000 N 
ATOM     15  S   UNL     1       2.472   5.802  19.848  0.00  0.00    +0.000 S 
ATOM     16  C   UNL     1       3.917   5.603  18.880  0.00  0.00    +0.000 C 
ATOM     17  S   UNL     1       4.888   4.254  18.991  0.00  0.00    +0.000 S 
ENDROOT
BRANCH  14  18
ATOM     18  C   UNL     1       1.658  10.276  18.319  0.00  0.00    +0.000 C 
ATOM     19  C   UNL     1       2.400  11.552  18.005  0.00  0.00    +0.000 C 
ENDBRANCH  14  18
BRANCH   1  20
ATOM     20  C   UNL     1       5.207   6.978  17.204  0.00  0.00    +0.000 C 
BRANCH  20  22
ATOM     21  C   UNL     1       6.336   5.313  15.629  0.00  0.00    +0.000 C 
ATOM     22  C   UNL     1       5.106   6.173  15.894  0.00  0.00    +0.000 C 
ENDBRANCH  20  22
ENDBRANCH   1  20
TORSDOF 3
ENDMDL
MODEL 4
REMARK VINA RESULT:      -6.3      5.406      9.172
REMARK  Name = 
REMARK  5 active torsions:
REMARK  status: ('A' for Active; 'I' for Inactive)
REMARK    1  A    between atoms: C_1  and  C_2
REMARK    2  A    between atoms: C_2  and  C_3
REMARK    3  A    between atoms: C_3  and  N_4
REMARK    4  A    between atoms: N_17  and  C_18
REMARK    5  A    between atoms: C_18  and  C_19
REMARK                            x       y       z     vdW  Elec       q    Type
REMARK                         _______ _______ _______ _____ _____    ______ ____
ROOT
ATOM      1  N   UNL     1      -3.468  12.889  21.734  0.00  0.00    +0.000 N 
ATOM      2  C   UNL     1      -2.285  12.766  21.026  0.00  0.00    +0.000 C 
ATOM      3  O   UNL     1      -2.000  13.504  20.094  0.00  0.00    +0.000 OA
ATOM      4  C   UNL     1      -1.421  11.697  21.637  0.00  0.00    +0.000 C 
ATOM      5  C   UNL     1      -0.560  10.789  21.063  0.00  0.00    +0.000 C 
ATOM      6  C   UNL     1      -0.029   9.754  21.978  0.00  0.00    +0.000 C 
ATOM      7  C   UNL     1       0.771   8.757  21.611  0.00  0.00    +0.000 C 
ATOM      8  C   UNL     1       1.210   8.666  20.236  0.00  0.00    +0.000 A 
ATOM      9  C   UNL     1       2.093   7.610  19.922  0.00  0.00    +0.000 A 
ATOM     10  C   UNL     1       2.584   7.456  18.638  0.00  0.00    +0.000 A 
ATOM     11  C   UNL     1       2.182   8.354  17.670  0.00  0.00    +0.000 A 
ATOM     12  C   UNL     1       1.295   9.401  17.993  0.00  0.00    +0.000 A 
ATOM     13  C   UNL     1       0.764   9.613  19.275  0.00  0.00    +0.000 A 
ATOM     14  N   UNL     1      -0.140  10.657  19.664  0.00  0.00    +0.000 N 
ATOM     15  S   UNL     1      -1.875  11.727  23.345  0.00  0.00    +0.000 S 
ATOM     16  C   UNL     1      -3.397  12.542  23.055  0.00  0.00    +0.000 C 
ATOM     17  S   UNL     1      -4.518  12.798  24.261  0.00  0.00    +0.000 S 
ENDROOT
BRANCH  14  18
ATOM     18  C   UNL     1      -0.621  11.700  18.715  0.00  0.00    +0.000 C 
ATOM     19  C   UNL     1      -1.645  11.524  17.620  0.00  0.00    +0.000 C 
ENDBRANCH  14  18
BRANCH   1  20
ATOM     20  C   UNL     1      -4.619  13.492  21.063  0.00  0.00    +0.000 C 
BRANCH  20  22
ATOM     21  C   UNL     1      -6.759  12.100  20.986  0.00  0.00    +0.000 C 
ATOM     22  C   UNL     1      -5.439  12.434  20.302  0.00  0.00    +0.000 C 
ENDBRANCH  20  22
ENDBRANCH   1  20
TORSDOF 3
ENDMDL
MODEL 5
REMARK VINA RESULT:      -6.0      2.776      6.732
REMARK  Name = 
REMARK  5 active torsions:
REMARK  status: ('A' for Active; 'I' for Inactive)
REMARK    1  A    between atoms: C_1  and  C_2
REMARK    2  A    between atoms: C_2  and  C_3
REMARK    3  A    between atoms: C_3  and  N_4
REMARK    4  A    between atoms: N_17  and  C_18
REMARK    5  A    between atoms: C_18  and  C_19
REMARK                            x       y       z     vdW  Elec       q    Type
REMARK                         _______ _______ _______ _____ _____    ______ ____
ROOT
ATOM      1  N   UNL     1       0.828   9.894  21.295  0.00  0.00    +0.000 N 
ATOM      2  C   UNL     1       0.815   8.626  20.741  0.00  0.00    +0.000 C 
ATOM      3  O   UNL     1       0.219   7.692  21.257  0.00  0.00    +0.000 OA
ATOM      4  C   UNL     1       1.533   8.627  19.420  0.00  0.00    +0.000 C 
ATOM      5  C   UNL     1       2.318   7.672  18.813  0.00  0.00    +0.000 C 
ATOM      6  C   UNL     1       3.021   8.115  17.588  0.00  0.00    +0.000 C 
ATOM      7  C   UNL     1       3.867   7.365  16.887  0.00  0.00    +0.000 C 
ATOM      8  C   UNL     1       4.112   5.998  17.294  0.00  0.00    +0.000 A 
ATOM      9  C   UNL     1       4.985   5.243  16.482  0.00  0.00    +0.000 A 
ATOM     10  C   UNL     1       5.262   3.921  16.779  0.00  0.00    +0.000 A 
ATOM     11  C   UNL     1       4.671   3.362  17.894  0.00  0.00    +0.000 A 
ATOM     12  C   UNL     1       3.805   4.126  18.702  0.00  0.00    +0.000 A 
ATOM     13  C   UNL     1       3.483   5.470  18.453  0.00  0.00    +0.000 A 
ATOM     14  N   UNL     1       2.612   6.299  19.236  0.00  0.00    +0.000 N 
ATOM     15  S   UNL     1       1.289  10.271  18.820  0.00  0.00    +0.000 S 
ATOM     16  C   UNL     1       0.899  10.923  20.397  0.00  0.00    +0.000 C 
ATOM     17  S   UNL     1       0.679  12.553  20.661  0.00  0.00    +0.000 S 
ENDROOT
BRANCH  14  18
ATOM     18  C   UNL     1       1.896   5.798  20.443  0.00  0.00    +0.000 C 
ATOM     19  C   UNL     1       1.158   4.489  20.580  0.00  0.00    +0.000 C 
ENDBRANCH  14  18
BRANCH   1  20
ATOM     20  C   UNL     1       0.631  10.023  22.739  0.00  0.00    +0.000 C 
BRANCH  20  22
ATOM     21  C   UNL     1      -1.519  11.346  23.127  0.00  0.00    +0.000 C 
ATOM     22  C   UNL     1      -0.864   9.970  23.104  0.00  0.00    +0.000 C 
ENDBRANCH  20  22
ENDBRANCH   1  20
TORSDOF 3
ENDMDL
MODEL 6
REMARK VINA RESULT:      -5.9      1.922      2.759
REMARK  Name = 
REMARK  5 active torsions:
REMARK  status: ('A' for Active; 'I' for Inactive)
REMARK    1  A    between atoms: C_1  and  C_2
REMARK    2  A    between atoms: C_2  and  C_3
REMARK    3  A    between atoms: C_3  and  N_4
REMARK    4  A    between atoms: N_17  and  C_18
REMARK    5  A    between atoms: C_18  and  C_19
REMARK                            x       y       z     vdW  Elec       q    Type
REMARK                         _______ _______ _______ _____ _____    ______ ____
ROOT
ATOM      1  N   UNL     1       1.922   4.787  19.216  0.00  0.00    +0.000 N 
ATOM      2  C   UNL     1       1.963   5.942  19.978  0.00  0.00    +0.000 C 
ATOM      3  O   UNL     1       1.790   5.934  21.188  0.00  0.00    +0.000 OA
ATOM      4  C   UNL     1       2.338   7.119  19.120  0.00  0.00    +0.000 C 
ATOM      5  C   UNL     1       1.938   8.437  19.163  0.00  0.00    +0.000 C 
ATOM      6  C   UNL     1       2.376   9.269  18.021  0.00  0.00    +0.000 C 
ATOM      7  C   UNL     1       2.051  10.547  17.846  0.00  0.00    +0.000 C 
ATOM      8  C   UNL     1       1.248  11.220  18.843  0.00  0.00    +0.000 A 
ATOM      9  C   UNL     1       0.976  12.587  18.619  0.00  0.00    +0.000 A 
ATOM     10  C   UNL     1       0.234  13.319  19.529  0.00  0.00    +0.000 A 
ATOM     11  C   UNL     1      -0.240  12.677  20.655  0.00  0.00    +0.000 A 
ATOM     12  C   UNL     1       0.032  11.311  20.866  0.00  0.00    +0.000 A 
ATOM     13  C   UNL     1       0.779  10.514  19.983  0.00  0.00    +0.000 A 
ATOM     14  N   UNL     1       1.088   9.123  20.142  0.00  0.00    +0.000 N 
ATOM     15  S   UNL     1       3.342   6.404  17.854  0.00  0.00    +0.000 S 
ATOM     16  C   UNL     1       2.741   4.782  18.120  0.00  0.00    +0.000 C 
ATOM     17  S   UNL     1       3.151   3.504  17.133  0.00  0.00    +0.000 S 
ENDROOT
BRANCH  14  18
ATOM     18  C   UNL     1       0.655   8.332  21.329  0.00  0.00    +0.000 C 
ATOM     19  C   UNL     1      -0.479   8.660  22.270  0.00  0.00    +0.000 C 
ENDBRANCH  14  18
BRANCH   1  20
ATOM     20  C   UNL     1       1.136   3.657  19.709  0.00  0.00    +0.000 C 
BRANCH  20  22
ATOM     21  C   UNL     1       1.685   2.512  21.925  0.00  0.00    +0.000 C 
ATOM     22  C   UNL     1       2.026   2.638  20.445  0.00  0.00    +0.000 C 
ENDBRANCH  20  22
ENDBRANCH   1  20
TORSDOF 3
ENDMDL
MODEL 7
REMARK VINA RESULT:      -5.7      4.902      8.934
REMARK  Name = 
REMARK  5 active torsions:
REMARK  status: ('A' for Active; 'I' for Inactive)
REMARK    1  A    between atoms: C_1  and  C_2
REMARK    2  A    between atoms: C_2  and  C_3
REMARK    3  A    between atoms: C_3  and  N_4
REMARK    4  A    between atoms: N_17  and  C_18
REMARK    5  A    between atoms: C_18  and  C_19
REMARK                            x       y       z     vdW  Elec       q    Type
REMARK                         _______ _______ _______ _____ _____    ______ ____
ROOT
ATOM      1  N   UNL     1      -2.202  12.823  21.519  0.00  0.00    +0.000 N 
ATOM      2  C   UNL     1      -0.957  12.534  20.986  0.00  0.00    +0.000 C 
ATOM      3  O   UNL     1      -0.356  13.317  20.265  0.00  0.00    +0.000 OA
ATOM      4  C   UNL     1      -0.462  11.212  21.505  0.00  0.00    +0.000 C 
ATOM      5  C   UNL     1       0.288  10.225  20.905  0.00  0.00    +0.000 C 
ATOM      6  C   UNL     1       0.412   8.968  21.676  0.00  0.00    +0.000 C 
ATOM      7  C   UNL     1       1.045   7.878  21.250  0.00  0.00    +0.000 C 
ATOM      8  C   UNL     1       1.708   7.897  19.964  0.00  0.00    +0.000 A 
ATOM      9  C   UNL     1       2.398   6.723  19.591  0.00  0.00    +0.000 A 
ATOM     10  C   UNL     1       3.081   6.656  18.389  0.00  0.00    +0.000 A 
ATOM     11  C   UNL     1       3.061   7.759  17.561  0.00  0.00    +0.000 A 
ATOM     12  C   UNL     1       2.364   8.924  17.940  0.00  0.00    +0.000 A 
ATOM     13  C   UNL     1       1.655   9.057  19.145  0.00  0.00    +0.000 A 
ATOM     14  N   UNL     1       0.928  10.212  19.586  0.00  0.00    +0.000 N 
ATOM     15  S   UNL     1      -1.214  11.088  23.100  0.00  0.00    +0.000 S 
ATOM     16  C   UNL     1      -2.454  12.272  22.745  0.00  0.00    +0.000 C 
ATOM     17  S   UNL     1      -3.705  12.598  23.796  0.00  0.00    +0.000 S 
ENDROOT
BRANCH  14  18
ATOM     18  C   UNL     1       0.859  11.471  18.791  0.00  0.00    +0.000 C 
ATOM     19  C   UNL     1       2.018  12.343  18.375  0.00  0.00    +0.000 C 
ENDBRANCH  14  18
BRANCH   1  20
ATOM     20  C   UNL     1      -3.057  13.774  20.810  0.00  0.00    +0.000 C 
BRANCH  20  22
ATOM     21  C   UNL     1      -2.361  16.216  20.534  0.00  0.00    +0.000 C 
ATOM     22  C   UNL     1      -2.988  15.172  21.452  0.00  0.00    +0.000 C 
ENDBRANCH  20  22
ENDBRANCH   1  20
TORSDOF 3
ENDMDL
MODEL 8
REMARK VINA RESULT:      -5.7      4.125      7.898
REMARK  Name = 
REMARK  5 active torsions:
REMARK  status: ('A' for Active; 'I' for Inactive)
REMARK    1  A    between atoms: C_1  and  C_2
REMARK    2  A    between atoms: C_2  and  C_3
REMARK    3  A    between atoms: C_3  and  N_4
REMARK    4  A    between atoms: N_17  and  C_18
REMARK    5  A    between atoms: C_18  and  C_19
REMARK                            x       y       z     vdW  Elec       q    Type
REMARK                         _______ _______ _______ _____ _____    ______ ____
ROOT
ATOM      1  N   UNL     1       0.132  13.373  20.903  0.00  0.00    +0.000 N 
ATOM      2  C   UNL     1      -0.166  12.023  20.854  0.00  0.00    +0.000 C 
ATOM      3  O   UNL     1      -0.892  11.482  21.676  0.00  0.00    +0.000 OA
ATOM      4  C   UNL     1       0.439  11.399  19.626  0.00  0.00    +0.000 C 
ATOM      5  C   UNL     1       0.977  10.150  19.414  0.00  0.00    +0.000 C 
ATOM      6  C   UNL     1       1.659   9.966  18.114  0.00  0.00    +0.000 C 
ATOM      7  C   UNL     1       2.290   8.856  17.739  0.00  0.00    +0.000 C 
ATOM      8  C   UNL     1       2.296   7.709  18.621  0.00  0.00    +0.000 A 
ATOM      9  C   UNL     1       2.944   6.549  18.145  0.00  0.00    +0.000 A 
ATOM     10  C   UNL     1       2.982   5.396  18.908  0.00  0.00    +0.000 A 
ATOM     11  C   UNL     1       2.378   5.411  20.149  0.00  0.00    +0.000 A 
ATOM     12  C   UNL     1       1.739   6.577  20.617  0.00  0.00    +0.000 A 
ATOM     13  C   UNL     1       1.664   7.776  19.891  0.00  0.00    +0.000 A 
ATOM     14  N   UNL     1       1.030   8.992  20.313  0.00  0.00    +0.000 N 
ATOM     15  S   UNL     1       0.472  12.730  18.463  0.00  0.00    +0.000 S 
ATOM     16  C   UNL     1       0.334  13.971  19.689  0.00  0.00    +0.000 C 
ATOM     17  S   UNL     1       0.454  15.594  19.335  0.00  0.00    +0.000 S 
ENDROOT
BRANCH  14  18
ATOM     18  C   UNL     1       0.323   9.120  21.619  0.00  0.00    +0.000 C 
ATOM     19  C   UNL     1       0.955   9.186  22.987  0.00  0.00    +0.000 C 
ENDBRANCH  14  18
BRANCH   1  20
ATOM     20  C   UNL     1       0.071  14.051  22.197  0.00  0.00    +0.000 C 
BRANCH  20  22
ATOM     21  C   UNL     1      -1.961  14.141  23.741  0.00  0.00    +0.000 C 
ATOM     22  C   UNL     1      -1.326  14.645  22.451  0.00  0.00    +0.000 C 
ENDBRANCH  20  22
ENDBRANCH   1  20
TORSDOF 3
ENDMDL
MODEL 9
REMARK VINA RESULT:      -5.5      4.479      8.007
REMARK  Name = 
REMARK  5 active torsions:
REMARK  status: ('A' for Active; 'I' for Inactive)
REMARK    1  A    between atoms: C_1  and  C_2
REMARK    2  A    between atoms: C_2  and  C_3
REMARK    3  A    between atoms: C_3  and  N_4
REMARK    4  A    between atoms: N_17  and  C_18
REMARK    5  A    between atoms: C_18  and  C_19
REMARK                            x       y       z     vdW  Elec       q    Type
REMARK                         _______ _______ _______ _____ _____    ______ ____
ROOT
ATOM      1  N   UNL     1       1.076  13.996  20.745  0.00  0.00    +0.000 N 
ATOM      2  C   UNL     1       0.597  12.706  20.892  0.00  0.00    +0.000 C 
ATOM      3  O   UNL     1      -0.021  12.345  21.882  0.00  0.00    +0.000 OA
ATOM      4  C   UNL     1       0.866  11.905  19.647  0.00  0.00    +0.000 C 
ATOM      5  C   UNL     1       1.184  10.576  19.474  0.00  0.00    +0.000 C 
ATOM      6  C   UNL     1       1.572  10.192  18.099  0.00  0.00    +0.000 C 
ATOM      7  C   UNL     1       1.966   8.974  17.735  0.00  0.00    +0.000 C 
ATOM      8  C   UNL     1       1.990   7.911  18.716  0.00  0.00    +0.000 A 
ATOM      9  C   UNL     1       2.375   6.634  18.256  0.00  0.00    +0.000 A 
ATOM     10  C   UNL     1       2.406   5.551  19.116  0.00  0.00    +0.000 A 
ATOM     11  C   UNL     1       2.061   5.754  20.437  0.00  0.00    +0.000 A 
ATOM     12  C   UNL     1       1.684   7.034  20.888  0.00  0.00    +0.000 A 
ATOM     13  C   UNL     1       1.630   8.171  20.065  0.00  0.00    +0.000 A 
ATOM     14  N   UNL     1       1.255   9.497  20.465  0.00  0.00    +0.000 N 
ATOM     15  S   UNL     1       0.851  13.121  18.364  0.00  0.00    +0.000 S 
ATOM     16  C   UNL     1       1.118  14.460  19.459  0.00  0.00    +0.000 C 
ATOM     17  S   UNL     1       1.380  16.015  18.921  0.00  0.00    +0.000 S 
ENDROOT
BRANCH  14  18
ATOM     18  C   UNL     1       0.836   9.831  21.856  0.00  0.00    +0.000 C 
ATOM     19  C   UNL     1      -0.324   9.238  22.618  0.00  0.00    +0.000 C 
ENDBRANCH  14  18
BRANCH   1  20
ATOM     20  C   UNL     1       1.356  14.774  21.951  0.00  0.00    +0.000 C 
BRANCH  20  22
ATOM     21  C   UNL     1       3.155  16.519  22.443  0.00  0.00    +0.000 C 
ATOM     22  C   UNL     1       2.862  15.066  22.089  0.00  0.00    +0.000 C 
ENDBRANCH  20  22
ENDBRANCH   1  20
TORSDOF 3
ENDMDL
