MODEL 1
REMARK VINA RESULT:      -7.1      0.000      0.000
REMARK  Name = 
REMARK  11 active torsions:
REMARK  status: ('A' for Active; 'I' for Inactive)
REMARK    1  A    between atoms: C_1  and  C_2
REMARK    2  A    between atoms: C_2  and  C_3
REMARK    3  A    between atoms: C_2  and  O_4
REMARK    4  A    between atoms: O_4  and  C_5
REMARK    5  A    between atoms: C_5  and  C_6
REMARK    6  A    between atoms: C_6  and  C_7
REMARK    7  A    between atoms: C_7  and  N_8
REMARK    8  A    between atoms: N_15  and  C_16
REMARK    9  A    between atoms: C_16  and  C_17
REMARK   10  A    between atoms: N_26  and  C_27
REMARK   11  A    between atoms: N_28  and  C_29
REMARK                            x       y       z     vdW  Elec       q    Type
REMARK                         _______ _______ _______ _____ _____    ______ ____
ROOT
ATOM      1  N   UNL     1       2.419   6.479  19.926  0.00  0.00    +0.000 N 
ATOM      2  C   UNL     1       1.824   7.655  20.252  0.00  0.00    +0.000 A 
ATOM      3  N   UNL     1       1.347   8.005  21.423  0.00  0.00    +0.000 NA
ATOM      4  C   UNL     1       0.728   9.193  21.207  0.00  0.00    +0.000 A 
ATOM      5  C   UNL     1       0.843   9.613  19.915  0.00  0.00    +0.000 A 
ATOM      6  C   UNL     1       0.237  10.821  19.453  0.00  0.00    +0.000 A 
ATOM      7  O   UNL     1       0.358  11.233  18.305  0.00  0.00    +0.000 OA
ATOM      8  N   UNL     1      -0.522  11.471  20.439  0.00  0.00    +0.000 N 
ATOM      9  C   UNL     1      -0.711  11.010  21.755  0.00  0.00    +0.000 A 
ATOM     10  O   UNL     1      -1.486  11.574  22.533  0.00  0.00    +0.000 OA
ATOM     11  N   UNL     1       0.019   9.892  22.146  0.00  0.00    +0.000 N 
ATOM     12  C   UNL     1      -0.020   9.422  23.519  0.00  0.00    +0.000 C 
ATOM     13  N   UNL     1       1.584   8.634  19.299  0.00  0.00    +0.000 N 
ATOM     14  C   UNL     1       1.963   8.550  17.913  0.00  0.00    +0.000 C 
ATOM     15  H   UNL     1       3.429   6.563  19.836  0.00  0.00    +0.000 HD
ENDROOT
BRANCH   1  16
ATOM     16  C   UNL     1       2.116   5.361  20.834  0.00  0.00    +0.000 C 
BRANCH  16  17
ATOM     17  C   UNL     1       1.259   4.305  20.141  0.00  0.00    +0.000 C 
BRANCH  17  18
ATOM     18  C   UNL     1       1.840   2.898  20.170  0.00  0.00    +0.000 C 
BRANCH  18  19
ATOM     19  O   UNL     1       3.206   2.931  20.582  0.00  0.00    +0.000 OA
BRANCH  19  21
ATOM     20  C   UNL     1       3.338   1.712  18.531  0.00  0.00    +0.000 C 
ATOM     21  C   UNL     1       4.123   2.522  19.559  0.00  0.00    +0.000 C 
ATOM     22  C   UNL     1       4.785   3.715  18.873  0.00  0.00    +0.000 C 
ENDBRANCH  19  21
ENDBRANCH  18  19
ENDBRANCH  17  18
ENDBRANCH  16  17
ENDBRANCH   1  16
BRANCH   8  23
ATOM     23  C   UNL     1      -1.197  12.712  20.064  0.00  0.00    +0.000 C 
BRANCH  23  24
ATOM     24  C   UNL     1      -2.647  12.498  19.692  0.00  0.00    +0.000 A 
ATOM     25  C   UNL     1      -3.013  11.718  18.582  0.00  0.00    +0.000 A 
ATOM     26  C   UNL     1      -4.360  11.480  18.292  0.00  0.00    +0.000 A 
ATOM     27  C   UNL     1      -5.359  12.031  19.095  0.00  0.00    +0.000 A 
ATOM     28  C   UNL     1      -5.009  12.845  20.169  0.00  0.00    +0.000 A 
ATOM     29  C   UNL     1      -3.665  13.077  20.453  0.00  0.00    +0.000 A 
ATOM     30  F   UNL     1      -3.361  13.887  21.476  0.00  0.00    +0.000 F 
ENDBRANCH  23  24
ENDBRANCH   8  23
TORSDOF 7
ENDMDL
MODEL 2
REMARK VINA RESULT:      -7.0      1.261      1.480
REMARK  Name = 
REMARK  11 active torsions:
REMARK  status: ('A' for Active; 'I' for Inactive)
REMARK    1  A    between atoms: C_1  and  C_2
REMARK    2  A    between atoms: C_2  and  C_3
REMARK    3  A    between atoms: C_2  and  O_4
REMARK    4  A    between atoms: O_4  and  C_5
REMARK    5  A    between atoms: C_5  and  C_6
REMARK    6  A    between atoms: C_6  and  C_7
REMARK    7  A    between atoms: C_7  and  N_8
REMARK    8  A    between atoms: N_15  and  C_16
REMARK    9  A    between atoms: C_16  and  C_17
REMARK   10  A    between atoms: N_26  and  C_27
REMARK   11  A    between atoms: N_28  and  C_29
REMARK                            x       y       z     vdW  Elec       q    Type
REMARK                         _______ _______ _______ _____ _____    ______ ____
ROOT
ATOM      1  N   UNL     1       2.756   5.766  20.295  0.00  0.00    +0.000 N 
ATOM      2  C   UNL     1       2.150   6.980  20.363  0.00  0.00    +0.000 A 
ATOM      3  N   UNL     1       1.524   7.497  21.394  0.00  0.00    +0.000 NA
ATOM      4  C   UNL     1       0.970   8.644  20.926  0.00  0.00    +0.000 A 
ATOM      5  C   UNL     1       1.274   8.873  19.617  0.00  0.00    +0.000 A 
ATOM      6  C   UNL     1       0.769  10.005  18.907  0.00  0.00    +0.000 A 
ATOM      7  O   UNL     1       1.058  10.246  17.740  0.00  0.00    +0.000 OA
ATOM      8  N   UNL     1      -0.105  10.793  19.672  0.00  0.00    +0.000 N 
ATOM      9  C   UNL     1      -0.486  10.527  21.001  0.00  0.00    +0.000 A 
ATOM     10  O   UNL     1      -1.347  11.201  21.574  0.00  0.00    +0.000 OA
ATOM     11  N   UNL     1       0.155   9.474  21.646  0.00  0.00    +0.000 N 
ATOM     12  C   UNL     1      -0.087   9.207  23.053  0.00  0.00    +0.000 C 
ATOM     13  N   UNL     1       2.069   7.812  19.257  0.00  0.00    +0.000 N 
ATOM     14  C   UNL     1       2.635   7.527  17.965  0.00  0.00    +0.000 C 
ATOM     15  H   UNL     1       3.770   5.832  20.338  0.00  0.00    +0.000 HD
ENDROOT
BRANCH   1  16
ATOM     16  C   UNL     1       2.302   4.793  21.302  0.00  0.00    +0.000 C 
BRANCH  16  17
ATOM     17  C   UNL     1       1.256   3.845  20.718  0.00  0.00    +0.000 C 
BRANCH  17  18
ATOM     18  C   UNL     1       1.822   2.744  19.832  0.00  0.00    +0.000 C 
BRANCH  18  19
ATOM     19  O   UNL     1       2.962   3.218  19.115  0.00  0.00    +0.000 OA
BRANCH  19  21
ATOM     20  C   UNL     1       1.559   4.111  17.399  0.00  0.00    +0.000 C 
ATOM     21  C   UNL     1       2.776   3.239  17.694  0.00  0.00    +0.000 C 
ATOM     22  C   UNL     1       3.996   3.800  16.965  0.00  0.00    +0.000 C 
ENDBRANCH  19  21
ENDBRANCH  18  19
ENDBRANCH  17  18
ENDBRANCH  16  17
ENDBRANCH   1  16
BRANCH   8  23
ATOM     23  C   UNL     1      -0.689  11.970  19.033  0.00  0.00    +0.000 C 
BRANCH  23  24
ATOM     24  C   UNL     1      -2.029  11.681  18.395  0.00  0.00    +0.000 A 
ATOM     25  C   UNL     1      -2.132  10.940  17.205  0.00  0.00    +0.000 A 
ATOM     26  C   UNL     1      -3.384  10.630  16.665  0.00  0.00    +0.000 A 
ATOM     27  C   UNL     1      -4.548  11.068  17.295  0.00  0.00    +0.000 A 
ATOM     28  C   UNL     1      -4.459  11.843  18.448  0.00  0.00    +0.000 A 
ATOM     29  C   UNL     1      -3.208  12.149  18.982  0.00  0.00    +0.000 A 
ATOM     30  F   UNL     1      -3.153  12.919  20.077  0.00  0.00    +0.000 F 
ENDBRANCH  23  24
ENDBRANCH   8  23
TORSDOF 7
ENDMDL
MODEL 3
REMARK VINA RESULT:      -7.0      2.312      3.160
REMARK  Name = 
REMARK  11 active torsions:
REMARK  status: ('A' for Active; 'I' for Inactive)
REMARK    1  A    between atoms: C_1  and  C_2
REMARK    2  A    between atoms: C_2  and  C_3
REMARK    3  A    between atoms: C_2  and  O_4
REMARK    4  A    between atoms: O_4  and  C_5
REMARK    5  A    between atoms: C_5  and  C_6
REMARK    6  A    between atoms: C_6  and  C_7
REMARK    7  A    between atoms: C_7  and  N_8
REMARK    8  A    between atoms: N_15  and  C_16
REMARK    9  A    between atoms: C_16  and  C_17
REMARK   10  A    between atoms: N_26  and  C_27
REMARK   11  A    between atoms: N_28  and  C_29
REMARK                            x       y       z     vdW  Elec       q    Type
REMARK                         _______ _______ _______ _____ _____    ______ ____
ROOT
ATOM      1  N   UNL     1       2.657   5.677  20.255  0.00  0.00    +0.000 N 
ATOM      2  C   UNL     1       2.155   6.937  20.204  0.00  0.00    +0.000 A 
ATOM      3  N   UNL     1       1.422   7.536  21.114  0.00  0.00    +0.000 NA
ATOM      4  C   UNL     1       1.048   8.709  20.544  0.00  0.00    +0.000 A 
ATOM      5  C   UNL     1       1.572   8.872  19.296  0.00  0.00    +0.000 A 
ATOM      6  C   UNL     1       1.282  10.019  18.495  0.00  0.00    +0.000 A 
ATOM      7  O   UNL     1       1.771  10.200  17.385  0.00  0.00    +0.000 OA
ATOM      8  N   UNL     1       0.371  10.899  19.099  0.00  0.00    +0.000 N 
ATOM      9  C   UNL     1      -0.235  10.707  20.355  0.00  0.00    +0.000 A 
ATOM     10  O   UNL     1      -1.114  11.466  20.772  0.00  0.00    +0.000 OA
ATOM     11  N   UNL     1       0.205   9.625  21.111  0.00  0.00    +0.000 N 
ATOM     12  C   UNL     1      -0.275   9.422  22.467  0.00  0.00    +0.000 C 
ATOM     13  N   UNL     1       2.320   7.739  19.085  0.00  0.00    +0.000 N 
ATOM     14  C   UNL     1       3.054   7.369  17.904  0.00  0.00    +0.000 C 
ATOM     15  H   UNL     1       3.655   5.661  20.457  0.00  0.00    +0.000 HD
ENDROOT
BRANCH   1  16
ATOM     16  C   UNL     1       1.970   4.775  21.193  0.00  0.00    +0.000 C 
BRANCH  16  17
ATOM     17  C   UNL     1       1.003   3.850  20.459  0.00  0.00    +0.000 C 
BRANCH  17  18
ATOM     18  C   UNL     1       1.670   2.816  19.563  0.00  0.00    +0.000 C 
BRANCH  18  19
ATOM     19  O   UNL     1       3.090   2.929  19.645  0.00  0.00    +0.000 OA
BRANCH  19  21
ATOM     20  C   UNL     1       3.783   1.244  18.097  0.00  0.00    +0.000 C 
ATOM     21  C   UNL     1       3.753   2.742  18.386  0.00  0.00    +0.000 C 
ATOM     22  C   UNL     1       3.036   3.469  17.249  0.00  0.00    +0.000 C 
ENDBRANCH  19  21
ENDBRANCH  18  19
ENDBRANCH  17  18
ENDBRANCH  16  17
ENDBRANCH   1  16
BRANCH   8  23
ATOM     23  C   UNL     1      -0.004  12.100  18.355  0.00  0.00    +0.000 C 
BRANCH  23  24
ATOM     24  C   UNL     1       0.832  13.303  18.731  0.00  0.00    +0.000 A 
ATOM     25  C   UNL     1       2.220  13.329  18.514  0.00  0.00    +0.000 A 
ATOM     26  C   UNL     1       2.966  14.475  18.810  0.00  0.00    +0.000 A 
ATOM     27  C   UNL     1       2.338  15.602  19.341  0.00  0.00    +0.000 A 
ATOM     28  C   UNL     1       0.972  15.571  19.605  0.00  0.00    +0.000 A 
ATOM     29  C   UNL     1       0.235  14.426  19.307  0.00  0.00    +0.000 A 
ATOM     30  F   UNL     1      -1.073  14.417  19.599  0.00  0.00    +0.000 F 
ENDBRANCH  23  24
ENDBRANCH   8  23
TORSDOF 7
ENDMDL
MODEL 4
REMARK VINA RESULT:      -6.9      1.098      1.506
REMARK  Name = 
REMARK  11 active torsions:
REMARK  status: ('A' for Active; 'I' for Inactive)
REMARK    1  A    between atoms: C_1  and  C_2
REMARK    2  A    between atoms: C_2  and  C_3
REMARK    3  A    between atoms: C_2  and  O_4
REMARK    4  A    between atoms: O_4  and  C_5
REMARK    5  A    between atoms: C_5  and  C_6
REMARK    6  A    between atoms: C_6  and  C_7
REMARK    7  A    between atoms: C_7  and  N_8
REMARK    8  A    between atoms: N_15  and  C_16
REMARK    9  A    between atoms: C_16  and  C_17
REMARK   10  A    between atoms: N_26  and  C_27
REMARK   11  A    between atoms: N_28  and  C_29
REMARK                            x       y       z     vdW  Elec       q    Type
REMARK                         _______ _______ _______ _____ _____    ______ ____
ROOT
ATOM      1  N   UNL     1       2.508   6.679  19.807  0.00  0.00    +0.000 N 
ATOM      2  C   UNL     1       1.860   7.817  20.166  0.00  0.00    +0.000 A 
ATOM      3  N   UNL     1       1.385   8.120  21.350  0.00  0.00    +0.000 NA
ATOM      4  C   UNL     1       0.704   9.279  21.168  0.00  0.00    +0.000 A 
ATOM      5  C   UNL     1       0.780   9.730  19.884  0.00  0.00    +0.000 A 
ATOM      6  C   UNL     1       0.108  10.916  19.455  0.00  0.00    +0.000 A 
ATOM      7  O   UNL     1       0.191  11.356  18.314  0.00  0.00    +0.000 OA
ATOM      8  N   UNL     1      -0.668  11.507  20.464  0.00  0.00    +0.000 N 
ATOM      9  C   UNL     1      -0.814  11.012  21.774  0.00  0.00    +0.000 A 
ATOM     10  O   UNL     1      -1.604  11.521  22.574  0.00  0.00    +0.000 OA
ATOM     11  N   UNL     1      -0.024   9.924  22.131  0.00  0.00    +0.000 N 
ATOM     12  C   UNL     1      -0.019   9.425  23.495  0.00  0.00    +0.000 C 
ATOM     13  N   UNL     1       1.558   8.802  19.237  0.00  0.00    +0.000 N 
ATOM     14  C   UNL     1       1.920   8.764  17.845  0.00  0.00    +0.000 C 
ATOM     15  H   UNL     1       3.511   6.815  19.705  0.00  0.00    +0.000 HD
ENDROOT
BRANCH   1  16
ATOM     16  C   UNL     1       2.274   5.530  20.697  0.00  0.00    +0.000 C 
BRANCH  16  17
ATOM     17  C   UNL     1       2.622   4.216  20.002  0.00  0.00    +0.000 C 
BRANCH  17  18
ATOM     18  C   UNL     1       3.697   4.330  18.930  0.00  0.00    +0.000 C 
BRANCH  18  19
ATOM     19  O   UNL     1       4.856   4.978  19.453  0.00  0.00    +0.000 OA
BRANCH  19  21
ATOM     20  C   UNL     1       5.335   6.337  17.547  0.00  0.00    +0.000 C 
ATOM     21  C   UNL     1       5.862   5.238  18.465  0.00  0.00    +0.000 C 
ATOM     22  C   UNL     1       7.180   5.686  19.095  0.00  0.00    +0.000 C 
ENDBRANCH  19  21
ENDBRANCH  18  19
ENDBRANCH  17  18
ENDBRANCH  16  17
ENDBRANCH   1  16
BRANCH   8  23
ATOM     23  C   UNL     1      -1.408  12.721  20.125  0.00  0.00    +0.000 C 
BRANCH  23  24
ATOM     24  C   UNL     1      -2.829  12.435  19.692  0.00  0.00    +0.000 A 
ATOM     25  C   UNL     1      -3.108  11.728  18.510  0.00  0.00    +0.000 A 
ATOM     26  C   UNL     1      -4.426  11.419  18.159  0.00  0.00    +0.000 A 
ATOM     27  C   UNL     1      -5.483  11.825  18.975  0.00  0.00    +0.000 A 
ATOM     28  C   UNL     1      -5.222  12.567  20.123  0.00  0.00    +0.000 A 
ATOM     29  C   UNL     1      -3.906  12.871  20.467  0.00  0.00    +0.000 A 
ATOM     30  F   UNL     1      -3.688  13.610  21.564  0.00  0.00    +0.000 F 
ENDBRANCH  23  24
ENDBRANCH   8  23
TORSDOF 7
ENDMDL
MODEL 5
REMARK VINA RESULT:      -6.8      7.290     10.172
REMARK  Name = 
REMARK  11 active torsions:
REMARK  status: ('A' for Active; 'I' for Inactive)
REMARK    1  A    between atoms: C_1  and  C_2
REMARK    2  A    between atoms: C_2  and  C_3
REMARK    3  A    between atoms: C_2  and  O_4
REMARK    4  A    between atoms: O_4  and  C_5
REMARK    5  A    between atoms: C_5  and  C_6
REMARK    6  A    between atoms: C_6  and  C_7
REMARK    7  A    between atoms: C_7  and  N_8
REMARK    8  A    between atoms: N_15  and  C_16
REMARK    9  A    between atoms: C_16  and  C_17
REMARK   10  A    between atoms: N_26  and  C_27
REMARK   11  A    between atoms: N_28  and  C_29
REMARK                            x       y       z     vdW  Elec       q    Type
REMARK                         _______ _______ _______ _____ _____    ______ ____
ROOT
ATOM      1  N   UNL     1       8.613   8.053  18.670  0.00  0.00    +0.000 N 
ATOM      2  C   UNL     1       7.780   7.069  18.241  0.00  0.00    +0.000 A 
ATOM      3  N   UNL     1       7.115   7.030  17.111  0.00  0.00    +0.000 NA
ATOM      4  C   UNL     1       6.319   5.935  17.212  0.00  0.00    +0.000 A 
ATOM      5  C   UNL     1       6.507   5.262  18.383  0.00  0.00    +0.000 A 
ATOM      6  C   UNL     1       5.749   4.098  18.719  0.00  0.00    +0.000 A 
ATOM      7  O   UNL     1       5.927   3.459  19.751  0.00  0.00    +0.000 OA
ATOM      8  N   UNL     1       4.775   3.777  17.761  0.00  0.00    +0.000 N 
ATOM      9  C   UNL     1       4.520   4.506  16.584  0.00  0.00    +0.000 A 
ATOM     10  O   UNL     1       3.570   4.231  15.846  0.00  0.00    +0.000 OA
ATOM     11  N   UNL     1       5.390   5.549  16.285  0.00  0.00    +0.000 N 
ATOM     12  C   UNL     1       5.277   6.275  15.032  0.00  0.00    +0.000 C 
ATOM     13  N   UNL     1       7.479   5.975  19.039  0.00  0.00    +0.000 N 
ATOM     14  C   UNL     1       8.027   5.732  20.348  0.00  0.00    +0.000 C 
ATOM     15  H   UNL     1       9.594   7.795  18.593  0.00  0.00    +0.000 HD
ENDROOT
BRANCH   1  16
ATOM     16  C   UNL     1       8.414   9.357  18.018  0.00  0.00    +0.000 C 
BRANCH  16  17
ATOM     17  C   UNL     1       9.149  10.465  18.769  0.00  0.00    +0.000 C 
BRANCH  17  18
ATOM     18  C   UNL     1      10.119  11.272  17.918  0.00  0.00    +0.000 C 
BRANCH  18  19
ATOM     19  O   UNL     1      10.783  12.253  18.714  0.00  0.00    +0.000 OA
BRANCH  19  21
ATOM     20  C   UNL     1      11.372  13.329  16.663  0.00  0.00    +0.000 C 
ATOM     21  C   UNL     1      10.865  13.540  18.087  0.00  0.00    +0.000 C 
ATOM     22  C   UNL     1       9.511  14.245  18.048  0.00  0.00    +0.000 C 
ENDBRANCH  19  21
ENDBRANCH  18  19
ENDBRANCH  17  18
ENDBRANCH  16  17
ENDBRANCH   1  16
BRANCH   8  23
ATOM     23  C   UNL     1       3.935   2.609  18.017  0.00  0.00    +0.000 C 
BRANCH  23  24
ATOM     24  C   UNL     1       2.961   2.828  19.153  0.00  0.00    +0.000 A 
ATOM     25  C   UNL     1       3.240   2.382  20.455  0.00  0.00    +0.000 A 
ATOM     26  C   UNL     1       2.356   2.650  21.505  0.00  0.00    +0.000 A 
ATOM     27  C   UNL     1       1.174   3.352  21.265  0.00  0.00    +0.000 A 
ATOM     28  C   UNL     1       0.864   3.757  19.970  0.00  0.00    +0.000 A 
ATOM     29  C   UNL     1       1.750   3.487  18.928  0.00  0.00    +0.000 A 
ATOM     30  F   UNL     1       1.410   3.865  17.689  0.00  0.00    +0.000 F 
ENDBRANCH  23  24
ENDBRANCH   8  23
TORSDOF 7
ENDMDL
MODEL 6
REMARK VINA RESULT:      -6.7      2.603      3.461
REMARK  Name = 
REMARK  11 active torsions:
REMARK  status: ('A' for Active; 'I' for Inactive)
REMARK    1  A    between atoms: C_1  and  C_2
REMARK    2  A    between atoms: C_2  and  C_3
REMARK    3  A    between atoms: C_2  and  O_4
REMARK    4  A    between atoms: O_4  and  C_5
REMARK    5  A    between atoms: C_5  and  C_6
REMARK    6  A    between atoms: C_6  and  C_7
REMARK    7  A    between atoms: C_7  and  N_8
REMARK    8  A    between atoms: N_15  and  C_16
REMARK    9  A    between atoms: C_16  and  C_17
REMARK   10  A    between atoms: N_26  and  C_27
REMARK   11  A    between atoms: N_28  and  C_29
REMARK                            x       y       z     vdW  Elec       q    Type
REMARK                         _______ _______ _______ _____ _____    ______ ____
ROOT
ATOM      1  N   UNL     1       2.609   5.705  20.210  0.00  0.00    +0.000 N 
ATOM      2  C   UNL     1       2.097   6.963  20.203  0.00  0.00    +0.000 A 
ATOM      3  N   UNL     1       1.350   7.520  21.126  0.00  0.00    +0.000 NA
ATOM      4  C   UNL     1       0.974   8.712  20.599  0.00  0.00    +0.000 A 
ATOM      5  C   UNL     1       1.510   8.927  19.364  0.00  0.00    +0.000 A 
ATOM      6  C   UNL     1       1.221  10.103  18.605  0.00  0.00    +0.000 A 
ATOM      7  O   UNL     1       1.720  10.330  17.509  0.00  0.00    +0.000 OA
ATOM      8  N   UNL     1       0.297  10.952  19.233  0.00  0.00    +0.000 N 
ATOM      9  C   UNL     1      -0.322  10.707  20.473  0.00  0.00    +0.000 A 
ATOM     10  O   UNL     1      -1.211  11.443  20.909  0.00  0.00    +0.000 OA
ATOM     11  N   UNL     1       0.118   9.599  21.192  0.00  0.00    +0.000 N 
ATOM     12  C   UNL     1      -0.376   9.340  22.533  0.00  0.00    +0.000 C 
ATOM     13  N   UNL     1       2.268   7.809  19.118  0.00  0.00    +0.000 N 
ATOM     14  C   UNL     1       3.019   7.490  17.931  0.00  0.00    +0.000 C 
ATOM     15  H   UNL     1       3.604   5.688  20.422  0.00  0.00    +0.000 HD
ENDROOT
BRANCH   1  16
ATOM     16  C   UNL     1       1.918   4.762  21.104  0.00  0.00    +0.000 C 
BRANCH  16  17
ATOM     17  C   UNL     1       2.496   3.355  20.974  0.00  0.00    +0.000 C 
BRANCH  17  18
ATOM     18  C   UNL     1       1.848   2.501  19.894  0.00  0.00    +0.000 C 
BRANCH  18  19
ATOM     19  O   UNL     1       1.781   3.219  18.663  0.00  0.00    +0.000 OA
BRANCH  19  21
ATOM     20  C   UNL     1       3.512   3.824  17.129  0.00  0.00    +0.000 C 
ATOM     21  C   UNL     1       2.634   2.685  17.641  0.00  0.00    +0.000 C 
ATOM     22  C   UNL     1       3.517   1.554  18.166  0.00  0.00    +0.000 C 
ENDBRANCH  19  21
ENDBRANCH  18  19
ENDBRANCH  17  18
ENDBRANCH  16  17
ENDBRANCH   1  16
BRANCH   8  23
ATOM     23  C   UNL     1      -0.079  12.178  18.532  0.00  0.00    +0.000 C 
BRANCH  23  24
ATOM     24  C   UNL     1       0.644  13.397  19.062  0.00  0.00    +0.000 A 
ATOM     25  C   UNL     1       0.077  14.211  20.057  0.00  0.00    +0.000 A 
ATOM     26  C   UNL     1       0.788  15.297  20.579  0.00  0.00    +0.000 A 
ATOM     27  C   UNL     1       2.065  15.593  20.103  0.00  0.00    +0.000 A 
ATOM     28  C   UNL     1       2.618  14.823  19.084  0.00  0.00    +0.000 A 
ATOM     29  C   UNL     1       1.904  13.742  18.568  0.00  0.00    +0.000 A 
ATOM     30  F   UNL     1       2.451  13.036  17.569  0.00  0.00    +0.000 F 
ENDBRANCH  23  24
ENDBRANCH   8  23
TORSDOF 7
ENDMDL
MODEL 7
REMARK VINA RESULT:      -6.6      1.888      3.087
REMARK  Name = 
REMARK  11 active torsions:
REMARK  status: ('A' for Active; 'I' for Inactive)
REMARK    1  A    between atoms: C_1  and  C_2
REMARK    2  A    between atoms: C_2  and  C_3
REMARK    3  A    between atoms: C_2  and  O_4
REMARK    4  A    between atoms: O_4  and  C_5
REMARK    5  A    between atoms: C_5  and  C_6
REMARK    6  A    between atoms: C_6  and  C_7
REMARK    7  A    between atoms: C_7  and  N_8
REMARK    8  A    between atoms: N_15  and  C_16
REMARK    9  A    between atoms: C_16  and  C_17
REMARK   10  A    between atoms: N_26  and  C_27
REMARK   11  A    between atoms: N_28  and  C_29
REMARK                            x       y       z     vdW  Elec       q    Type
REMARK                         _______ _______ _______ _____ _____    ______ ____
ROOT
ATOM      1  N   UNL     1       2.292   6.704  19.890  0.00  0.00    +0.000 N 
ATOM      2  C   UNL     1       1.732   7.880  20.272  0.00  0.00    +0.000 A 
ATOM      3  N   UNL     1       1.246   8.181  21.453  0.00  0.00    +0.000 NA
ATOM      4  C   UNL     1       0.672   9.400  21.295  0.00  0.00    +0.000 A 
ATOM      5  C   UNL     1       0.827   9.888  20.032  0.00  0.00    +0.000 A 
ATOM      6  C   UNL     1       0.272  11.141  19.629  0.00  0.00    +0.000 A 
ATOM      7  O   UNL     1       0.429  11.613  18.508  0.00  0.00    +0.000 OA
ATOM      8  N   UNL     1      -0.483  11.761  20.637  0.00  0.00    +0.000 N 
ATOM      9  C   UNL     1      -0.712  11.234  21.922  0.00  0.00    +0.000 A 
ATOM     10  O   UNL     1      -1.482  11.780  22.717  0.00  0.00    +0.000 OA
ATOM     11  N   UNL     1      -0.029  10.070  22.260  0.00  0.00    +0.000 N 
ATOM     12  C   UNL     1      -0.110   9.525  23.604  0.00  0.00    +0.000 C 
ATOM     13  N   UNL     1       1.544   8.920  19.373  0.00  0.00    +0.000 N 
ATOM     14  C   UNL     1       1.946   8.900  17.991  0.00  0.00    +0.000 C 
ATOM     15  H   UNL     1       3.306   6.757  19.822  0.00  0.00    +0.000 HD
ENDROOT
BRANCH   1  16
ATOM     16  C   UNL     1       1.934   5.549  20.728  0.00  0.00    +0.000 C 
BRANCH  16  17
ATOM     17  C   UNL     1       1.363   4.412  19.884  0.00  0.00    +0.000 C 
BRANCH  17  18
ATOM     18  C   UNL     1       1.271   3.073  20.601  0.00  0.00    +0.000 C 
BRANCH  18  19
ATOM     19  O   UNL     1       1.948   2.060  19.856  0.00  0.00    +0.000 OA
BRANCH  19  21
ATOM     20  C   UNL     1       4.308   2.241  20.186  0.00  0.00    +0.000 C 
ATOM     21  C   UNL     1       3.153   2.520  19.229  0.00  0.00    +0.000 C 
ATOM     22  C   UNL     1       3.409   1.814  17.898  0.00  0.00    +0.000 C 
ENDBRANCH  19  21
ENDBRANCH  18  19
ENDBRANCH  17  18
ENDBRANCH  16  17
ENDBRANCH   1  16
BRANCH   8  23
ATOM     23  C   UNL     1      -1.107  13.045  20.322  0.00  0.00    +0.000 C 
BRANCH  23  24
ATOM     24  C   UNL     1      -0.154  14.209  20.478  0.00  0.00    +0.000 A 
ATOM     25  C   UNL     1       0.420  14.527  21.720  0.00  0.00    +0.000 A 
ATOM     26  C   UNL     1       1.347  15.568  21.831  0.00  0.00    +0.000 A 
ATOM     27  C   UNL     1       1.701  16.315  20.707  0.00  0.00    +0.000 A 
ATOM     28  C   UNL     1       1.103  16.040  19.480  0.00  0.00    +0.000 A 
ATOM     29  C   UNL     1       0.180  15.001  19.377  0.00  0.00    +0.000 A 
ATOM     30  F   UNL     1      -0.399  14.779  18.189  0.00  0.00    +0.000 F 
ENDBRANCH  23  24
ENDBRANCH   8  23
TORSDOF 7
ENDMDL
MODEL 8
REMARK VINA RESULT:      -6.6      2.645      3.808
REMARK  Name = 
REMARK  11 active torsions:
REMARK  status: ('A' for Active; 'I' for Inactive)
REMARK    1  A    between atoms: C_1  and  C_2
REMARK    2  A    between atoms: C_2  and  C_3
REMARK    3  A    between atoms: C_2  and  O_4
REMARK    4  A    between atoms: O_4  and  C_5
REMARK    5  A    between atoms: C_5  and  C_6
REMARK    6  A    between atoms: C_6  and  C_7
REMARK    7  A    between atoms: C_7  and  N_8
REMARK    8  A    between atoms: N_15  and  C_16
REMARK    9  A    between atoms: C_16  and  C_17
REMARK   10  A    between atoms: N_26  and  C_27
REMARK   11  A    between atoms: N_28  and  C_29
REMARK                            x       y       z     vdW  Elec       q    Type
REMARK                         _______ _______ _______ _____ _____    ______ ____
ROOT
ATOM      1  N   UNL     1       2.078   5.760  19.964  0.00  0.00    +0.000 N 
ATOM      2  C   UNL     1       1.790   7.070  20.177  0.00  0.00    +0.000 A 
ATOM      3  N   UNL     1       1.185   7.589  21.219  0.00  0.00    +0.000 NA
ATOM      4  C   UNL     1       0.998   8.894  20.900  0.00  0.00    +0.000 A 
ATOM      5  C   UNL     1       1.516   9.211  19.679  0.00  0.00    +0.000 A 
ATOM      6  C   UNL     1       1.403  10.522  19.123  0.00  0.00    +0.000 A 
ATOM      7  O   UNL     1       1.892  10.835  18.043  0.00  0.00    +0.000 OA
ATOM      8  N   UNL     1       0.662  11.402  19.928  0.00  0.00    +0.000 N 
ATOM      9  C   UNL     1       0.059  11.069  21.155  0.00  0.00    +0.000 A 
ATOM     10  O   UNL     1      -0.674  11.862  21.752  0.00  0.00    +0.000 OA
ATOM     11  N   UNL     1       0.329   9.805  21.672  0.00  0.00    +0.000 N 
ATOM     12  C   UNL     1      -0.150   9.423  22.988  0.00  0.00    +0.000 C 
ATOM     13  N   UNL     1       2.062   8.037  19.221  0.00  0.00    +0.000 N 
ATOM     14  C   UNL     1       2.701   7.790  17.955  0.00  0.00    +0.000 C 
ATOM     15  H   UNL     1       3.063   5.548  20.108  0.00  0.00    +0.000 HD
ENDROOT
BRANCH   1  16
ATOM     16  C   UNL     1       1.271   4.814  20.751  0.00  0.00    +0.000 C 
BRANCH  16  17
ATOM     17  C   UNL     1       1.072   3.501  19.999  0.00  0.00    +0.000 C 
BRANCH  17  18
ATOM     18  C   UNL     1       2.292   2.591  19.978  0.00  0.00    +0.000 C 
BRANCH  18  19
ATOM     19  O   UNL     1       3.466   3.339  19.664  0.00  0.00    +0.000 OA
BRANCH  19  21
ATOM     20  C   UNL     1       3.545   1.594  18.033  0.00  0.00    +0.000 C 
ATOM     21  C   UNL     1       4.051   2.985  18.403  0.00  0.00    +0.000 C 
ATOM     22  C   UNL     1       3.676   3.976  17.302  0.00  0.00    +0.000 C 
ENDBRANCH  19  21
ENDBRANCH  18  19
ENDBRANCH  17  18
ENDBRANCH  16  17
ENDBRANCH   1  16
BRANCH   8  23
ATOM     23  C   UNL     1       0.476  12.767  19.442  0.00  0.00    +0.000 C 
BRANCH  23  24
ATOM     24  C   UNL     1       1.613  13.684  19.832  0.00  0.00    +0.000 A 
ATOM     25  C   UNL     1       1.778  14.129  21.155  0.00  0.00    +0.000 A 
ATOM     26  C   UNL     1       2.873  14.925  21.507  0.00  0.00    +0.000 A 
ATOM     27  C   UNL     1       3.806  15.302  20.542  0.00  0.00    +0.000 A 
ATOM     28  C   UNL     1       3.628  14.908  19.219  0.00  0.00    +0.000 A 
ATOM     29  C   UNL     1       2.535  14.114  18.874  0.00  0.00    +0.000 A 
ATOM     30  F   UNL     1       2.375  13.774  17.588  0.00  0.00    +0.000 F 
ENDBRANCH  23  24
ENDBRANCH   8  23
TORSDOF 7
ENDMDL
MODEL 9
REMARK VINA RESULT:      -6.6      2.282      3.367
REMARK  Name = 
REMARK  11 active torsions:
REMARK  status: ('A' for Active; 'I' for Inactive)
REMARK    1  A    between atoms: C_1  and  C_2
REMARK    2  A    between atoms: C_2  and  C_3
REMARK    3  A    between atoms: C_2  and  O_4
REMARK    4  A    between atoms: O_4  and  C_5
REMARK    5  A    between atoms: C_5  and  C_6
REMARK    6  A    between atoms: C_6  and  C_7
REMARK    7  A    between atoms: C_7  and  N_8
REMARK    8  A    between atoms: N_15  and  C_16
REMARK    9  A    between atoms: C_16  and  C_17
REMARK   10  A    between atoms: N_26  and  C_27
REMARK   11  A    between atoms: N_28  and  C_29
REMARK                            x       y       z     vdW  Elec       q    Type
REMARK                         _______ _______ _______ _____ _____    ______ ____
ROOT
ATOM      1  N   UNL     1       2.442   5.873  20.096  0.00  0.00    +0.000 N 
ATOM      2  C   UNL     1       1.972   7.142  20.214  0.00  0.00    +0.000 A 
ATOM      3  N   UNL     1       1.269   7.638  21.205  0.00  0.00    +0.000 NA
ATOM      4  C   UNL     1       0.917   8.882  20.795  0.00  0.00    +0.000 A 
ATOM      5  C   UNL     1       1.426   9.189  19.568  0.00  0.00    +0.000 A 
ATOM      6  C   UNL     1       1.154  10.435  18.924  0.00  0.00    +0.000 A 
ATOM      7  O   UNL     1       1.629  10.743  17.836  0.00  0.00    +0.000 OA
ATOM      8  N   UNL     1       0.275  11.253  19.651  0.00  0.00    +0.000 N 
ATOM      9  C   UNL     1      -0.316  10.919  20.883  0.00  0.00    +0.000 A 
ATOM     10  O   UNL     1      -1.168  11.640  21.409  0.00  0.00    +0.000 OA
ATOM     11  N   UNL     1       0.107   9.739  21.489  0.00  0.00    +0.000 N 
ATOM     12  C   UNL     1      -0.357   9.378  22.817  0.00  0.00    +0.000 C 
ATOM     13  N   UNL     1       2.140   8.075  19.202  0.00  0.00    +0.000 N 
ATOM     14  C   UNL     1       2.846   7.840  17.970  0.00  0.00    +0.000 C 
ATOM     15  H   UNL     1       3.442   5.808  20.276  0.00  0.00    +0.000 HD
ENDROOT
BRANCH   1  16
ATOM     16  C   UNL     1       1.746   4.877  20.926  0.00  0.00    +0.000 C 
BRANCH  16  17
ATOM     17  C   UNL     1       2.442   3.520  20.856  0.00  0.00    +0.000 C 
BRANCH  17  18
ATOM     18  C   UNL     1       3.143   3.233  19.536  0.00  0.00    +0.000 C 
BRANCH  18  19
ATOM     19  O   UNL     1       4.499   3.676  19.585  0.00  0.00    +0.000 OA
BRANCH  19  21
ATOM     20  C   UNL     1       3.862   4.074  17.316  0.00  0.00    +0.000 C 
ATOM     21  C   UNL     1       5.024   4.057  18.306  0.00  0.00    +0.000 C 
ATOM     22  C   UNL     1       5.683   5.434  18.345  0.00  0.00    +0.000 C 
ENDBRANCH  19  21
ENDBRANCH  18  19
ENDBRANCH  17  18
ENDBRANCH  16  17
ENDBRANCH   1  16
BRANCH   8  23
ATOM     23  C   UNL     1      -0.079  12.547  19.071  0.00  0.00    +0.000 C 
BRANCH  23  24
ATOM     24  C   UNL     1       0.895  13.641  19.447  0.00  0.00    +0.000 A 
ATOM     25  C   UNL     1       2.038  13.372  20.220  0.00  0.00    +0.000 A 
ATOM     26  C   UNL     1       2.960  14.385  20.504  0.00  0.00    +0.000 A 
ATOM     27  C   UNL     1       2.745  15.681  20.034  0.00  0.00    +0.000 A 
ATOM     28  C   UNL     1       1.593  15.969  19.308  0.00  0.00    +0.000 A 
ATOM     29  C   UNL     1       0.678  14.956  19.028  0.00  0.00    +0.000 A 
ATOM     30  F   UNL     1      -0.434  15.270  18.351  0.00  0.00    +0.000 F 
ENDBRANCH  23  24
ENDBRANCH   8  23
TORSDOF 7
ENDMDL
