MODEL 1
REMARK VINA RESULT:      -6.7      0.000      0.000
REMARK  Name = 
REMARK  7 active torsions:
REMARK  status: ('A' for Active; 'I' for Inactive)
REMARK    1  A    between atoms: C_1  and  C_2
REMARK    2  A    between atoms: N_5  and  C_6
REMARK    3  A    between atoms: C_6  and  C_7
REMARK    4  A    between atoms: C_7  and  C_8
REMARK    5  A    between atoms: C_8  and  C_9
REMARK    6  A    between atoms: C_9  and  O_10
REMARK    7  A    between atoms: O_10  and  C_11
REMARK                            x       y       z     vdW  Elec       q    Type
REMARK                         _______ _______ _______ _____ _____    ______ ____
ROOT
ATOM      1  C   UNL     1       7.122   5.852  17.773  0.00  0.00    +0.000 C 
ENDROOT
BRANCH   1   2
ATOM      2  C   UNL     1       5.609   5.889  17.986  0.00  0.00    +0.000 C 
BRANCH   2   3
ATOM      3  C   UNL     1       5.147   4.880  19.050  0.00  0.00    +0.000 C 
BRANCH   3   8
ATOM      4  C   UNL     1       0.619   3.560  20.094  0.00  0.00    +0.000 C 
ATOM      5  C   UNL     1       1.888   3.129  19.371  0.00  0.00    +0.000 C 
ATOM      6  C   UNL     1       3.061   2.988  20.347  0.00  0.00    +0.000 C 
ATOM      7  C   UNL     1       4.359   2.657  19.604  0.00  0.00    +0.000 C 
ATOM      8  N   UNL     1       4.701   3.589  18.498  0.00  0.00    +0.000 NA
ATOM      9  C   UNL     1       3.548   3.697  17.578  0.00  0.00    +0.000 C 
ATOM     10  C   UNL     1       2.246   4.115  18.255  0.00  0.00    +0.000 C 
ENDBRANCH   3   8
ENDBRANCH   2   3
ENDBRANCH   1   2
BRANCH   1  11
ATOM     11  C   UNL     1       7.519   4.910  16.644  0.00  0.00    +0.000 C 
BRANCH  11  12
ATOM     12  O   UNL     1       7.492   5.624  15.415  0.00  0.00    +0.000 OA
BRANCH  12  13
ATOM     13  C   UNL     1       6.990   4.932  14.346  0.00  0.00    +0.000 A 
ATOM     14  C   UNL     1       7.579   4.845  13.076  0.00  0.00    +0.000 A 
ATOM     15  C   UNL     1       6.973   4.085  12.074  0.00  0.00    +0.000 A 
ATOM     16  C   UNL     1       5.783   3.424  12.344  0.00  0.00    +0.000 A 
ATOM     17  F   UNL     1       5.210   2.685  11.386  0.00  0.00    +0.000 F 
ATOM     18  C   UNL     1       5.182   3.510  13.594  0.00  0.00    +0.000 A 
ATOM     19  C   UNL     1       5.786   4.267  14.595  0.00  0.00    +0.000 A 
ENDBRANCH  12  13
ENDBRANCH  11  12
ENDBRANCH   1  11
TORSDOF 6
ENDMDL
MODEL 2
REMARK VINA RESULT:      -6.6      1.019      1.809
REMARK  Name = 
REMARK  7 active torsions:
REMARK  status: ('A' for Active; 'I' for Inactive)
REMARK    1  A    between atoms: C_1  and  C_2
REMARK    2  A    between atoms: N_5  and  C_6
REMARK    3  A    between atoms: C_6  and  C_7
REMARK    4  A    between atoms: C_7  and  C_8
REMARK    5  A    between atoms: C_8  and  C_9
REMARK    6  A    between atoms: C_9  and  O_10
REMARK    7  A    between atoms: O_10  and  C_11
REMARK                            x       y       z     vdW  Elec       q    Type
REMARK                         _______ _______ _______ _____ _____    ______ ____
ROOT
ATOM      1  C   UNL     1       6.791   6.041  17.981  0.00  0.00    +0.000 C 
ENDROOT
BRANCH   1   2
ATOM      2  C   UNL     1       5.861   5.374  18.995  0.00  0.00    +0.000 C 
BRANCH   2   3
ATOM      3  C   UNL     1       4.758   4.546  18.316  0.00  0.00    +0.000 C 
BRANCH   3   8
ATOM      4  C   UNL     1       1.167   2.852  21.068  0.00  0.00    +0.000 C 
ATOM      5  C   UNL     1       1.526   3.903  20.026  0.00  0.00    +0.000 C 
ATOM      6  C   UNL     1       1.968   3.253  18.711  0.00  0.00    +0.000 C 
ATOM      7  C   UNL     1       2.427   4.309  17.701  0.00  0.00    +0.000 C 
ATOM      8  N   UNL     1       3.467   5.245  18.204  0.00  0.00    +0.000 NA
ATOM      9  C   UNL     1       3.003   5.853  19.469  0.00  0.00    +0.000 C 
ATOM     10  C   UNL     1       2.620   4.841  20.544  0.00  0.00    +0.000 C 
ENDBRANCH   3   8
ENDBRANCH   2   3
ENDBRANCH   1   2
BRANCH   1  11
ATOM     11  C   UNL     1       7.374   5.040  16.992  0.00  0.00    +0.000 C 
BRANCH  11  12
ATOM     12  O   UNL     1       7.434   5.642  15.706  0.00  0.00    +0.000 OA
BRANCH  12  13
ATOM     13  C   UNL     1       6.829   4.938  14.700  0.00  0.00    +0.000 A 
ATOM     14  C   UNL     1       5.569   4.326  14.771  0.00  0.00    +0.000 A 
ATOM     15  C   UNL     1       5.054   3.654  13.661  0.00  0.00    +0.000 A 
ATOM     16  C   UNL     1       5.801   3.593  12.493  0.00  0.00    +0.000 A 
ATOM     17  F   UNL     1       5.300   2.959  11.425  0.00  0.00    +0.000 F 
ATOM     18  C   UNL     1       7.055   4.185  12.412  0.00  0.00    +0.000 A 
ATOM     19  C   UNL     1       7.570   4.857  13.518  0.00  0.00    +0.000 A 
ENDBRANCH  12  13
ENDBRANCH  11  12
ENDBRANCH   1  11
TORSDOF 6
ENDMDL
MODEL 3
REMARK VINA RESULT:      -6.5      1.107      1.704
REMARK  Name = 
REMARK  7 active torsions:
REMARK  status: ('A' for Active; 'I' for Inactive)
REMARK    1  A    between atoms: C_1  and  C_2
REMARK    2  A    between atoms: N_5  and  C_6
REMARK    3  A    between atoms: C_6  and  C_7
REMARK    4  A    between atoms: C_7  and  C_8
REMARK    5  A    between atoms: C_8  and  C_9
REMARK    6  A    between atoms: C_9  and  O_10
REMARK    7  A    between atoms: O_10  and  C_11
REMARK                            x       y       z     vdW  Elec       q    Type
REMARK                         _______ _______ _______ _____ _____    ______ ____
ROOT
ATOM      1  C   UNL     1       7.242   6.023  17.767  0.00  0.00    +0.000 C 
ENDROOT
BRANCH   1   2
ATOM      2  C   UNL     1       6.175   5.477  18.715  0.00  0.00    +0.000 C 
BRANCH   2   3
ATOM      3  C   UNL     1       4.798   5.367  18.040  0.00  0.00    +0.000 C 
BRANCH   3   8
ATOM      4  C   UNL     1       1.054   2.417  18.828  0.00  0.00    +0.000 C 
ATOM      5  C   UNL     1       1.589   3.819  19.086  0.00  0.00    +0.000 C 
ATOM      6  C   UNL     1       1.812   4.577  17.773  0.00  0.00    +0.000 C 
ATOM      7  C   UNL     1       2.446   5.948  18.030  0.00  0.00    +0.000 C 
ATOM      8  N   UNL     1       3.691   5.918  18.841  0.00  0.00    +0.000 NA
ATOM      9  C   UNL     1       3.436   5.182  20.098  0.00  0.00    +0.000 C 
ATOM     10  C   UNL     1       2.888   3.773  19.895  0.00  0.00    +0.000 C 
ENDBRANCH   3   8
ENDBRANCH   2   3
ENDBRANCH   1   2
BRANCH   1  11
ATOM     11  C   UNL     1       6.694   6.269  16.367  0.00  0.00    +0.000 C 
BRANCH  11  12
ATOM     12  O   UNL     1       7.645   5.816  15.412  0.00  0.00    +0.000 OA
BRANCH  12  13
ATOM     13  C   UNL     1       7.132   5.081  14.378  0.00  0.00    +0.000 A 
ATOM     14  C   UNL     1       7.729   4.909  13.121  0.00  0.00    +0.000 A 
ATOM     15  C   UNL     1       7.110   4.112  12.155  0.00  0.00    +0.000 A 
ATOM     16  C   UNL     1       5.900   3.499  12.450  0.00  0.00    +0.000 A 
ATOM     17  F   UNL     1       5.314   2.725  11.528  0.00  0.00    +0.000 F 
ATOM     18  C   UNL     1       5.292   3.670  13.687  0.00  0.00    +0.000 A 
ATOM     19  C   UNL     1       5.909   4.464  14.651  0.00  0.00    +0.000 A 
ENDBRANCH  12  13
ENDBRANCH  11  12
ENDBRANCH   1  11
TORSDOF 6
ENDMDL
MODEL 4
REMARK VINA RESULT:      -6.3      3.863      5.046
REMARK  Name = 
REMARK  7 active torsions:
REMARK  status: ('A' for Active; 'I' for Inactive)
REMARK    1  A    between atoms: C_1  and  C_2
REMARK    2  A    between atoms: N_5  and  C_6
REMARK    3  A    between atoms: C_6  and  C_7
REMARK    4  A    between atoms: C_7  and  C_8
REMARK    5  A    between atoms: C_8  and  C_9
REMARK    6  A    between atoms: C_9  and  O_10
REMARK    7  A    between atoms: O_10  and  C_11
REMARK                            x       y       z     vdW  Elec       q    Type
REMARK                         _______ _______ _______ _____ _____    ______ ____
ROOT
ATOM      1  C   UNL     1       2.382   7.081  19.620  0.00  0.00    +0.000 C 
ENDROOT
BRANCH   1   2
ATOM      2  C   UNL     1       1.473   6.079  20.332  0.00  0.00    +0.000 C 
BRANCH   2   3
ATOM      3  C   UNL     1       2.271   5.052  21.153  0.00  0.00    +0.000 C 
BRANCH   3   8
ATOM      4  C   UNL     1       3.550   1.776  17.842  0.00  0.00    +0.000 C 
ATOM      5  C   UNL     1       2.652   2.018  19.048  0.00  0.00    +0.000 C 
ATOM      6  C   UNL     1       1.658   3.152  18.781  0.00  0.00    +0.000 C 
ATOM      7  C   UNL     1       0.828   3.463  20.031  0.00  0.00    +0.000 C 
ATOM      8  N   UNL     1       1.622   3.734  21.257  0.00  0.00    +0.000 NA
ATOM      9  C   UNL     1       2.566   2.618  21.483  0.00  0.00    +0.000 C 
ATOM     10  C   UNL     1       3.482   2.327  20.298  0.00  0.00    +0.000 C 
ENDBRANCH   3   8
ENDBRANCH   2   3
ENDBRANCH   1   2
BRANCH   1  11
ATOM     11  C   UNL     1       2.384   6.882  18.110  0.00  0.00    +0.000 C 
BRANCH  11  12
ATOM     12  O   UNL     1       3.200   5.762  17.793  0.00  0.00    +0.000 OA
BRANCH  12  13
ATOM     13  C   UNL     1       4.531   5.908  18.074  0.00  0.00    +0.000 A 
ATOM     14  C   UNL     1       5.233   5.238  19.087  0.00  0.00    +0.000 A 
ATOM     15  C   UNL     1       6.601   5.461  19.256  0.00  0.00    +0.000 A 
ATOM     16  C   UNL     1       7.256   6.353  18.418  0.00  0.00    +0.000 A 
ATOM     17  F   UNL     1       8.570   6.555  18.572  0.00  0.00    +0.000 F 
ATOM     18  C   UNL     1       6.571   7.031  17.417  0.00  0.00    +0.000 A 
ATOM     19  C   UNL     1       5.206   6.810  17.248  0.00  0.00    +0.000 A 
ENDBRANCH  12  13
ENDBRANCH  11  12
ENDBRANCH   1  11
TORSDOF 6
ENDMDL
MODEL 5
REMARK VINA RESULT:      -6.2      3.331      6.644
REMARK  Name = 
REMARK  7 active torsions:
REMARK  status: ('A' for Active; 'I' for Inactive)
REMARK    1  A    between atoms: C_1  and  C_2
REMARK    2  A    between atoms: N_5  and  C_6
REMARK    3  A    between atoms: C_6  and  C_7
REMARK    4  A    between atoms: C_7  and  C_8
REMARK    5  A    between atoms: C_8  and  C_9
REMARK    6  A    between atoms: C_9  and  O_10
REMARK    7  A    between atoms: O_10  and  C_11
REMARK                            x       y       z     vdW  Elec       q    Type
REMARK                         _______ _______ _______ _____ _____    ______ ____
ROOT
ATOM      1  C   UNL     1       3.585   7.541  17.375  0.00  0.00    +0.000 C 
ENDROOT
BRANCH   1   2
ATOM      2  C   UNL     1       4.722   6.664  16.849  0.00  0.00    +0.000 C 
BRANCH   2   3
ATOM      3  C   UNL     1       5.742   6.314  17.944  0.00  0.00    +0.000 C 
BRANCH   3   8
ATOM      4  C   UNL     1       6.071   4.021  13.705  0.00  0.00    +0.000 C 
ATOM      5  C   UNL     1       6.179   3.837  15.213  0.00  0.00    +0.000 C 
ATOM      6  C   UNL     1       4.850   4.154  15.907  0.00  0.00    +0.000 C 
ATOM      7  C   UNL     1       4.990   4.069  17.430  0.00  0.00    +0.000 C 
ATOM      8  N   UNL     1       6.093   4.885  18.003  0.00  0.00    +0.000 NA
ATOM      9  C   UNL     1       7.356   4.549  17.311  0.00  0.00    +0.000 C 
ATOM     10  C   UNL     1       7.297   4.706  15.795  0.00  0.00    +0.000 C 
ENDBRANCH   3   8
ENDBRANCH   2   3
ENDBRANCH   1   2
BRANCH   1  11
ATOM     11  C   UNL     1       2.884   6.914  18.572  0.00  0.00    +0.000 C 
BRANCH  11  12
ATOM     12  O   UNL     1       2.107   5.810  18.127  0.00  0.00    +0.000 OA
BRANCH  12  13
ATOM     13  C   UNL     1       1.877   4.839  19.063  0.00  0.00    +0.000 A 
ATOM     14  C   UNL     1       1.238   3.612  18.832  0.00  0.00    +0.000 A 
ATOM     15  C   UNL     1       1.085   2.695  19.874  0.00  0.00    +0.000 A 
ATOM     16  C   UNL     1       1.564   3.011  21.137  0.00  0.00    +0.000 A 
ATOM     17  F   UNL     1       1.428   2.125  22.132  0.00  0.00    +0.000 F 
ATOM     18  C   UNL     1       2.188   4.227  21.384  0.00  0.00    +0.000 A 
ATOM     19  C   UNL     1       2.343   5.142  20.345  0.00  0.00    +0.000 A 
ENDBRANCH  12  13
ENDBRANCH  11  12
ENDBRANCH   1  11
TORSDOF 6
ENDMDL
MODEL 6
REMARK VINA RESULT:      -6.2      0.983      1.572
REMARK  Name = 
REMARK  7 active torsions:
REMARK  status: ('A' for Active; 'I' for Inactive)
REMARK    1  A    between atoms: C_1  and  C_2
REMARK    2  A    between atoms: N_5  and  C_6
REMARK    3  A    between atoms: C_6  and  C_7
REMARK    4  A    between atoms: C_7  and  C_8
REMARK    5  A    between atoms: C_8  and  C_9
REMARK    6  A    between atoms: C_9  and  O_10
REMARK    7  A    between atoms: O_10  and  C_11
REMARK                            x       y       z     vdW  Elec       q    Type
REMARK                         _______ _______ _______ _____ _____    ______ ____
ROOT
ATOM      1  C   UNL     1       5.429   6.553  16.462  0.00  0.00    +0.000 C 
ENDROOT
BRANCH   1   2
ATOM      2  C   UNL     1       4.519   6.417  17.683  0.00  0.00    +0.000 C 
BRANCH   2   3
ATOM      3  C   UNL     1       3.397   5.390  17.462  0.00  0.00    +0.000 C 
BRANCH   3   8
ATOM      4  C   UNL     1       1.301   2.997  21.097  0.00  0.00    +0.000 C 
ATOM      5  C   UNL     1       2.326   2.878  19.977  0.00  0.00    +0.000 C 
ATOM      6  C   UNL     1       3.472   3.877  20.167  0.00  0.00    +0.000 C 
ATOM      7  C   UNL     1       4.447   3.827  18.986  0.00  0.00    +0.000 C 
ATOM      8  N   UNL     1       3.818   3.992  17.649  0.00  0.00    +0.000 NA
ATOM      9  C   UNL     1       2.721   3.010  17.503  0.00  0.00    +0.000 C 
ATOM     10  C   UNL     1       1.671   3.080  18.608  0.00  0.00    +0.000 C 
ENDBRANCH   3   8
ENDBRANCH   2   3
ENDBRANCH   1   2
BRANCH   1  11
ATOM     11  C   UNL     1       6.715   5.752  16.613  0.00  0.00    +0.000 C 
BRANCH  11  12
ATOM     12  O   UNL     1       7.433   5.795  15.386  0.00  0.00    +0.000 OA
BRANCH  12  13
ATOM     13  C   UNL     1       6.971   4.958  14.408  0.00  0.00    +0.000 A 
ATOM     14  C   UNL     1       6.024   3.937  14.581  0.00  0.00    +0.000 A 
ATOM     15  C   UNL     1       5.619   3.164  13.491  0.00  0.00    +0.000 A 
ATOM     16  C   UNL     1       6.165   3.412  12.239  0.00  0.00    +0.000 A 
ATOM     17  F   UNL     1       5.766   2.679  11.192  0.00  0.00    +0.000 F 
ATOM     18  C   UNL     1       7.111   4.412  12.054  0.00  0.00    +0.000 A 
ATOM     19  C   UNL     1       7.516   5.184  13.141  0.00  0.00    +0.000 A 
ENDBRANCH  12  13
ENDBRANCH  11  12
ENDBRANCH   1  11
TORSDOF 6
ENDMDL
MODEL 7
REMARK VINA RESULT:      -6.2      4.634      7.492
REMARK  Name = 
REMARK  7 active torsions:
REMARK  status: ('A' for Active; 'I' for Inactive)
REMARK    1  A    between atoms: C_1  and  C_2
REMARK    2  A    between atoms: N_5  and  C_6
REMARK    3  A    between atoms: C_6  and  C_7
REMARK    4  A    between atoms: C_7  and  C_8
REMARK    5  A    between atoms: C_8  and  C_9
REMARK    6  A    between atoms: C_9  and  O_10
REMARK    7  A    between atoms: O_10  and  C_11
REMARK                            x       y       z     vdW  Elec       q    Type
REMARK                         _______ _______ _______ _____ _____    ______ ____
ROOT
ATOM      1  C   UNL     1       2.365   4.861  18.340  0.00  0.00    +0.000 C 
ENDROOT
BRANCH   1   2
ATOM      2  C   UNL     1       3.403   3.896  17.764  0.00  0.00    +0.000 C 
BRANCH   2   3
ATOM      3  C   UNL     1       4.840   4.308  18.119  0.00  0.00    +0.000 C 
BRANCH   3   8
ATOM      4  C   UNL     1       7.659   8.215  17.763  0.00  0.00    +0.000 C 
ATOM      5  C   UNL     1       7.294   6.899  17.091  0.00  0.00    +0.000 C 
ATOM      6  C   UNL     1       5.818   6.876  16.682  0.00  0.00    +0.000 C 
ATOM      7  C   UNL     1       5.428   5.513  16.101  0.00  0.00    +0.000 C 
ATOM      8  N   UNL     1       5.755   4.349  16.966  0.00  0.00    +0.000 NA
ATOM      9  C   UNL     1       7.186   4.404  17.336  0.00  0.00    +0.000 C 
ATOM     10  C   UNL     1       7.607   5.710  18.004  0.00  0.00    +0.000 C 
ENDBRANCH   3   8
ENDBRANCH   2   3
ENDBRANCH   1   2
BRANCH   1  11
ATOM     11  C   UNL     1       3.003   5.940  19.204  0.00  0.00    +0.000 C 
BRANCH  11  12
ATOM     12  O   UNL     1       2.950   7.179  18.510  0.00  0.00    +0.000 OA
BRANCH  12  13
ATOM     13  C   UNL     1       2.031   8.076  18.980  0.00  0.00    +0.000 A 
ATOM     14  C   UNL     1       1.543   8.138  20.294  0.00  0.00    +0.000 A 
ATOM     15  C   UNL     1       0.618   9.120  20.653  0.00  0.00    +0.000 A 
ATOM     16  C   UNL     1       0.184  10.030  19.698  0.00  0.00    +0.000 A 
ATOM     17  F   UNL     1      -0.693  10.980  20.047  0.00  0.00    +0.000 F 
ATOM     18  C   UNL     1       0.650   9.974  18.391  0.00  0.00    +0.000 A 
ATOM     19  C   UNL     1       1.573   8.995  18.032  0.00  0.00    +0.000 A 
ENDBRANCH  12  13
ENDBRANCH  11  12
ENDBRANCH   1  11
TORSDOF 6
ENDMDL
MODEL 8
REMARK VINA RESULT:      -6.2      1.065      1.568
REMARK  Name = 
REMARK  7 active torsions:
REMARK  status: ('A' for Active; 'I' for Inactive)
REMARK    1  A    between atoms: C_1  and  C_2
REMARK    2  A    between atoms: N_5  and  C_6
REMARK    3  A    between atoms: C_6  and  C_7
REMARK    4  A    between atoms: C_7  and  C_8
REMARK    5  A    between atoms: C_8  and  C_9
REMARK    6  A    between atoms: C_9  and  O_10
REMARK    7  A    between atoms: O_10  and  C_11
REMARK                            x       y       z     vdW  Elec       q    Type
REMARK                         _______ _______ _______ _____ _____    ______ ____
ROOT
ATOM      1  C   UNL     1       7.166   5.123  17.952  0.00  0.00    +0.000 C 
ENDROOT
BRANCH   1   2
ATOM      2  C   UNL     1       5.869   5.176  18.759  0.00  0.00    +0.000 C 
BRANCH   2   3
ATOM      3  C   UNL     1       5.162   3.812  18.814  0.00  0.00    +0.000 C 
BRANCH   3   8
ATOM      4  C   UNL     1       0.569   3.327  20.231  0.00  0.00    +0.000 C 
ATOM      5  C   UNL     1       1.484   3.338  19.014  0.00  0.00    +0.000 C 
ATOM      6  C   UNL     1       2.520   2.212  19.090  0.00  0.00    +0.000 C 
ATOM      7  C   UNL     1       3.504   2.289  17.918  0.00  0.00    +0.000 C 
ATOM      8  N   UNL     1       4.169   3.607  17.746  0.00  0.00    +0.000 NA
ATOM      9  C   UNL     1       3.139   4.666  17.674  0.00  0.00    +0.000 C 
ATOM     10  C   UNL     1       2.187   4.691  18.866  0.00  0.00    +0.000 C 
ENDBRANCH   3   8
ENDBRANCH   2   3
ENDBRANCH   1   2
BRANCH   1  11
ATOM     11  C   UNL     1       7.214   6.193  16.870  0.00  0.00    +0.000 C 
BRANCH  11  12
ATOM     12  O   UNL     1       6.081   6.045  16.024  0.00  0.00    +0.000 OA
BRANCH  12  13
ATOM     13  C   UNL     1       6.280   5.284  14.905  0.00  0.00    +0.000 A 
ATOM     14  C   UNL     1       5.433   4.266  14.445  0.00  0.00    +0.000 A 
ATOM     15  C   UNL     1       5.741   3.575  13.271  0.00  0.00    +0.000 A 
ATOM     16  C   UNL     1       6.892   3.903  12.569  0.00  0.00    +0.000 A 
ATOM     17  F   UNL     1       7.179   3.249  11.436  0.00  0.00    +0.000 F 
ATOM     18  C   UNL     1       7.746   4.902  13.018  0.00  0.00    +0.000 A 
ATOM     19  C   UNL     1       7.440   5.591  14.189  0.00  0.00    +0.000 A 
ENDBRANCH  12  13
ENDBRANCH  11  12
ENDBRANCH   1  11
TORSDOF 6
ENDMDL
MODEL 9
REMARK VINA RESULT:      -6.2      2.983      6.120
REMARK  Name = 
REMARK  7 active torsions:
REMARK  status: ('A' for Active; 'I' for Inactive)
REMARK    1  A    between atoms: C_1  and  C_2
REMARK    2  A    between atoms: N_5  and  C_6
REMARK    3  A    between atoms: C_6  and  C_7
REMARK    4  A    between atoms: C_7  and  C_8
REMARK    5  A    between atoms: C_8  and  C_9
REMARK    6  A    between atoms: C_9  and  O_10
REMARK    7  A    between atoms: O_10  and  C_11
REMARK                            x       y       z     vdW  Elec       q    Type
REMARK                         _______ _______ _______ _____ _____    ______ ____
ROOT
ATOM      1  C   UNL     1       2.371   5.843  20.415  0.00  0.00    +0.000 C 
ENDROOT
BRANCH   1   2
ATOM      2  C   UNL     1       2.625   6.661  19.149  0.00  0.00    +0.000 C 
BRANCH   2   3
ATOM      3  C   UNL     1       3.370   5.853  18.074  0.00  0.00    +0.000 C 
BRANCH   3   8
ATOM      4  C   UNL     1       5.777   4.302  14.183  0.00  0.00    +0.000 C 
ATOM      5  C   UNL     1       5.942   4.940  15.556  0.00  0.00    +0.000 C 
ATOM      6  C   UNL     1       5.428   4.013  16.662  0.00  0.00    +0.000 C 
ATOM      7  C   UNL     1       5.498   4.697  18.031  0.00  0.00    +0.000 C 
ATOM      8  N   UNL     1       4.833   6.024  18.102  0.00  0.00    +0.000 NA
ATOM      9  C   UNL     1       5.356   6.889  17.023  0.00  0.00    +0.000 C 
ATOM     10  C   UNL     1       5.225   6.291  15.625  0.00  0.00    +0.000 C 
ENDBRANCH   3   8
ENDBRANCH   2   3
ENDBRANCH   1   2
BRANCH   1  11
ATOM     11  C   UNL     1       0.979   5.226  20.431  0.00  0.00    +0.000 C 
BRANCH  11  12
ATOM     12  O   UNL     1       1.081   3.865  20.827  0.00  0.00    +0.000 OA
BRANCH  12  13
ATOM     13  C   UNL     1       1.952   3.105  20.095  0.00  0.00    +0.000 A 
ATOM     14  C   UNL     1       3.221   2.681  20.514  0.00  0.00    +0.000 A 
ATOM     15  C   UNL     1       4.006   1.887  19.676  0.00  0.00    +0.000 A 
ATOM     16  C   UNL     1       3.522   1.527  18.426  0.00  0.00    +0.000 A 
ATOM     17  F   UNL     1       4.270   0.755  17.629  0.00  0.00    +0.000 F 
ATOM     18  C   UNL     1       2.271   1.949  17.993  0.00  0.00    +0.000 A 
ATOM     19  C   UNL     1       1.487   2.741  18.829  0.00  0.00    +0.000 A 
ENDBRANCH  12  13
ENDBRANCH  11  12
ENDBRANCH   1  11
TORSDOF 6
ENDMDL
