MODEL 1
REMARK VINA RESULT:      -8.7      0.000      0.000
REMARK  Name = 
REMARK  4 active torsions:
REMARK  status: ('A' for Active; 'I' for Inactive)
REMARK    1  A    between atoms: C_1  and  O_2
REMARK    2  A    between atoms: O_2  and  C_3
REMARK    3  A    between atoms: C_8  and  C_9
REMARK    4  A    between atoms: C_12  and  C_14
REMARK                            x       y       z     vdW  Elec       q    Type
REMARK                         _______ _______ _______ _____ _____    ______ ____
ROOT
ATOM      1  C   UNL     1       2.329   6.030  19.940  0.00  0.00    +0.000 C 
ATOM      2  C   UNL     1       2.421   5.649  18.444  0.00  0.00    +0.000 C 
ATOM      3  N   UNL     1       2.921   4.279  18.301  0.00  0.00    +0.000 N 
ATOM      4  C   UNL     1       3.967   3.846  17.508  0.00  0.00    +0.000 C 
ATOM      5  O   UNL     1       4.272   2.653  17.462  0.00  0.00    +0.000 OA
ATOM      6  C   UNL     1       2.150   3.307  19.083  0.00  0.00    +0.000 C 
ATOM      7  C   UNL     1       2.087   3.747  20.547  0.00  0.00    +0.000 C 
ATOM      8  O   UNL     1       1.534   5.069  20.665  0.00  0.00    +0.000 OA
ENDROOT
BRANCH   1  14
ATOM      9  C   UNL     1      -0.476  11.647  21.826  0.00  0.00    +0.000 A 
ATOM     10  C   UNL     1      -0.617  10.688  22.827  0.00  0.00    +0.000 A 
ATOM     11  C   UNL     1      -0.109   9.400  22.645  0.00  0.00    +0.000 A 
ATOM     12  C   UNL     1       0.550   9.050  21.458  0.00  0.00    +0.000 A 
ATOM     13  C   UNL     1       1.067   7.759  21.269  0.00  0.00    +0.000 A 
ATOM     14  C   UNL     1       1.725   7.409  20.079  0.00  0.00    +0.000 A 
ATOM     15  C   UNL     1       1.864   8.374  19.076  0.00  0.00    +0.000 A 
ATOM     16  C   UNL     1       1.354   9.662  19.251  0.00  0.00    +0.000 A 
ATOM     17  C   UNL     1       0.699  10.015  20.439  0.00  0.00    +0.000 A 
ATOM     18  C   UNL     1       0.183  11.307  20.642  0.00  0.00    +0.000 A 
BRANCH   9  20
ATOM     19  C   UNL     1      -1.302  13.421  23.168  0.00  0.00    +0.000 C 
ATOM     20  O   UNL     1      -0.929  12.936  21.883  0.00  0.00    +0.000 OA
ENDBRANCH   9  20
ENDBRANCH   1  14
BRANCH   4  21
ATOM     21  C   UNL     1       4.783   4.890  16.739  0.00  0.00    +0.000 C 
ATOM     22  C   UNL     1       5.346   4.276  15.447  0.00  0.00    +0.000 C 
ATOM     23  C   UNL     1       6.364   5.192  14.788  0.00  0.00    +0.000 C 
ATOM     24  O   UNL     1       7.403   5.526  15.704  0.00  0.00    +0.000 OA
ATOM     25  C   UNL     1       6.911   6.256  16.824  0.00  0.00    +0.000 C 
ATOM     26  C   UNL     1       5.919   5.423  17.624  0.00  0.00    +0.000 C 
ENDBRANCH   4  21
TORSDOF 3
ENDMDL
MODEL 2
REMARK VINA RESULT:      -8.5      1.172      1.439
REMARK  Name = 
REMARK  4 active torsions:
REMARK  status: ('A' for Active; 'I' for Inactive)
REMARK    1  A    between atoms: C_1  and  O_2
REMARK    2  A    between atoms: O_2  and  C_3
REMARK    3  A    between atoms: C_8  and  C_9
REMARK    4  A    between atoms: C_12  and  C_14
REMARK                            x       y       z     vdW  Elec       q    Type
REMARK                         _______ _______ _______ _____ _____    ______ ____
ROOT
ATOM      1  C   UNL     1       2.415   6.591  19.731  0.00  0.00    +0.000 C 
ATOM      2  C   UNL     1       2.554   5.856  18.379  0.00  0.00    +0.000 C 
ATOM      3  N   UNL     1       3.025   4.486  18.594  0.00  0.00    +0.000 N 
ATOM      4  C   UNL     1       4.089   3.857  17.975  0.00  0.00    +0.000 C 
ATOM      5  O   UNL     1       4.368   2.685  18.233  0.00  0.00    +0.000 OA
ATOM      6  C   UNL     1       2.203   3.744  19.556  0.00  0.00    +0.000 C 
ATOM      7  C   UNL     1       2.095   4.530  20.865  0.00  0.00    +0.000 C 
ATOM      8  O   UNL     1       1.571   5.848  20.634  0.00  0.00    +0.000 OA
ENDROOT
BRANCH   1  14
ATOM      9  C   UNL     1      -0.243  12.574  20.087  0.00  0.00    +0.000 A 
ATOM     10  C   UNL     1      -0.378  11.923  21.311  0.00  0.00    +0.000 A 
ATOM     11  C   UNL     1       0.103  10.622  21.474  0.00  0.00    +0.000 A 
ATOM     12  C   UNL     1       0.727   9.950  20.413  0.00  0.00    +0.000 A 
ATOM     13  C   UNL     1       1.215   8.644  20.568  0.00  0.00    +0.000 A 
ATOM     14  C   UNL     1       1.839   7.972  19.505  0.00  0.00    +0.000 A 
ATOM     15  C   UNL     1       1.971   8.628  18.278  0.00  0.00    +0.000 A 
ATOM     16  C   UNL     1       1.489   9.928  18.109  0.00  0.00    +0.000 A 
ATOM     17  C   UNL     1       0.869  10.602  19.169  0.00  0.00    +0.000 A 
ATOM     18  C   UNL     1       0.382  11.912  19.026  0.00  0.00    +0.000 A 
BRANCH   9  20
ATOM     19  C   UNL     1       0.114  14.583  18.876  0.00  0.00    +0.000 C 
ATOM     20  O   UNL     1      -0.671  13.841  19.803  0.00  0.00    +0.000 OA
ENDBRANCH   9  20
ENDBRANCH   1  14
BRANCH   4  21
ATOM     21  C   UNL     1       4.959   4.670  17.010  0.00  0.00    +0.000 C 
ATOM     22  C   UNL     1       5.542   3.754  15.922  0.00  0.00    +0.000 C 
ATOM     23  C   UNL     1       6.606   4.465  15.102  0.00  0.00    +0.000 C 
ATOM     24  O   UNL     1       7.626   4.986  15.950  0.00  0.00    +0.000 OA
ATOM     25  C   UNL     1       7.122   5.972  16.846  0.00  0.00    +0.000 C 
ATOM     26  C   UNL     1       6.082   5.375  17.784  0.00  0.00    +0.000 C 
ENDBRANCH   4  21
TORSDOF 3
ENDMDL
MODEL 3
REMARK VINA RESULT:      -8.4      1.317      2.141
REMARK  Name = 
REMARK  4 active torsions:
REMARK  status: ('A' for Active; 'I' for Inactive)
REMARK    1  A    between atoms: C_1  and  O_2
REMARK    2  A    between atoms: O_2  and  C_3
REMARK    3  A    between atoms: C_8  and  C_9
REMARK    4  A    between atoms: C_12  and  C_14
REMARK                            x       y       z     vdW  Elec       q    Type
REMARK                         _______ _______ _______ _____ _____    ______ ____
ROOT
ATOM      1  C   UNL     1       2.166   5.644  19.954  0.00  0.00    +0.000 C 
ATOM      2  C   UNL     1       2.497   5.385  18.466  0.00  0.00    +0.000 C 
ATOM      3  N   UNL     1       2.783   3.964  18.252  0.00  0.00    +0.000 N 
ATOM      4  C   UNL     1       3.883   3.416  17.619  0.00  0.00    +0.000 C 
ATOM      5  O   UNL     1       3.991   2.196  17.485  0.00  0.00    +0.000 OA
ATOM      6  C   UNL     1       1.720   3.087  18.752  0.00  0.00    +0.000 C 
ATOM      7  C   UNL     1       1.433   3.401  20.222  0.00  0.00    +0.000 C 
ATOM      8  O   UNL     1       1.093   4.788  20.397  0.00  0.00    +0.000 OA
ENDROOT
BRANCH   1  14
ATOM      9  C   UNL     1       0.806  12.040  19.488  0.00  0.00    +0.000 A 
ATOM     10  C   UNL     1       1.461  11.611  18.336  0.00  0.00    +0.000 A 
ATOM     11  C   UNL     1       1.866  10.280  18.211  0.00  0.00    +0.000 A 
ATOM     12  C   UNL     1       1.623   9.357  19.237  0.00  0.00    +0.000 A 
ATOM     13  C   UNL     1       2.024   8.018  19.118  0.00  0.00    +0.000 A 
ATOM     14  C   UNL     1       1.781   7.094  20.147  0.00  0.00    +0.000 A 
ATOM     15  C   UNL     1       1.124   7.529  21.303  0.00  0.00    +0.000 A 
ATOM     16  C   UNL     1       0.719   8.859  21.434  0.00  0.00    +0.000 A 
ATOM     17  C   UNL     1       0.959   9.782  20.407  0.00  0.00    +0.000 A 
ATOM     18  C   UNL     1       0.555  11.125  20.514  0.00  0.00    +0.000 A 
BRANCH   9  20
ATOM     19  C   UNL     1      -0.252  13.987  18.638  0.00  0.00    +0.000 C 
ATOM     20  O   UNL     1       0.361  13.311  19.729  0.00  0.00    +0.000 OA
ENDBRANCH   9  20
ENDBRANCH   1  14
BRANCH   4  21
ATOM     21  C   UNL     1       4.999   4.353  17.148  0.00  0.00    +0.000 C 
ATOM     22  C   UNL     1       5.634   3.815  15.856  0.00  0.00    +0.000 C 
ATOM     23  C   UNL     1       6.903   4.571  15.497  0.00  0.00    +0.000 C 
ATOM     24  O   UNL     1       7.825   4.544  16.583  0.00  0.00    +0.000 OA
ATOM     25  C   UNL     1       7.309   5.202  17.736  0.00  0.00    +0.000 C 
ATOM     26  C   UNL     1       6.059   4.502  18.250  0.00  0.00    +0.000 C 
ENDBRANCH   4  21
TORSDOF 3
ENDMDL
MODEL 4
REMARK VINA RESULT:      -7.9      1.796      3.855
REMARK  Name = 
REMARK  4 active torsions:
REMARK  status: ('A' for Active; 'I' for Inactive)
REMARK    1  A    between atoms: C_1  and  O_2
REMARK    2  A    between atoms: O_2  and  C_3
REMARK    3  A    between atoms: C_8  and  C_9
REMARK    4  A    between atoms: C_12  and  C_14
REMARK                            x       y       z     vdW  Elec       q    Type
REMARK                         _______ _______ _______ _____ _____    ______ ____
ROOT
ATOM      1  C   UNL     1       3.459   6.506  18.336  0.00  0.00    +0.000 C 
ATOM      2  C   UNL     1       3.586   5.561  19.553  0.00  0.00    +0.000 C 
ATOM      3  N   UNL     1       4.606   4.542  19.297  0.00  0.00    +0.000 N 
ATOM      4  C   UNL     1       4.477   3.172  19.437  0.00  0.00    +0.000 C 
ATOM      5  O   UNL     1       5.428   2.422  19.209  0.00  0.00    +0.000 OA
ATOM      6  C   UNL     1       5.894   5.113  18.892  0.00  0.00    +0.000 C 
ATOM      7  C   UNL     1       5.698   6.045  17.694  0.00  0.00    +0.000 C 
ATOM      8  O   UNL     1       4.739   7.074  17.992  0.00  0.00    +0.000 OA
ENDROOT
BRANCH   1  14
ATOM      9  C   UNL     1      -0.639  10.902  20.955  0.00  0.00    +0.000 A 
ATOM     10  C   UNL     1      -0.273   9.964  21.918  0.00  0.00    +0.000 A 
ATOM     11  C   UNL     1       0.587   8.915  21.588  0.00  0.00    +0.000 A 
ATOM     12  C   UNL     1       1.096   8.787  20.288  0.00  0.00    +0.000 A 
ATOM     13  C   UNL     1       1.963   7.737  19.948  0.00  0.00    +0.000 A 
ATOM     14  C   UNL     1       2.471   7.609  18.646  0.00  0.00    +0.000 A 
ATOM     15  C   UNL     1       2.101   8.552  17.682  0.00  0.00    +0.000 A 
ATOM     16  C   UNL     1       1.239   9.601  18.006  0.00  0.00    +0.000 A 
ATOM     17  C   UNL     1       0.732   9.733  19.306  0.00  0.00    +0.000 A 
ATOM     18  C   UNL     1      -0.132  10.784  19.658  0.00  0.00    +0.000 A 
BRANCH   9  20
ATOM     19  C   UNL     1      -2.334  12.309  20.074  0.00  0.00    +0.000 C 
ATOM     20  O   UNL     1      -1.471  11.970  21.153  0.00  0.00    +0.000 OA
ENDBRANCH   9  20
ENDBRANCH   1  14
BRANCH   4  21
ATOM     21  C   UNL     1       3.108   2.601  19.817  0.00  0.00    +0.000 C 
ATOM     22  C   UNL     1       2.074   2.934  18.729  0.00  0.00    +0.000 C 
ATOM     23  C   UNL     1       0.660   2.610  19.181  0.00  0.00    +0.000 C 
ATOM     24  O   UNL     1       0.363   3.274  20.406  0.00  0.00    +0.000 OA
ATOM     25  C   UNL     1       1.205   2.836  21.468  0.00  0.00    +0.000 C 
ATOM     26  C   UNL     1       2.663   3.161  21.175  0.00  0.00    +0.000 C 
ENDBRANCH   4  21
TORSDOF 3
ENDMDL
MODEL 5
REMARK VINA RESULT:      -7.7      1.425      1.978
REMARK  Name = 
REMARK  4 active torsions:
REMARK  status: ('A' for Active; 'I' for Inactive)
REMARK    1  A    between atoms: C_1  and  O_2
REMARK    2  A    between atoms: O_2  and  C_3
REMARK    3  A    between atoms: C_8  and  C_9
REMARK    4  A    between atoms: C_12  and  C_14
REMARK                            x       y       z     vdW  Elec       q    Type
REMARK                         _______ _______ _______ _____ _____    ______ ____
ROOT
ATOM      1  C   UNL     1       2.592   6.358  20.025  0.00  0.00    +0.000 C 
ATOM      2  C   UNL     1       2.943   5.519  18.774  0.00  0.00    +0.000 C 
ATOM      3  N   UNL     1       3.454   4.205  19.174  0.00  0.00    +0.000 N 
ATOM      4  C   UNL     1       4.621   3.595  18.753  0.00  0.00    +0.000 C 
ATOM      5  O   UNL     1       4.925   2.470  19.153  0.00  0.00    +0.000 OA
ATOM      6  C   UNL     1       2.555   3.499  20.092  0.00  0.00    +0.000 C 
ATOM      7  C   UNL     1       2.238   4.386  21.299  0.00  0.00    +0.000 C 
ATOM      8  O   UNL     1       1.679   5.643  20.882  0.00  0.00    +0.000 OA
ENDROOT
BRANCH   1  14
ATOM      9  C   UNL     1      -0.341  12.198  19.497  0.00  0.00    +0.000 A 
ATOM     10  C   UNL     1      -0.549  11.677  20.773  0.00  0.00    +0.000 A 
ATOM     11  C   UNL     1      -0.028  10.428  21.117  0.00  0.00    +0.000 A 
ATOM     12  C   UNL     1       0.711   9.679  20.191  0.00  0.00    +0.000 A 
ATOM     13  C   UNL     1       1.240   8.424  20.529  0.00  0.00    +0.000 A 
ATOM     14  C   UNL     1       1.979   7.674  19.601  0.00  0.00    +0.000 A 
ATOM     15  C   UNL     1       2.185   8.200  18.321  0.00  0.00    +0.000 A 
ATOM     16  C   UNL     1       1.663   9.446  17.970  0.00  0.00    +0.000 A 
ATOM     17  C   UNL     1       0.928  10.198  18.897  0.00  0.00    +0.000 A 
ATOM     18  C   UNL     1       0.399  11.459  18.570  0.00  0.00    +0.000 A 
BRANCH   9  20
ATOM     19  C   UNL     1       0.183  14.410  18.818  0.00  0.00    +0.000 C 
ATOM     20  O   UNL     1      -0.797  13.403  19.040  0.00  0.00    +0.000 OA
ENDBRANCH   9  20
ENDBRANCH   1  14
BRANCH   4  21
ATOM     21  C   UNL     1       5.563   4.376  17.831  0.00  0.00    +0.000 C 
ATOM     22  C   UNL     1       6.158   5.580  18.578  0.00  0.00    +0.000 C 
ATOM     23  C   UNL     1       6.893   6.518  17.634  0.00  0.00    +0.000 C 
ATOM     24  O   UNL     1       6.036   6.931  16.573  0.00  0.00    +0.000 OA
ATOM     25  C   UNL     1       5.622   5.834  15.765  0.00  0.00    +0.000 C 
ATOM     26  C   UNL     1       4.808   4.836  16.577  0.00  0.00    +0.000 C 
ENDBRANCH   4  21
TORSDOF 3
ENDMDL
MODEL 6
REMARK VINA RESULT:      -7.6      1.323      1.500
REMARK  Name = 
REMARK  4 active torsions:
REMARK  status: ('A' for Active; 'I' for Inactive)
REMARK    1  A    between atoms: C_1  and  O_2
REMARK    2  A    between atoms: O_2  and  C_3
REMARK    3  A    between atoms: C_8  and  C_9
REMARK    4  A    between atoms: C_12  and  C_14
REMARK                            x       y       z     vdW  Elec       q    Type
REMARK                         _______ _______ _______ _____ _____    ______ ____
ROOT
ATOM      1  C   UNL     1       1.844   6.586  20.616  0.00  0.00    +0.000 C 
ATOM      2  C   UNL     1       2.609   6.405  19.285  0.00  0.00    +0.000 C 
ATOM      3  N   UNL     1       3.166   5.053  19.202  0.00  0.00    +0.000 N 
ATOM      4  C   UNL     1       4.471   4.700  18.912  0.00  0.00    +0.000 C 
ATOM      5  O   UNL     1       4.806   3.515  18.851  0.00  0.00    +0.000 OA
ATOM      6  C   UNL     1       2.162   4.008  19.421  0.00  0.00    +0.000 C 
ATOM      7  C   UNL     1       1.435   4.251  20.745  0.00  0.00    +0.000 C 
ATOM      8  O   UNL     1       0.843   5.561  20.776  0.00  0.00    +0.000 OA
ENDROOT
BRANCH   1  14
ATOM      9  C   UNL     1      -1.168  12.227  22.064  0.00  0.00    +0.000 A 
ATOM     10  C   UNL     1      -1.293  11.337  23.128  0.00  0.00    +0.000 A 
ATOM     11  C   UNL     1      -0.741  10.057  23.045  0.00  0.00    +0.000 A 
ATOM     12  C   UNL     1      -0.054   9.646  21.894  0.00  0.00    +0.000 A 
ATOM     13  C   UNL     1       0.507   8.363  21.803  0.00  0.00    +0.000 A 
ATOM     14  C   UNL     1       1.194   7.952  20.650  0.00  0.00    +0.000 A 
ATOM     15  C   UNL     1       1.317   8.848  19.583  0.00  0.00    +0.000 A 
ATOM     16  C   UNL     1       0.764  10.128  19.660  0.00  0.00    +0.000 A 
ATOM     17  C   UNL     1       0.080  10.541  20.811  0.00  0.00    +0.000 A 
ATOM     18  C   UNL     1      -0.480  11.826  20.915  0.00  0.00    +0.000 A 
BRANCH   9  20
ATOM     19  C   UNL     1      -2.880  13.731  22.722  0.00  0.00    +0.000 C 
ATOM     20  O   UNL     1      -1.662  13.501  22.023  0.00  0.00    +0.000 OA
ENDBRANCH   9  20
ENDBRANCH   1  14
BRANCH   4  21
ATOM     21  C   UNL     1       5.509   5.812  18.734  0.00  0.00    +0.000 C 
ATOM     22  C   UNL     1       5.573   6.248  17.261  0.00  0.00    +0.000 C 
ATOM     23  C   UNL     1       6.758   7.162  16.998  0.00  0.00    +0.000 C 
ATOM     24  O   UNL     1       7.971   6.539  17.413  0.00  0.00    +0.000 OA
ATOM     25  C   UNL     1       7.991   6.294  18.815  0.00  0.00    +0.000 C 
ATOM     26  C   UNL     1       6.884   5.329  19.216  0.00  0.00    +0.000 C 
ENDBRANCH   4  21
TORSDOF 3
ENDMDL
MODEL 7
REMARK VINA RESULT:      -7.6      1.539      3.809
REMARK  Name = 
REMARK  4 active torsions:
REMARK  status: ('A' for Active; 'I' for Inactive)
REMARK    1  A    between atoms: C_1  and  O_2
REMARK    2  A    between atoms: O_2  and  C_3
REMARK    3  A    between atoms: C_8  and  C_9
REMARK    4  A    between atoms: C_12  and  C_14
REMARK                            x       y       z     vdW  Elec       q    Type
REMARK                         _______ _______ _______ _____ _____    ______ ____
ROOT
ATOM      1  C   UNL     1       2.889   6.952  18.132  0.00  0.00    +0.000 C 
ATOM      2  C   UNL     1       3.473   5.780  18.954  0.00  0.00    +0.000 C 
ATOM      3  N   UNL     1       4.325   4.944  18.106  0.00  0.00    +0.000 N 
ATOM      4  C   UNL     1       4.266   3.571  17.951  0.00  0.00    +0.000 C 
ATOM      5  O   UNL     1       5.063   2.983  17.217  0.00  0.00    +0.000 OA
ATOM      6  C   UNL     1       5.360   5.710  17.405  0.00  0.00    +0.000 C 
ATOM      7  C   UNL     1       4.720   6.859  16.623  0.00  0.00    +0.000 C 
ATOM      8  O   UNL     1       3.941   7.701  17.489  0.00  0.00    +0.000 OA
ENDROOT
BRANCH   1  14
ATOM      9  C   UNL     1      -0.912  11.515  20.910  0.00  0.00    +0.000 A 
ATOM     10  C   UNL     1      -0.683  11.839  19.575  0.00  0.00    +0.000 A 
ATOM     11  C   UNL     1       0.116  11.017  18.778  0.00  0.00    +0.000 A 
ATOM     12  C   UNL     1       0.700   9.856  19.304  0.00  0.00    +0.000 A 
ATOM     13  C   UNL     1       1.503   9.023  18.510  0.00  0.00    +0.000 A 
ATOM     14  C   UNL     1       2.088   7.862  19.038  0.00  0.00    +0.000 A 
ATOM     15  C   UNL     1       1.857   7.540  20.379  0.00  0.00    +0.000 A 
ATOM     16  C   UNL     1       1.061   8.360  21.181  0.00  0.00    +0.000 A 
ATOM     17  C   UNL     1       0.473   9.519  20.655  0.00  0.00    +0.000 A 
ATOM     18  C   UNL     1      -0.337  10.357  21.441  0.00  0.00    +0.000 A 
BRANCH   9  20
ATOM     19  C   UNL     1      -1.819  11.689  23.096  0.00  0.00    +0.000 C 
ATOM     20  O   UNL     1      -1.672  12.235  21.790  0.00  0.00    +0.000 OA
ENDBRANCH   9  20
ENDBRANCH   1  14
BRANCH   4  21
ATOM     21  C   UNL     1       3.145   2.802  18.658  0.00  0.00    +0.000 C 
ATOM     22  C   UNL     1       1.778   3.216  18.091  0.00  0.00    +0.000 C 
ATOM     23  C   UNL     1       0.634   2.672  18.930  0.00  0.00    +0.000 C 
ATOM     24  O   UNL     1       0.779   3.072  20.291  0.00  0.00    +0.000 OA
ATOM     25  C   UNL     1       1.962   2.541  20.879  0.00  0.00    +0.000 C 
ATOM     26  C   UNL     1       3.204   3.062  20.170  0.00  0.00    +0.000 C 
ENDBRANCH   4  21
TORSDOF 3
ENDMDL
MODEL 8
REMARK VINA RESULT:      -7.5      0.965      1.348
REMARK  Name = 
REMARK  4 active torsions:
REMARK  status: ('A' for Active; 'I' for Inactive)
REMARK    1  A    between atoms: C_1  and  O_2
REMARK    2  A    between atoms: O_2  and  C_3
REMARK    3  A    between atoms: C_8  and  C_9
REMARK    4  A    between atoms: C_12  and  C_14
REMARK                            x       y       z     vdW  Elec       q    Type
REMARK                         _______ _______ _______ _____ _____    ______ ____
ROOT
ATOM      1  C   UNL     1       2.023   5.485  20.218  0.00  0.00    +0.000 C 
ATOM      2  C   UNL     1       2.429   5.099  18.777  0.00  0.00    +0.000 C 
ATOM      3  N   UNL     1       2.750   3.671  18.708  0.00  0.00    +0.000 N 
ATOM      4  C   UNL     1       3.888   3.093  18.179  0.00  0.00    +0.000 C 
ATOM      5  O   UNL     1       4.025   1.868  18.163  0.00  0.00    +0.000 OA
ATOM      6  C   UNL     1       1.681   2.820  19.238  0.00  0.00    +0.000 C 
ATOM      7  C   UNL     1       1.318   3.261  20.659  0.00  0.00    +0.000 C 
ATOM      8  O   UNL     1       0.946   4.649  20.689  0.00  0.00    +0.000 OA
ENDROOT
BRANCH   1  14
ATOM      9  C   UNL     1      -0.153  11.499  21.660  0.00  0.00    +0.000 A 
ATOM     10  C   UNL     1      -0.519  10.609  22.667  0.00  0.00    +0.000 A 
ATOM     11  C   UNL     1      -0.177   9.259  22.573  0.00  0.00    +0.000 A 
ATOM     12  C   UNL     1       0.538   8.776  21.468  0.00  0.00    +0.000 A 
ATOM     13  C   UNL     1       0.888   7.421  21.366  0.00  0.00    +0.000 A 
ATOM     14  C   UNL     1       1.603   6.938  20.259  0.00  0.00    +0.000 A 
ATOM     15  C   UNL     1       1.968   7.834  19.249  0.00  0.00    +0.000 A 
ATOM     16  C   UNL     1       1.626   9.184  19.336  0.00  0.00    +0.000 A 
ATOM     17  C   UNL     1       0.915   9.670  20.443  0.00  0.00    +0.000 A 
ATOM     18  C   UNL     1       0.564  11.026  20.557  0.00  0.00    +0.000 A 
BRANCH   9  20
ATOM     19  C   UNL     1      -0.933  13.404  22.839  0.00  0.00    +0.000 C 
ATOM     20  O   UNL     1      -0.427  12.839  21.636  0.00  0.00    +0.000 OA
ENDBRANCH   9  20
ENDBRANCH   1  14
BRANCH   4  21
ATOM     21  C   UNL     1       5.009   4.008  17.675  0.00  0.00    +0.000 C 
ATOM     22  C   UNL     1       5.571   4.846  18.834  0.00  0.00    +0.000 C 
ATOM     23  C   UNL     1       6.500   5.940  18.336  0.00  0.00    +0.000 C 
ATOM     24  O   UNL     1       5.840   6.757  17.373  0.00  0.00    +0.000 OA
ATOM     25  C   UNL     1       5.472   6.019  16.211  0.00  0.00    +0.000 C 
ATOM     26  C   UNL     1       4.480   4.917  16.557  0.00  0.00    +0.000 C 
ENDBRANCH   4  21
TORSDOF 3
ENDMDL
MODEL 9
REMARK VINA RESULT:      -7.5      3.699      8.545
REMARK  Name = 
REMARK  4 active torsions:
REMARK  status: ('A' for Active; 'I' for Inactive)
REMARK    1  A    between atoms: C_1  and  O_2
REMARK    2  A    between atoms: O_2  and  C_3
REMARK    3  A    between atoms: C_8  and  C_9
REMARK    4  A    between atoms: C_12  and  C_14
REMARK                            x       y       z     vdW  Elec       q    Type
REMARK                         _______ _______ _______ _____ _____    ______ ____
ROOT
ATOM      1  C   UNL     1       0.888  10.247  18.404  0.00  0.00    +0.000 C 
ATOM      2  C   UNL     1       1.329  11.335  19.410  0.00  0.00    +0.000 C 
ATOM      3  N   UNL     1       0.609  12.584  19.150  0.00  0.00    +0.000 N 
ATOM      4  C   UNL     1       1.150  13.846  18.987  0.00  0.00    +0.000 C 
ATOM      5  O   UNL     1       0.425  14.824  18.794  0.00  0.00    +0.000 OA
ATOM      6  C   UNL     1      -0.846  12.407  19.115  0.00  0.00    +0.000 C 
ATOM      7  C   UNL     1      -1.214  11.311  18.113  0.00  0.00    +0.000 C 
ATOM      8  O   UNL     1      -0.544  10.078  18.427  0.00  0.00    +0.000 OA
ENDROOT
BRANCH   1  14
ATOM      9  C   UNL     1       4.558   4.825  18.758  0.00  0.00    +0.000 A 
ATOM     10  C   UNL     1       4.757   5.452  17.530  0.00  0.00    +0.000 A 
ATOM     11  C   UNL     1       4.067   6.625  17.218  0.00  0.00    +0.000 A 
ATOM     12  C   UNL     1       3.165   7.191  18.130  0.00  0.00    +0.000 A 
ATOM     13  C   UNL     1       2.470   8.371  17.826  0.00  0.00    +0.000 A 
ATOM     14  C   UNL     1       1.567   8.936  18.739  0.00  0.00    +0.000 A 
ATOM     15  C   UNL     1       1.368   8.304  19.971  0.00  0.00    +0.000 A 
ATOM     16  C   UNL     1       2.053   7.129  20.287  0.00  0.00    +0.000 A 
ATOM     17  C   UNL     1       2.958   6.564  19.377  0.00  0.00    +0.000 A 
ATOM     18  C   UNL     1       3.664   5.385  19.675  0.00  0.00    +0.000 A 
BRANCH   9  20
ATOM     19  C   UNL     1       4.324   2.670  19.722  0.00  0.00    +0.000 C 
ATOM     20  O   UNL     1       5.170   3.677  19.179  0.00  0.00    +0.000 OA
ENDBRANCH   9  20
ENDBRANCH   1  14
BRANCH   4  21
ATOM     21  C   UNL     1       2.675  13.994  18.981  0.00  0.00    +0.000 C 
ATOM     22  C   UNL     1       3.156  14.581  20.318  0.00  0.00    +0.000 C 
ATOM     23  C   UNL     1       4.621  14.979  20.261  0.00  0.00    +0.000 C 
ATOM     24  O   UNL     1       4.853  15.879  19.181  0.00  0.00    +0.000 OA
ATOM     25  C   UNL     1       4.578  15.278  17.919  0.00  0.00    +0.000 C 
ATOM     26  C   UNL     1       3.111  14.886  17.811  0.00  0.00    +0.000 C 
ENDBRANCH   4  21
TORSDOF 3
ENDMDL
