MODEL 1
REMARK VINA RESULT:      -6.1      0.000      0.000
REMARK  Name = 
REMARK  6 active torsions:
REMARK  status: ('A' for Active; 'I' for Inactive)
REMARK    1  A    between atoms: C_1  and  O_2
REMARK    2  A    between atoms: O_2  and  C_3
REMARK    3  A    between atoms: C_6  and  C_7
REMARK    4  A    between atoms: C_11  and  C_12
REMARK    5  A    between atoms: C_14  and  C_15
REMARK    6  A    between atoms: C_17  and  N_18
REMARK                            x       y       z     vdW  Elec       q    Type
REMARK                         _______ _______ _______ _____ _____    ______ ____
ROOT
ATOM      1  C   UNL     1       4.196   4.707  18.619  0.00  0.00    +0.000 C 
ATOM      2  O   UNL     1       4.157   3.737  19.379  0.00  0.00    +0.000 OA
ATOM      3  N   UNL     1       3.417   5.841  18.974  0.00  0.00    +0.000 N 
ATOM      4  N   UNL     1       3.338   6.913  18.129  0.00  0.00    +0.000 NA
ATOM      5  C   UNL     1       2.487   7.754  18.727  0.00  0.00    +0.000 A 
ATOM      6  C   UNL     1       2.005   7.258  19.944  0.00  0.00    +0.000 A 
ATOM      7  C   UNL     1       2.626   6.039  20.116  0.00  0.00    +0.000 A 
ENDROOT
BRANCH   1  11
ATOM      8  C   UNL     1       6.552   4.364  15.031  0.00  0.00    +0.000 A 
ATOM      9  C   UNL     1       5.193   4.046  15.030  0.00  0.00    +0.000 A 
ATOM     10  C   UNL     1       4.432   4.168  16.198  0.00  0.00    +0.000 A 
ATOM     11  C   UNL     1       5.032   4.601  17.388  0.00  0.00    +0.000 A 
ATOM     12  C   UNL     1       6.403   4.881  17.391  0.00  0.00    +0.000 A 
ATOM     13  C   UNL     1       7.157   4.772  16.217  0.00  0.00    +0.000 A 
BRANCH   8  15
ATOM     14  C   UNL     1       6.405   3.684  12.770  0.00  0.00    +0.000 C 
ATOM     15  O   UNL     1       7.196   4.200  13.835  0.00  0.00    +0.000 OA
ENDBRANCH   8  15
ENDBRANCH   1  11
BRANCH   7  16
ATOM     16  N   UNL     1       2.553   5.148  21.132  0.00  0.00    +0.000 N 
ATOM     17  H   UNL     1       3.321   4.934  21.766  0.00  0.00    +0.000 HD
ATOM     18  H   UNL     1       1.688   4.629  21.325  0.00  0.00    +0.000 HD
ENDBRANCH   7  16
BRANCH   5  19
ATOM     19  C   UNL     1       2.182   9.004  18.098  0.00  0.00    +0.000 C 
ATOM     20  N   UNL     1       1.934  10.027  17.602  0.00  0.00    +0.000 NA
ENDBRANCH   5  19
BRANCH   6  21
ATOM     21  C   UNL     1       1.072   7.876  20.821  0.00  0.00    +0.000 C 
ATOM     22  N   UNL     1       0.316   8.372  21.547  0.00  0.00    +0.000 NA
ENDBRANCH   6  21
TORSDOF 5
ENDMDL
MODEL 2
REMARK VINA RESULT:      -6.1      3.597      7.986
REMARK  Name = 
REMARK  6 active torsions:
REMARK  status: ('A' for Active; 'I' for Inactive)
REMARK    1  A    between atoms: C_1  and  O_2
REMARK    2  A    between atoms: O_2  and  C_3
REMARK    3  A    between atoms: C_6  and  C_7
REMARK    4  A    between atoms: C_11  and  C_12
REMARK    5  A    between atoms: C_14  and  C_15
REMARK    6  A    between atoms: C_17  and  N_18
REMARK                            x       y       z     vdW  Elec       q    Type
REMARK                         _______ _______ _______ _____ _____    ______ ____
ROOT
ATOM      1  C   UNL     1       1.863   8.152  19.531  0.00  0.00    +0.000 C 
ATOM      2  O   UNL     1       2.197   8.763  18.514  0.00  0.00    +0.000 OA
ATOM      3  N   UNL     1       2.215   6.779  19.609  0.00  0.00    +0.000 N 
ATOM      4  N   UNL     1       1.792   6.019  20.664  0.00  0.00    +0.000 NA
ATOM      5  C   UNL     1       2.234   4.786  20.394  0.00  0.00    +0.000 A 
ATOM      6  C   UNL     1       2.934   4.719  19.184  0.00  0.00    +0.000 A 
ATOM      7  C   UNL     1       2.947   6.008  18.694  0.00  0.00    +0.000 A 
ENDROOT
BRANCH   1  11
ATOM      8  C   UNL     1      -0.362  10.346  22.496  0.00  0.00    +0.000 A 
ATOM      9  C   UNL     1      -0.552  10.585  21.134  0.00  0.00    +0.000 A 
ATOM     10  C   UNL     1       0.168   9.862  20.176  0.00  0.00    +0.000 A 
ATOM     11  C   UNL     1       1.100   8.896  20.577  0.00  0.00    +0.000 A 
ATOM     12  C   UNL     1       1.315   8.689  21.944  0.00  0.00    +0.000 A 
ATOM     13  C   UNL     1       0.581   9.403  22.898  0.00  0.00    +0.000 A 
BRANCH   8  15
ATOM     14  C   UNL     1      -1.349  12.454  22.915  0.00  0.00    +0.000 C 
ATOM     15  O   UNL     1      -1.115  11.116  23.340  0.00  0.00    +0.000 OA
ENDBRANCH   8  15
ENDBRANCH   1  11
BRANCH   7  16
ATOM     16  N   UNL     1       3.513   6.521  17.578  0.00  0.00    +0.000 N 
ATOM     17  H   UNL     1       3.496   6.070  16.664  0.00  0.00    +0.000 HD
ATOM     18  H   UNL     1       4.002   7.425  17.595  0.00  0.00    +0.000 HD
ENDBRANCH   7  16
BRANCH   5  19
ATOM     19  C   UNL     1       1.963   3.728  21.319  0.00  0.00    +0.000 C 
ATOM     20  N   UNL     1       1.756   2.858  22.065  0.00  0.00    +0.000 NA
ENDBRANCH   5  19
BRANCH   6  21
ATOM     21  C   UNL     1       3.514   3.568  18.583  0.00  0.00    +0.000 C 
ATOM     22  N   UNL     1       3.974   2.626  18.087  0.00  0.00    +0.000 NA
ENDBRANCH   6  21
TORSDOF 5
ENDMDL
MODEL 3
REMARK VINA RESULT:      -6.1      2.756      4.181
REMARK  Name = 
REMARK  6 active torsions:
REMARK  status: ('A' for Active; 'I' for Inactive)
REMARK    1  A    between atoms: C_1  and  O_2
REMARK    2  A    between atoms: O_2  and  C_3
REMARK    3  A    between atoms: C_6  and  C_7
REMARK    4  A    between atoms: C_11  and  C_12
REMARK    5  A    between atoms: C_14  and  C_15
REMARK    6  A    between atoms: C_17  and  N_18
REMARK                            x       y       z     vdW  Elec       q    Type
REMARK                         _______ _______ _______ _____ _____    ______ ____
ROOT
ATOM      1  C   UNL     1       3.554   5.093  17.717  0.00  0.00    +0.000 C 
ATOM      2  O   UNL     1       2.615   5.864  17.505  0.00  0.00    +0.000 OA
ATOM      3  N   UNL     1       3.408   4.170  18.786  0.00  0.00    +0.000 N 
ATOM      4  N   UNL     1       4.447   3.354  19.136  0.00  0.00    +0.000 NA
ATOM      5  C   UNL     1       4.003   2.676  20.200  0.00  0.00    +0.000 A 
ATOM      6  C   UNL     1       2.697   3.030  20.557  0.00  0.00    +0.000 A 
ATOM      7  C   UNL     1       2.304   3.972  19.629  0.00  0.00    +0.000 A 
ENDROOT
BRANCH   1  11
ATOM      8  C   UNL     1       7.028   5.374  15.185  0.00  0.00    +0.000 A 
ATOM      9  C   UNL     1       5.948   4.563  14.835  0.00  0.00    +0.000 A 
ATOM     10  C   UNL     1       4.819   4.483  15.658  0.00  0.00    +0.000 A 
ATOM     11  C   UNL     1       4.766   5.211  16.854  0.00  0.00    +0.000 A 
ATOM     12  C   UNL     1       5.869   5.992  17.220  0.00  0.00    +0.000 A 
ATOM     13  C   UNL     1       6.988   6.081  16.385  0.00  0.00    +0.000 A 
BRANCH   8  15
ATOM     14  C   UNL     1       7.748   5.118  12.947  0.00  0.00    +0.000 C 
ATOM     15  O   UNL     1       8.078   5.368  14.309  0.00  0.00    +0.000 OA
ENDBRANCH   8  15
ENDBRANCH   1  11
BRANCH   7  16
ATOM     16  N   UNL     1       1.129   4.625  19.478  0.00  0.00    +0.000 N 
ATOM     17  H   UNL     1       0.360   4.301  18.894  0.00  0.00    +0.000 HD
ATOM     18  H   UNL     1       0.945   5.510  19.967  0.00  0.00    +0.000 HD
ENDBRANCH   7  16
BRANCH   5  19
ATOM     19  C   UNL     1       4.859   1.711  20.822  0.00  0.00    +0.000 C 
ATOM     20  N   UNL     1       5.557   0.938  21.341  0.00  0.00    +0.000 NA
ENDBRANCH   5  19
BRANCH   6  21
ATOM     21  C   UNL     1       1.931   2.530  21.645  0.00  0.00    +0.000 C 
ATOM     22  N   UNL     1       1.313   2.129  22.541  0.00  0.00    +0.000 NA
ENDBRANCH   6  21
TORSDOF 5
ENDMDL
MODEL 4
REMARK VINA RESULT:      -6.1      2.953      4.893
REMARK  Name = 
REMARK  6 active torsions:
REMARK  status: ('A' for Active; 'I' for Inactive)
REMARK    1  A    between atoms: C_1  and  O_2
REMARK    2  A    between atoms: O_2  and  C_3
REMARK    3  A    between atoms: C_6  and  C_7
REMARK    4  A    between atoms: C_11  and  C_12
REMARK    5  A    between atoms: C_14  and  C_15
REMARK    6  A    between atoms: C_17  and  N_18
REMARK                            x       y       z     vdW  Elec       q    Type
REMARK                         _______ _______ _______ _____ _____    ______ ____
ROOT
ATOM      1  C   UNL     1       2.138   8.148  18.423  0.00  0.00    +0.000 C 
ATOM      2  O   UNL     1       2.176   8.552  17.259  0.00  0.00    +0.000 OA
ATOM      3  N   UNL     1       1.416   8.934  19.360  0.00  0.00    +0.000 N 
ATOM      4  N   UNL     1       1.414   8.597  20.685  0.00  0.00    +0.000 NA
ATOM      5  C   UNL     1       0.710   9.565  21.281  0.00  0.00    +0.000 A 
ATOM      6  C   UNL     1       0.252  10.531  20.378  0.00  0.00    +0.000 A 
ATOM      7  C   UNL     1       0.682  10.109  19.138  0.00  0.00    +0.000 A 
ENDROOT
BRANCH   1  11
ATOM      8  C   UNL     1       4.292   4.527  19.316  0.00  0.00    +0.000 A 
ATOM      9  C   UNL     1       4.765   5.426  18.358  0.00  0.00    +0.000 A 
ATOM     10  C   UNL     1       4.064   6.604  18.080  0.00  0.00    +0.000 A 
ATOM     11  C   UNL     1       2.869   6.890  18.753  0.00  0.00    +0.000 A 
ATOM     12  C   UNL     1       2.380   5.966  19.684  0.00  0.00    +0.000 A 
ATOM     13  C   UNL     1       3.092   4.796  19.971  0.00  0.00    +0.000 A 
BRANCH   8  15
ATOM     14  C   UNL     1       4.372   2.269  20.016  0.00  0.00    +0.000 C 
ATOM     15  O   UNL     1       5.055   3.406  19.499  0.00  0.00    +0.000 OA
ENDBRANCH   8  15
ENDBRANCH   1  11
BRANCH   7  16
ATOM     16  N   UNL     1       0.492  10.644  17.910  0.00  0.00    +0.000 N 
ATOM     17  H   UNL     1       0.270  11.623  17.736  0.00  0.00    +0.000 HD
ATOM     18  H   UNL     1       0.571  10.071  17.060  0.00  0.00    +0.000 HD
ENDBRANCH   7  16
BRANCH   5  19
ATOM     19  C   UNL     1       0.507   9.511  22.697  0.00  0.00    +0.000 C 
ATOM     20  N   UNL     1       0.336   9.484  23.848  0.00  0.00    +0.000 NA
ENDBRANCH   5  19
BRANCH   6  21
ATOM     21  C   UNL     1      -0.499  11.703  20.671  0.00  0.00    +0.000 C 
ATOM     22  N   UNL     1      -1.103  12.665  20.903  0.00  0.00    +0.000 NA
ENDBRANCH   6  21
TORSDOF 5
ENDMDL
MODEL 5
REMARK VINA RESULT:      -6.1      3.630      7.817
REMARK  Name = 
REMARK  6 active torsions:
REMARK  status: ('A' for Active; 'I' for Inactive)
REMARK    1  A    between atoms: C_1  and  O_2
REMARK    2  A    between atoms: O_2  and  C_3
REMARK    3  A    between atoms: C_6  and  C_7
REMARK    4  A    between atoms: C_11  and  C_12
REMARK    5  A    between atoms: C_14  and  C_15
REMARK    6  A    between atoms: C_17  and  N_18
REMARK                            x       y       z     vdW  Elec       q    Type
REMARK                         _______ _______ _______ _____ _____    ______ ____
ROOT
ATOM      1  C   UNL     1       2.086   7.750  19.284  0.00  0.00    +0.000 C 
ATOM      2  O   UNL     1       2.497   8.273  18.246  0.00  0.00    +0.000 OA
ATOM      3  N   UNL     1       2.299   6.354  19.435  0.00  0.00    +0.000 N 
ATOM      4  N   UNL     1       1.786   5.692  20.516  0.00  0.00    +0.000 NA
ATOM      5  C   UNL     1       2.107   4.410  20.313  0.00  0.00    +0.000 A 
ATOM      6  C   UNL     1       2.817   4.214  19.124  0.00  0.00    +0.000 A 
ATOM      7  C   UNL     1       2.966   5.470  18.573  0.00  0.00    +0.000 A 
ENDROOT
BRANCH   1  11
ATOM      8  C   UNL     1       0.084  10.202  22.204  0.00  0.00    +0.000 A 
ATOM      9  C   UNL     1       0.980   9.207  22.596  0.00  0.00    +0.000 A 
ATOM     10  C   UNL     1       1.633   8.420  21.641  0.00  0.00    +0.000 A 
ATOM     11  C   UNL     1       1.384   8.615  20.277  0.00  0.00    +0.000 A 
ATOM     12  C   UNL     1       0.455   9.588  19.891  0.00  0.00    +0.000 A 
ATOM     13  C   UNL     1      -0.184  10.384  20.849  0.00  0.00    +0.000 A 
BRANCH   8  15
ATOM     14  C   UNL     1      -1.651  11.665  22.871  0.00  0.00    +0.000 C 
ATOM     15  O   UNL     1      -0.500  10.904  23.222  0.00  0.00    +0.000 OA
ENDBRANCH   8  15
ENDBRANCH   1  11
BRANCH   7  16
ATOM     16  N   UNL     1       3.599   5.869  17.446  0.00  0.00    +0.000 N 
ATOM     17  H   UNL     1       3.687   6.839  17.147  0.00  0.00    +0.000 HD
ATOM     18  H   UNL     1       4.044   5.191  16.815  0.00  0.00    +0.000 HD
ENDBRANCH   7  16
BRANCH   5  19
ATOM     19  C   UNL     1       1.717   3.430  21.282  0.00  0.00    +0.000 C 
ATOM     20  N   UNL     1       1.416   2.634  22.075  0.00  0.00    +0.000 NA
ENDBRANCH   5  19
BRANCH   6  21
ATOM     21  C   UNL     1       3.289   2.984  18.590  0.00  0.00    +0.000 C 
ATOM     22  N   UNL     1       3.686   1.983  18.160  0.00  0.00    +0.000 NA
ENDBRANCH   6  21
TORSDOF 5
ENDMDL
MODEL 6
REMARK VINA RESULT:      -6.1      3.485      7.491
REMARK  Name = 
REMARK  6 active torsions:
REMARK  status: ('A' for Active; 'I' for Inactive)
REMARK    1  A    between atoms: C_1  and  O_2
REMARK    2  A    between atoms: O_2  and  C_3
REMARK    3  A    between atoms: C_6  and  C_7
REMARK    4  A    between atoms: C_11  and  C_12
REMARK    5  A    between atoms: C_14  and  C_15
REMARK    6  A    between atoms: C_17  and  N_18
REMARK                            x       y       z     vdW  Elec       q    Type
REMARK                         _______ _______ _______ _____ _____    ______ ____
ROOT
ATOM      1  C   UNL     1       2.385   7.258  18.929  0.00  0.00    +0.000 C 
ATOM      2  O   UNL     1       2.824   7.651  17.846  0.00  0.00    +0.000 OA
ATOM      3  N   UNL     1       2.522   5.875  19.222  0.00  0.00    +0.000 N 
ATOM      4  N   UNL     1       1.974   5.355  20.361  0.00  0.00    +0.000 NA
ATOM      5  C   UNL     1       2.225   4.044  20.292  0.00  0.00    +0.000 A 
ATOM      6  C   UNL     1       2.925   3.691  19.132  0.00  0.00    +0.000 A 
ATOM      7  C   UNL     1       3.141   4.874  18.458  0.00  0.00    +0.000 A 
ENDROOT
BRANCH   1  11
ATOM      8  C   UNL     1       0.498  10.190  21.458  0.00  0.00    +0.000 A 
ATOM      9  C   UNL     1       0.655  10.417  20.090  0.00  0.00    +0.000 A 
ATOM     10  C   UNL     1       1.262   9.456  19.273  0.00  0.00    +0.000 A 
ATOM     11  C   UNL     1       1.730   8.256  19.825  0.00  0.00    +0.000 A 
ATOM     12  C   UNL     1       1.605   8.051  21.204  0.00  0.00    +0.000 A 
ATOM     13  C   UNL     1       0.983   9.008  22.014  0.00  0.00    +0.000 A 
BRANCH   8  15
ATOM     14  C   UNL     1      -1.099  10.802  23.092  0.00  0.00    +0.000 C 
ATOM     15  O   UNL     1      -0.102  11.201  22.158  0.00  0.00    +0.000 OA
ENDBRANCH   8  15
ENDBRANCH   1  11
BRANCH   7  16
ATOM     16  N   UNL     1       3.796   5.122  17.301  0.00  0.00    +0.000 N 
ATOM     17  H   UNL     1       3.680   5.968  16.743  0.00  0.00    +0.000 HD
ATOM     18  H   UNL     1       4.470   4.450  16.914  0.00  0.00    +0.000 HD
ENDBRANCH   7  16
BRANCH   5  19
ATOM     19  C   UNL     1       1.782   3.190  21.352  0.00  0.00    +0.000 C 
ATOM     20  N   UNL     1       1.409   2.507  22.218  0.00  0.00    +0.000 NA
ENDBRANCH   5  19
BRANCH   6  21
ATOM     21  C   UNL     1       3.331   2.389  18.729  0.00  0.00    +0.000 C 
ATOM     22  N   UNL     1       3.660   1.331  18.387  0.00  0.00    +0.000 NA
ENDBRANCH   6  21
TORSDOF 5
ENDMDL
MODEL 7
REMARK VINA RESULT:      -6.0      0.685      1.252
REMARK  Name = 
REMARK  6 active torsions:
REMARK  status: ('A' for Active; 'I' for Inactive)
REMARK    1  A    between atoms: C_1  and  O_2
REMARK    2  A    between atoms: O_2  and  C_3
REMARK    3  A    between atoms: C_6  and  C_7
REMARK    4  A    between atoms: C_11  and  C_12
REMARK    5  A    between atoms: C_14  and  C_15
REMARK    6  A    between atoms: C_17  and  N_18
REMARK                            x       y       z     vdW  Elec       q    Type
REMARK                         _______ _______ _______ _____ _____    ______ ____
ROOT
ATOM      1  C   UNL     1       4.102   5.068  18.813  0.00  0.00    +0.000 C 
ATOM      2  O   UNL     1       4.072   4.063  19.526  0.00  0.00    +0.000 OA
ATOM      3  N   UNL     1       3.246   6.143  19.170  0.00  0.00    +0.000 N 
ATOM      4  N   UNL     1       3.159   7.248  18.370  0.00  0.00    +0.000 NA
ATOM      5  C   UNL     1       2.233   8.017  18.952  0.00  0.00    +0.000 A 
ATOM      6  C   UNL     1       1.708   7.441  20.115  0.00  0.00    +0.000 A 
ATOM      7  C   UNL     1       2.382   6.248  20.270  0.00  0.00    +0.000 A 
ENDROOT
BRANCH   1  11
ATOM      8  C   UNL     1       6.768   5.105  15.430  0.00  0.00    +0.000 A 
ATOM      9  C   UNL     1       7.085   5.795  16.602  0.00  0.00    +0.000 A 
ATOM     10  C   UNL     1       6.218   5.772  17.699  0.00  0.00    +0.000 A 
ATOM     11  C   UNL     1       5.012   5.062  17.630  0.00  0.00    +0.000 A 
ATOM     12  C   UNL     1       4.682   4.405  16.439  0.00  0.00    +0.000 A 
ATOM     13  C   UNL     1       5.559   4.418  15.349  0.00  0.00    +0.000 A 
BRANCH   8  15
ATOM     14  C   UNL     1       7.255   4.751  13.143  0.00  0.00    +0.000 C 
ATOM     15  O   UNL     1       7.686   5.205  14.421  0.00  0.00    +0.000 OA
ENDBRANCH   8  15
ENDBRANCH   1  11
BRANCH   7  16
ATOM     16  N   UNL     1       2.298   5.308  21.240  0.00  0.00    +0.000 N 
ATOM     17  H   UNL     1       2.702   4.375  21.174  0.00  0.00    +0.000 HD
ATOM     18  H   UNL     1       1.810   5.496  22.124  0.00  0.00    +0.000 HD
ENDBRANCH   7  16
BRANCH   5  19
ATOM     19  C   UNL     1       1.898   9.278  18.361  0.00  0.00    +0.000 C 
ATOM     20  N   UNL     1       1.644  10.305  17.876  0.00  0.00    +0.000 NA
ENDBRANCH   5  19
BRANCH   6  21
ATOM     21  C   UNL     1       0.695   7.969  20.961  0.00  0.00    +0.000 C 
ATOM     22  N   UNL     1      -0.134   8.387  21.656  0.00  0.00    +0.000 NA
ENDBRANCH   6  21
TORSDOF 5
ENDMDL
MODEL 8
REMARK VINA RESULT:      -6.0      2.768      4.282
REMARK  Name = 
REMARK  6 active torsions:
REMARK  status: ('A' for Active; 'I' for Inactive)
REMARK    1  A    between atoms: C_1  and  O_2
REMARK    2  A    between atoms: O_2  and  C_3
REMARK    3  A    between atoms: C_6  and  C_7
REMARK    4  A    between atoms: C_11  and  C_12
REMARK    5  A    between atoms: C_14  and  C_15
REMARK    6  A    between atoms: C_17  and  N_18
REMARK                            x       y       z     vdW  Elec       q    Type
REMARK                         _______ _______ _______ _____ _____    ______ ____
ROOT
ATOM      1  C   UNL     1       3.549   5.033  17.599  0.00  0.00    +0.000 C 
ATOM      2  O   UNL     1       2.628   5.827  17.398  0.00  0.00    +0.000 OA
ATOM      3  N   UNL     1       3.411   4.145  18.699  0.00  0.00    +0.000 N 
ATOM      4  N   UNL     1       4.436   3.305  19.037  0.00  0.00    +0.000 NA
ATOM      5  C   UNL     1       4.008   2.672  20.134  0.00  0.00    +0.000 A 
ATOM      6  C   UNL     1       2.727   3.078  20.525  0.00  0.00    +0.000 A 
ATOM      7  C   UNL     1       2.332   4.006  19.584  0.00  0.00    +0.000 A 
ENDROOT
BRANCH   1  11
ATOM      8  C   UNL     1       6.986   5.254  15.014  0.00  0.00    +0.000 A 
ATOM      9  C   UNL     1       6.859   6.105  16.112  0.00  0.00    +0.000 A 
ATOM     10  C   UNL     1       5.743   6.022  16.952  0.00  0.00    +0.000 A 
ATOM     11  C   UNL     1       4.733   5.087  16.692  0.00  0.00    +0.000 A 
ATOM     12  C   UNL     1       4.848   4.263  15.567  0.00  0.00    +0.000 A 
ATOM     13  C   UNL     1       5.973   4.339  14.738  0.00  0.00    +0.000 A 
BRANCH   8  15
ATOM     14  C   UNL     1       7.943   5.312  12.851  0.00  0.00    +0.000 C 
ATOM     15  O   UNL     1       8.114   5.430  14.259  0.00  0.00    +0.000 OA
ENDBRANCH   8  15
ENDBRANCH   1  11
BRANCH   7  16
ATOM     16  N   UNL     1       1.174   4.693  19.456  0.00  0.00    +0.000 N 
ATOM     17  H   UNL     1       0.299   4.439  19.913  0.00  0.00    +0.000 HD
ATOM     18  H   UNL     1       1.117   5.538  18.874  0.00  0.00    +0.000 HD
ENDBRANCH   7  16
BRANCH   5  19
ATOM     19  C   UNL     1       4.854   1.697  20.754  0.00  0.00    +0.000 C 
ATOM     20  N   UNL     1       5.544   0.916  21.272  0.00  0.00    +0.000 NA
ENDBRANCH   5  19
BRANCH   6  21
ATOM     21  C   UNL     1       1.984   2.633  21.653  0.00  0.00    +0.000 C 
ATOM     22  N   UNL     1       1.379   2.282  22.578  0.00  0.00    +0.000 NA
ENDBRANCH   6  21
TORSDOF 5
ENDMDL
MODEL 9
REMARK VINA RESULT:      -5.9      3.249      6.904
REMARK  Name = 
REMARK  6 active torsions:
REMARK  status: ('A' for Active; 'I' for Inactive)
REMARK    1  A    between atoms: C_1  and  O_2
REMARK    2  A    between atoms: O_2  and  C_3
REMARK    3  A    between atoms: C_6  and  C_7
REMARK    4  A    between atoms: C_11  and  C_12
REMARK    5  A    between atoms: C_14  and  C_15
REMARK    6  A    between atoms: C_17  and  N_18
REMARK                            x       y       z     vdW  Elec       q    Type
REMARK                         _______ _______ _______ _____ _____    ______ ____
ROOT
ATOM      1  C   UNL     1       3.259   6.824  18.516  0.00  0.00    +0.000 C 
ATOM      2  O   UNL     1       4.063   7.056  17.610  0.00  0.00    +0.000 OA
ATOM      3  N   UNL     1       3.356   5.564  19.163  0.00  0.00    +0.000 N 
ATOM      4  N   UNL     1       2.437   5.204  20.109  0.00  0.00    +0.000 NA
ATOM      5  C   UNL     1       2.776   3.958  20.455  0.00  0.00    +0.000 A 
ATOM      6  C   UNL     1       3.895   3.490  19.757  0.00  0.00    +0.000 A 
ATOM      7  C   UNL     1       4.285   4.535  18.946  0.00  0.00    +0.000 A 
ENDROOT
BRANCH   1  11
ATOM      8  C   UNL     1       0.343   9.874  19.378  0.00  0.00    +0.000 A 
ATOM      9  C   UNL     1       0.824   9.688  18.082  0.00  0.00    +0.000 A 
ATOM     10  C   UNL     1       1.766   8.689  17.808  0.00  0.00    +0.000 A 
ATOM     11  C   UNL     1       2.245   7.871  18.839  0.00  0.00    +0.000 A 
ATOM     12  C   UNL     1       1.788   8.089  20.144  0.00  0.00    +0.000 A 
ATOM     13  C   UNL     1       0.835   9.078  20.410  0.00  0.00    +0.000 A 
BRANCH   8  15
ATOM     14  C   UNL     1      -0.650  11.456  20.830  0.00  0.00    +0.000 C 
ATOM     15  O   UNL     1      -0.568  10.884  19.529  0.00  0.00    +0.000 OA
ENDBRANCH   8  15
ENDBRANCH   1  11
BRANCH   7  16
ATOM     16  N   UNL     1       5.325   4.644  18.088  0.00  0.00    +0.000 N 
ATOM     17  H   UNL     1       5.235   4.657  17.073  0.00  0.00    +0.000 HD
ATOM     18  H   UNL     1       6.291   4.728  18.428  0.00  0.00    +0.000 HD
ENDBRANCH   7  16
BRANCH   5  19
ATOM     19  C   UNL     1       2.005   3.275  21.451  0.00  0.00    +0.000 C 
ATOM     20  N   UNL     1       1.375   2.735  22.267  0.00  0.00    +0.000 NA
ENDBRANCH   5  19
BRANCH   6  21
ATOM     21  C   UNL     1       4.505   2.210  19.858  0.00  0.00    +0.000 C 
ATOM     22  N   UNL     1       5.014   1.171  19.932  0.00  0.00    +0.000 NA
ENDBRANCH   6  21
TORSDOF 5
ENDMDL
