MODEL 1
REMARK VINA RESULT:      -8.3      0.000      0.000
REMARK  Name = 
REMARK  9 active torsions:
REMARK  status: ('A' for Active; 'I' for Inactive)
REMARK    1  A    between atoms: C_1  and  C_2
REMARK    2  A    between atoms: C_2  and  C_3
REMARK    3  A    between atoms: C_2  and  C_4
REMARK    4  A    between atoms: C_10  and  O_11
REMARK    5  A    between atoms: O_11  and  C_12
REMARK    6  A    between atoms: N_16  and  C_17
REMARK    7  A    between atoms: N_21  and  C_22
REMARK    8  A    between atoms: C_22  and  C_23
REMARK    9  A    between atoms: C_25  and  C_26
REMARK                            x       y       z     vdW  Elec       q    Type
REMARK                         _______ _______ _______ _____ _____    ______ ____
ROOT
ATOM      1  C   UNL     1      -1.002  10.675  22.534  0.00  0.00    +0.000 A 
ATOM      2  C   UNL     1      -0.568   9.741  21.618  0.00  0.00    +0.000 A 
ATOM      3  C   UNL     1       0.345   8.912  22.312  0.00  0.00    +0.000 A 
ATOM      4  N   UNL     1       1.197   8.012  21.752  0.00  0.00    +0.000 N 
ATOM      5  C   UNL     1       1.714   8.027  20.434  0.00  0.00    +0.000 A 
ATOM      6  C   UNL     1       2.537   7.010  19.990  0.00  0.00    +0.000 A 
ATOM      7  C   UNL     1       2.878   7.037  18.653  0.00  0.00    +0.000 A 
ATOM      8  N   UNL     1       2.436   7.967  17.798  0.00  0.00    +0.000 NA
ATOM      9  C   UNL     1       1.715   8.952  18.320  0.00  0.00    +0.000 A 
ATOM     10  N   UNL     1       1.380   9.969  17.468  0.00  0.00    +0.000 N 
ATOM     11  N   UNL     1       1.342   9.007  19.596  0.00  0.00    +0.000 NA
ATOM     12  N   UNL     1       0.295   9.159  23.626  0.00  0.00    +0.000 NA
ATOM     13  N   UNL     1      -0.544  10.209  23.737  0.00  0.00    +0.000 N 
ATOM     14  H   UNL     1       1.864   7.636  22.416  0.00  0.00    +0.000 HD
ATOM     15  H   UNL     1       0.967   9.599  16.624  0.00  0.00    +0.000 HD
ATOM     16  H   UNL     1      -0.706  10.597  24.660  0.00  0.00    +0.000 HD
ENDROOT
BRANCH   1  18
ATOM     17  C   UNL     1      -2.893  12.196  23.247  0.00  0.00    +0.000 C 
ATOM     18  C   UNL     1      -1.702  11.982  22.321  0.00  0.00    +0.000 C 
ATOM     19  C   UNL     1      -0.709  13.144  22.413  0.00  0.00    +0.000 C 
ENDBRANCH   1  18
BRANCH   7  20
ATOM     20  O   UNL     1       3.782   6.094  18.194  0.00  0.00    +0.000 OA
BRANCH  20  21
ATOM     21  C   UNL     1       4.600   6.544  17.091  0.00  0.00    +0.000 C 
ATOM     22  C   UNL     1       4.741   5.388  16.099  0.00  0.00    +0.000 C 
ATOM     23  C   UNL     1       5.551   4.255  16.713  0.00  0.00    +0.000 C 
ATOM     24  C   UNL     1       6.939   4.693  17.174  0.00  0.00    +0.000 C 
ATOM     25  N   UNL     1       7.053   6.033  17.710  0.00  0.00    +0.000 NA
ATOM     26  C   UNL     1       7.875   6.189  18.889  0.00  0.00    +0.000 C 
ATOM     27  C   UNL     1       6.008   7.030  17.506  0.00  0.00    +0.000 C 
ENDBRANCH  20  21
ENDBRANCH   7  20
BRANCH  10  28
ATOM     28  C   UNL     1       0.777  11.168  18.016  0.00  0.00    +0.000 C 
BRANCH  28  29
ATOM     29  C   UNL     1      -0.697  11.024  18.023  0.00  0.00    +0.000 A 
ATOM     30  C   UNL     1      -1.683  11.753  18.632  0.00  0.00    +0.000 A 
ATOM     31  C   UNL     1      -2.890  11.157  18.204  0.00  0.00    +0.000 A 
ATOM     32  N   UNL     1      -2.635  10.110  17.399  0.00  0.00    +0.000 NA
ATOM     33  O   UNL     1      -1.256  10.036  17.282  0.00  0.00    +0.000 OA
BRANCH  31  34
ATOM     34  C   UNL     1      -4.247  11.557  18.570  0.00  0.00    +0.000 A 
ATOM     35  C   UNL     1      -4.465  12.443  19.641  0.00  0.00    +0.000 A 
ATOM     36  C   UNL     1      -5.761  12.784  20.025  0.00  0.00    +0.000 A 
ATOM     37  C   UNL     1      -6.850  12.244  19.344  0.00  0.00    +0.000 A 
ATOM     38  C   UNL     1      -6.647  11.373  18.275  0.00  0.00    +0.000 A 
ATOM     39  C   UNL     1      -5.350  11.034  17.887  0.00  0.00    +0.000 A 
ENDBRANCH  31  34
ENDBRANCH  28  29
ENDBRANCH  10  28
TORSDOF 6
ENDMDL
MODEL 2
REMARK VINA RESULT:      -8.0      1.419      1.918
REMARK  Name = 
REMARK  9 active torsions:
REMARK  status: ('A' for Active; 'I' for Inactive)
REMARK    1  A    between atoms: C_1  and  C_2
REMARK    2  A    between atoms: C_2  and  C_3
REMARK    3  A    between atoms: C_2  and  C_4
REMARK    4  A    between atoms: C_10  and  O_11
REMARK    5  A    between atoms: O_11  and  C_12
REMARK    6  A    between atoms: N_16  and  C_17
REMARK    7  A    between atoms: N_21  and  C_22
REMARK    8  A    between atoms: C_22  and  C_23
REMARK    9  A    between atoms: C_25  and  C_26
REMARK                            x       y       z     vdW  Elec       q    Type
REMARK                         _______ _______ _______ _____ _____    ______ ____
ROOT
ATOM      1  C   UNL     1      -1.202  10.925  22.695  0.00  0.00    +0.000 A 
ATOM      2  C   UNL     1      -0.788   9.990  21.771  0.00  0.00    +0.000 A 
ATOM      3  C   UNL     1       0.165   9.183  22.436  0.00  0.00    +0.000 A 
ATOM      4  N   UNL     1       1.010   8.292  21.852  0.00  0.00    +0.000 N 
ATOM      5  C   UNL     1       1.475   8.303  20.515  0.00  0.00    +0.000 A 
ATOM      6  C   UNL     1       2.297   7.296  20.048  0.00  0.00    +0.000 A 
ATOM      7  C   UNL     1       2.585   7.315  18.699  0.00  0.00    +0.000 A 
ATOM      8  N   UNL     1       2.096   8.230  17.854  0.00  0.00    +0.000 NA
ATOM      9  C   UNL     1       1.378   9.208  18.395  0.00  0.00    +0.000 A 
ATOM     10  N   UNL     1       0.993  10.211  17.547  0.00  0.00    +0.000 N 
ATOM     11  N   UNL     1       1.055   9.269  19.683  0.00  0.00    +0.000 NA
ATOM     12  N   UNL     1       0.162   9.442  23.749  0.00  0.00    +0.000 NA
ATOM     13  N   UNL     1      -0.690  10.479  23.883  0.00  0.00    +0.000 N 
ATOM     14  H   UNL     1       1.708   7.933  22.493  0.00  0.00    +0.000 HD
ATOM     15  H   UNL     1       0.554   9.826  16.723  0.00  0.00    +0.000 HD
ATOM     16  H   UNL     1      -0.823  10.873  24.809  0.00  0.00    +0.000 HD
ENDROOT
BRANCH   1  18
ATOM     17  C   UNL     1      -3.234  12.313  23.285  0.00  0.00    +0.000 C 
ATOM     18  C   UNL     1      -1.932  12.219  22.498  0.00  0.00    +0.000 C 
ATOM     19  C   UNL     1      -1.012  13.406  22.800  0.00  0.00    +0.000 C 
ENDBRANCH   1  18
BRANCH   7  20
ATOM     20  O   UNL     1       3.487   6.384  18.214  0.00  0.00    +0.000 OA
BRANCH  20  21
ATOM     21  C   UNL     1       3.968   5.450  19.206  0.00  0.00    +0.000 C 
ATOM     22  C   UNL     1       5.253   4.811  18.676  0.00  0.00    +0.000 C 
ATOM     23  C   UNL     1       4.954   3.934  17.468  0.00  0.00    +0.000 C 
ATOM     24  C   UNL     1       3.932   2.838  17.763  0.00  0.00    +0.000 C 
ATOM     25  N   UNL     1       2.874   3.169  18.694  0.00  0.00    +0.000 NA
ATOM     26  C   UNL     1       1.545   2.715  18.350  0.00  0.00    +0.000 C 
ATOM     27  C   UNL     1       2.959   4.335  19.567  0.00  0.00    +0.000 C 
ENDBRANCH  20  21
ENDBRANCH   7  20
BRANCH  10  28
ATOM     28  C   UNL     1       0.393  11.405  18.107  0.00  0.00    +0.000 C 
BRANCH  28  29
ATOM     29  C   UNL     1      -1.083  11.276  18.083  0.00  0.00    +0.000 A 
ATOM     30  C   UNL     1      -2.067  11.908  18.796  0.00  0.00    +0.000 A 
ATOM     31  C   UNL     1      -3.275  11.399  18.273  0.00  0.00    +0.000 A 
ATOM     32  N   UNL     1      -3.024  10.492  17.312  0.00  0.00    +0.000 NA
ATOM     33  O   UNL     1      -1.645  10.424  17.192  0.00  0.00    +0.000 OA
BRANCH  31  34
ATOM     34  C   UNL     1      -4.632  11.749  18.691  0.00  0.00    +0.000 A 
ATOM     35  C   UNL     1      -4.846  12.498  19.862  0.00  0.00    +0.000 A 
ATOM     36  C   UNL     1      -6.140  12.787  20.291  0.00  0.00    +0.000 A 
ATOM     37  C   UNL     1      -7.232  12.331  19.555  0.00  0.00    +0.000 A 
ATOM     38  C   UNL     1      -7.033  11.597  18.387  0.00  0.00    +0.000 A 
ATOM     39  C   UNL     1      -5.737  11.310  17.955  0.00  0.00    +0.000 A 
ENDBRANCH  31  34
ENDBRANCH  28  29
ENDBRANCH  10  28
TORSDOF 6
ENDMDL
MODEL 3
REMARK VINA RESULT:      -7.9      3.215      9.931
REMARK  Name = 
REMARK  9 active torsions:
REMARK  status: ('A' for Active; 'I' for Inactive)
REMARK    1  A    between atoms: C_1  and  C_2
REMARK    2  A    between atoms: C_2  and  C_3
REMARK    3  A    between atoms: C_2  and  C_4
REMARK    4  A    between atoms: C_10  and  O_11
REMARK    5  A    between atoms: O_11  and  C_12
REMARK    6  A    between atoms: N_16  and  C_17
REMARK    7  A    between atoms: N_21  and  C_22
REMARK    8  A    between atoms: C_22  and  C_23
REMARK    9  A    between atoms: C_25  and  C_26
REMARK                            x       y       z     vdW  Elec       q    Type
REMARK                         _______ _______ _______ _____ _____    ______ ____
ROOT
ATOM      1  C   UNL     1      -3.988  10.596  16.888  0.00  0.00    +0.000 A 
ATOM      2  C   UNL     1      -3.646  10.846  18.199  0.00  0.00    +0.000 A 
ATOM      3  C   UNL     1      -4.393  11.984  18.585  0.00  0.00    +0.000 A 
ATOM      4  N   UNL     1      -4.201  12.729  19.706  0.00  0.00    +0.000 N 
ATOM      5  C   UNL     1      -3.003  12.864  20.449  0.00  0.00    +0.000 A 
ATOM      6  C   UNL     1      -2.973  13.623  21.603  0.00  0.00    +0.000 A 
ATOM      7  C   UNL     1      -1.803  13.583  22.332  0.00  0.00    +0.000 A 
ATOM      8  N   UNL     1      -0.742  12.845  21.985  0.00  0.00    +0.000 NA
ATOM      9  C   UNL     1      -0.823  12.208  20.823  0.00  0.00    +0.000 A 
ATOM     10  N   UNL     1       0.312  11.564  20.410  0.00  0.00    +0.000 N 
ATOM     11  N   UNL     1      -1.910  12.192  20.056  0.00  0.00    +0.000 NA
ATOM     12  N   UNL     1      -5.318  12.271  17.661  0.00  0.00    +0.000 NA
ATOM     13  N   UNL     1      -5.069  11.404  16.659  0.00  0.00    +0.000 N 
ATOM     14  H   UNL     1      -4.748  13.582  19.711  0.00  0.00    +0.000 HD
ATOM     15  H   UNL     1       0.669  10.971  21.146  0.00  0.00    +0.000 HD
ATOM     16  H   UNL     1      -5.638  11.465  15.821  0.00  0.00    +0.000 HD
ENDROOT
BRANCH   1  18
ATOM     17  C   UNL     1      -3.407  10.308  14.443  0.00  0.00    +0.000 C 
ATOM     18  C   UNL     1      -3.305   9.750  15.857  0.00  0.00    +0.000 C 
ATOM     19  C   UNL     1      -1.847   9.496  16.251  0.00  0.00    +0.000 C 
ENDBRANCH   1  18
BRANCH   7  20
ATOM     20  O   UNL     1      -1.698  14.409  23.439  0.00  0.00    +0.000 OA
BRANCH  20  21
ATOM     21  C   UNL     1      -1.498  15.805  23.121  0.00  0.00    +0.000 C 
ATOM     22  C   UNL     1      -0.367  16.337  24.003  0.00  0.00    +0.000 C 
ATOM     23  C   UNL     1      -0.793  16.354  25.464  0.00  0.00    +0.000 C 
ATOM     24  C   UNL     1      -2.053  17.181  25.710  0.00  0.00    +0.000 C 
ATOM     25  N   UNL     1      -3.056  17.164  24.667  0.00  0.00    +0.000 NA
ATOM     26  C   UNL     1      -4.432  17.059  25.097  0.00  0.00    +0.000 C 
ATOM     27  C   UNL     1      -2.754  16.684  23.322  0.00  0.00    +0.000 C 
ENDBRANCH  20  21
ENDBRANCH   7  20
BRANCH  10  28
ATOM     28  C   UNL     1       0.359  11.029  19.064  0.00  0.00    +0.000 C 
BRANCH  28  29
ATOM     29  C   UNL     1       1.054   9.721  19.074  0.00  0.00    +0.000 A 
ATOM     30  C   UNL     1       1.687   9.014  18.086  0.00  0.00    +0.000 A 
ATOM     31  C   UNL     1       2.206   7.872  18.734  0.00  0.00    +0.000 A 
ATOM     32  N   UNL     1       1.880   7.885  20.038  0.00  0.00    +0.000 NA
ATOM     33  O   UNL     1       1.163   9.052  20.248  0.00  0.00    +0.000 OA
BRANCH  31  34
ATOM     34  C   UNL     1       2.972   6.787  18.124  0.00  0.00    +0.000 A 
ATOM     35  C   UNL     1       4.130   7.064  17.374  0.00  0.00    +0.000 A 
ATOM     36  C   UNL     1       4.830   6.035  16.748  0.00  0.00    +0.000 A 
ATOM     37  C   UNL     1       4.382   4.721  16.863  0.00  0.00    +0.000 A 
ATOM     38  C   UNL     1       3.242   4.431  17.611  0.00  0.00    +0.000 A 
ATOM     39  C   UNL     1       2.542   5.461  18.242  0.00  0.00    +0.000 A 
ENDBRANCH  31  34
ENDBRANCH  28  29
ENDBRANCH  10  28
TORSDOF 6
ENDMDL
MODEL 4
REMARK VINA RESULT:      -7.9      3.168      9.797
REMARK  Name = 
REMARK  9 active torsions:
REMARK  status: ('A' for Active; 'I' for Inactive)
REMARK    1  A    between atoms: C_1  and  C_2
REMARK    2  A    between atoms: C_2  and  C_3
REMARK    3  A    between atoms: C_2  and  C_4
REMARK    4  A    between atoms: C_10  and  O_11
REMARK    5  A    between atoms: O_11  and  C_12
REMARK    6  A    between atoms: N_16  and  C_17
REMARK    7  A    between atoms: N_21  and  C_22
REMARK    8  A    between atoms: C_22  and  C_23
REMARK    9  A    between atoms: C_25  and  C_26
REMARK                            x       y       z     vdW  Elec       q    Type
REMARK                         _______ _______ _______ _____ _____    ______ ____
ROOT
ATOM      1  C   UNL     1      -4.031  10.658  17.004  0.00  0.00    +0.000 A 
ATOM      2  C   UNL     1      -3.728  10.828  18.337  0.00  0.00    +0.000 A 
ATOM      3  C   UNL     1      -4.508  11.924  18.776  0.00  0.00    +0.000 A 
ATOM      4  N   UNL     1      -4.359  12.596  19.949  0.00  0.00    +0.000 N 
ATOM      5  C   UNL     1      -3.184  12.704  20.730  0.00  0.00    +0.000 A 
ATOM      6  C   UNL     1      -3.199  13.386  21.932  0.00  0.00    +0.000 A 
ATOM      7  C   UNL     1      -2.047  13.320  22.689  0.00  0.00    +0.000 A 
ATOM      8  N   UNL     1      -0.963  12.626  22.323  0.00  0.00    +0.000 NA
ATOM      9  C   UNL     1      -1.002  12.065  21.120  0.00  0.00    +0.000 A 
ATOM     10  N   UNL     1       0.156  11.470  20.697  0.00  0.00    +0.000 N 
ATOM     11  N   UNL     1      -2.067  12.080  20.325  0.00  0.00    +0.000 NA
ATOM     12  N   UNL     1      -5.413  12.254  17.848  0.00  0.00    +0.000 NA
ATOM     13  N   UNL     1      -5.122  11.459  16.799  0.00  0.00    +0.000 N 
ATOM     14  H   UNL     1      -4.923  13.437  19.994  0.00  0.00    +0.000 HD
ATOM     15  H   UNL     1       0.506  10.837  21.403  0.00  0.00    +0.000 HD
ATOM     16  H   UNL     1      -5.670  11.565  15.952  0.00  0.00    +0.000 HD
ENDROOT
BRANCH   1  18
ATOM     17  C   UNL     1      -3.409  10.524  14.556  0.00  0.00    +0.000 C 
ATOM     18  C   UNL     1      -3.305   9.894  15.939  0.00  0.00    +0.000 C 
ATOM     19  C   UNL     1      -1.844   9.670  16.341  0.00  0.00    +0.000 C 
ENDBRANCH   1  18
BRANCH   7  20
ATOM     20  O   UNL     1      -1.988  14.073  23.849  0.00  0.00    +0.000 OA
BRANCH  20  21
ATOM     21  C   UNL     1      -1.011  15.139  23.816  0.00  0.00    +0.000 C 
ATOM     22  C   UNL     1      -1.013  15.829  25.182  0.00  0.00    +0.000 C 
ATOM     23  C   UNL     1      -2.332  16.552  25.412  0.00  0.00    +0.000 C 
ATOM     24  C   UNL     1      -2.647  17.581  24.329  0.00  0.00    +0.000 C 
ATOM     25  N   UNL     1      -2.229  17.256  22.981  0.00  0.00    +0.000 NA
ATOM     26  C   UNL     1      -3.167  17.559  21.924  0.00  0.00    +0.000 C 
ATOM     27  C   UNL     1      -1.265  16.194  22.715  0.00  0.00    +0.000 C 
ENDBRANCH  20  21
ENDBRANCH   7  20
BRANCH  10  28
ATOM     28  C   UNL     1       0.249  11.025  19.321  0.00  0.00    +0.000 C 
BRANCH  28  29
ATOM     29  C   UNL     1       0.962   9.728  19.265  0.00  0.00    +0.000 A 
ATOM     30  C   UNL     1       1.543   9.048  18.228  0.00  0.00    +0.000 A 
ATOM     31  C   UNL     1       2.117   7.904  18.823  0.00  0.00    +0.000 A 
ATOM     32  N   UNL     1       1.872   7.890  20.144  0.00  0.00    +0.000 NA
ATOM     33  O   UNL     1       1.152   9.042  20.419  0.00  0.00    +0.000 OA
BRANCH  31  34
ATOM     34  C   UNL     1       2.860   6.841  18.148  0.00  0.00    +0.000 A 
ATOM     35  C   UNL     1       2.436   5.503  18.244  0.00  0.00    +0.000 A 
ATOM     36  C   UNL     1       3.172   4.482  17.645  0.00  0.00    +0.000 A 
ATOM     37  C   UNL     1       4.339   4.788  16.946  0.00  0.00    +0.000 A 
ATOM     38  C   UNL     1       4.764   6.110  16.835  0.00  0.00    +0.000 A 
ATOM     39  C   UNL     1       4.025   7.134  17.431  0.00  0.00    +0.000 A 
ENDBRANCH  31  34
ENDBRANCH  28  29
ENDBRANCH  10  28
TORSDOF 6
ENDMDL
MODEL 5
REMARK VINA RESULT:      -7.8      1.669      2.111
REMARK  Name = 
REMARK  9 active torsions:
REMARK  status: ('A' for Active; 'I' for Inactive)
REMARK    1  A    between atoms: C_1  and  C_2
REMARK    2  A    between atoms: C_2  and  C_3
REMARK    3  A    between atoms: C_2  and  C_4
REMARK    4  A    between atoms: C_10  and  O_11
REMARK    5  A    between atoms: O_11  and  C_12
REMARK    6  A    between atoms: N_16  and  C_17
REMARK    7  A    between atoms: N_21  and  C_22
REMARK    8  A    between atoms: C_22  and  C_23
REMARK    9  A    between atoms: C_25  and  C_26
REMARK                            x       y       z     vdW  Elec       q    Type
REMARK                         _______ _______ _______ _____ _____    ______ ____
ROOT
ATOM      1  C   UNL     1      -1.019  10.922  22.363  0.00  0.00    +0.000 A 
ATOM      2  C   UNL     1      -0.628   9.860  21.578  0.00  0.00    +0.000 A 
ATOM      3  C   UNL     1       0.213   9.064  22.392  0.00  0.00    +0.000 A 
ATOM      4  N   UNL     1       1.015   8.051  21.968  0.00  0.00    +0.000 N 
ATOM      5  C   UNL     1       1.559   7.874  20.673  0.00  0.00    +0.000 A 
ATOM      6  C   UNL     1       2.322   6.761  20.377  0.00  0.00    +0.000 A 
ATOM      7  C   UNL     1       2.691   6.604  19.057  0.00  0.00    +0.000 A 
ATOM      8  N   UNL     1       2.331   7.451  18.085  0.00  0.00    +0.000 NA
ATOM      9  C   UNL     1       1.666   8.535  18.465  0.00  0.00    +0.000 A 
ATOM     10  N   UNL     1       1.417   9.461  17.488  0.00  0.00    +0.000 N 
ATOM     11  N   UNL     1       1.271   8.767  19.714  0.00  0.00    +0.000 NA
ATOM     12  N   UNL     1       0.152   9.471  23.665  0.00  0.00    +0.000 NA
ATOM     13  N   UNL     1      -0.618  10.577  23.626  0.00  0.00    +0.000 N 
ATOM     14  H   UNL     1       1.641   7.716  22.690  0.00  0.00    +0.000 HD
ATOM     15  H   UNL     1       0.998   9.019  16.682  0.00  0.00    +0.000 HD
ATOM     16  H   UNL     1      -0.773  11.083  24.492  0.00  0.00    +0.000 HD
ENDROOT
BRANCH   1  18
ATOM     17  C   UNL     1      -2.773  12.669  22.881  0.00  0.00    +0.000 C 
ATOM     18  C   UNL     1      -1.626  12.236  21.977  0.00  0.00    +0.000 C 
ATOM     19  C   UNL     1      -0.547  13.320  21.886  0.00  0.00    +0.000 C 
ENDBRANCH   1  18
BRANCH   7  20
ATOM     20  O   UNL     1       3.540   5.558  18.739  0.00  0.00    +0.000 OA
BRANCH  20  21
ATOM     21  C   UNL     1       3.122   4.780  17.595  0.00  0.00    +0.000 C 
ATOM     22  C   UNL     1       1.612   4.555  17.697  0.00  0.00    +0.000 C 
ATOM     23  C   UNL     1       1.286   3.660  18.884  0.00  0.00    +0.000 C 
ATOM     24  C   UNL     1       1.993   2.307  18.825  0.00  0.00    +0.000 C 
ATOM     25  N   UNL     1       3.324   2.293  18.256  0.00  0.00    +0.000 NA
ATOM     26  C   UNL     1       4.308   1.481  18.935  0.00  0.00    +0.000 C 
ATOM     27  C   UNL     1       3.831   3.412  17.468  0.00  0.00    +0.000 C 
ENDBRANCH  20  21
ENDBRANCH   7  20
BRANCH  10  28
ATOM     28  C   UNL     1       0.884  10.753  17.872  0.00  0.00    +0.000 C 
BRANCH  28  29
ATOM     29  C   UNL     1      -0.596  10.696  17.882  0.00  0.00    +0.000 A 
ATOM     30  C   UNL     1      -1.538  11.510  18.455  0.00  0.00    +0.000 A 
ATOM     31  C   UNL     1      -2.777  10.966  18.053  0.00  0.00    +0.000 A 
ATOM     32  N   UNL     1      -2.584   9.870  17.298  0.00  0.00    +0.000 NA
ATOM     33  O   UNL     1      -1.212   9.710  17.187  0.00  0.00    +0.000 OA
BRANCH  31  34
ATOM     34  C   UNL     1      -4.108  11.462  18.397  0.00  0.00    +0.000 A 
ATOM     35  C   UNL     1      -4.277  12.380  19.450  0.00  0.00    +0.000 A 
ATOM     36  C   UNL     1      -5.551  12.813  19.813  0.00  0.00    +0.000 A 
ATOM     37  C   UNL     1      -6.667  12.333  19.131  0.00  0.00    +0.000 A 
ATOM     38  C   UNL     1      -6.513  11.431  18.080  0.00  0.00    +0.000 A 
ATOM     39  C   UNL     1      -5.237  11.000  17.712  0.00  0.00    +0.000 A 
ENDBRANCH  31  34
ENDBRANCH  28  29
ENDBRANCH  10  28
TORSDOF 6
ENDMDL
MODEL 6
REMARK VINA RESULT:      -7.7      3.927      6.221
REMARK  Name = 
REMARK  9 active torsions:
REMARK  status: ('A' for Active; 'I' for Inactive)
REMARK    1  A    between atoms: C_1  and  C_2
REMARK    2  A    between atoms: C_2  and  C_3
REMARK    3  A    between atoms: C_2  and  C_4
REMARK    4  A    between atoms: C_10  and  O_11
REMARK    5  A    between atoms: O_11  and  C_12
REMARK    6  A    between atoms: N_16  and  C_17
REMARK    7  A    between atoms: N_21  and  C_22
REMARK    8  A    between atoms: C_22  and  C_23
REMARK    9  A    between atoms: C_25  and  C_26
REMARK                            x       y       z     vdW  Elec       q    Type
REMARK                         _______ _______ _______ _____ _____    ______ ____
ROOT
ATOM      1  C   UNL     1      -1.029  11.053  22.631  0.00  0.00    +0.000 A 
ATOM      2  C   UNL     1      -0.664  10.432  21.456  0.00  0.00    +0.000 A 
ATOM      3  C   UNL     1       0.002   9.243  21.837  0.00  0.00    +0.000 A 
ATOM      4  N   UNL     1       0.740   8.441  21.023  0.00  0.00    +0.000 N 
ATOM      5  C   UNL     1       1.399   8.810  19.826  0.00  0.00    +0.000 A 
ATOM      6  C   UNL     1       2.075   7.866  19.076  0.00  0.00    +0.000 A 
ATOM      7  C   UNL     1       2.565   8.289  17.857  0.00  0.00    +0.000 A 
ATOM      8  N   UNL     1       2.396   9.529  17.384  0.00  0.00    +0.000 NA
ATOM      9  C   UNL     1       1.805  10.395  18.199  0.00  0.00    +0.000 A 
ATOM     10  N   UNL     1       1.755  11.692  17.765  0.00  0.00    +0.000 N 
ATOM     11  N   UNL     1       1.305  10.075  19.389  0.00  0.00    +0.000 NA
ATOM     12  N   UNL     1      -0.153   9.019  23.147  0.00  0.00    +0.000 NA
ATOM     13  N   UNL     1      -0.801  10.112  23.598  0.00  0.00    +0.000 N 
ATOM     14  H   UNL     1       1.250   7.727  21.531  0.00  0.00    +0.000 HD
ATOM     15  H   UNL     1       1.382  11.735  16.827  0.00  0.00    +0.000 HD
ATOM     16  H   UNL     1      -0.996  10.176  24.591  0.00  0.00    +0.000 HD
ENDROOT
BRANCH   1  18
ATOM     17  C   UNL     1      -0.493  13.506  22.328  0.00  0.00    +0.000 C 
ATOM     18  C   UNL     1      -1.458  12.466  22.882  0.00  0.00    +0.000 C 
ATOM     19  C   UNL     1      -2.882  12.695  22.363  0.00  0.00    +0.000 C 
ENDBRANCH   1  18
BRANCH   7  20
ATOM     20  O   UNL     1       3.335   7.402  17.124  0.00  0.00    +0.000 OA
BRANCH  20  21
ATOM     21  C   UNL     1       4.347   6.716  17.895  0.00  0.00    +0.000 C 
ATOM     22  C   UNL     1       5.625   6.652  17.056  0.00  0.00    +0.000 C 
ATOM     23  C   UNL     1       5.422   5.756  15.843  0.00  0.00    +0.000 C 
ATOM     24  C   UNL     1       4.992   4.337  16.212  0.00  0.00    +0.000 C 
ATOM     25  N   UNL     1       4.126   4.199  17.364  0.00  0.00    +0.000 NA
ATOM     26  C   UNL     1       3.032   3.262  17.240  0.00  0.00    +0.000 C 
ATOM     27  C   UNL     1       3.951   5.284  18.324  0.00  0.00    +0.000 C 
ENDBRANCH  20  21
ENDBRANCH   7  20
BRANCH  10  28
ATOM     28  C   UNL     1       1.315  12.719  18.687  0.00  0.00    +0.000 C 
BRANCH  28  29
ATOM     29  C   UNL     1       2.387  13.728  18.854  0.00  0.00    +0.000 A 
ATOM     30  C   UNL     1       3.675  13.778  18.390  0.00  0.00    +0.000 A 
ATOM     31  C   UNL     1       4.170  15.024  18.833  0.00  0.00    +0.000 A 
ATOM     32  N   UNL     1       3.233  15.673  19.546  0.00  0.00    +0.000 NA
ATOM     33  O   UNL     1       2.112  14.858  19.549  0.00  0.00    +0.000 OA
BRANCH  31  34
ATOM     34  C   UNL     1       5.506  15.571  18.605  0.00  0.00    +0.000 A 
ATOM     35  C   UNL     1       6.462  14.838  17.879  0.00  0.00    +0.000 A 
ATOM     36  C   UNL     1       7.753  15.335  17.706  0.00  0.00    +0.000 A 
ATOM     37  C   UNL     1       8.101  16.567  18.257  0.00  0.00    +0.000 A 
ATOM     38  C   UNL     1       7.160  17.307  18.970  0.00  0.00    +0.000 A 
ATOM     39  C   UNL     1       5.866  16.812  19.141  0.00  0.00    +0.000 A 
ENDBRANCH  31  34
ENDBRANCH  28  29
ENDBRANCH  10  28
TORSDOF 6
ENDMDL
MODEL 7
REMARK VINA RESULT:      -7.7      3.236      9.659
REMARK  Name = 
REMARK  9 active torsions:
REMARK  status: ('A' for Active; 'I' for Inactive)
REMARK    1  A    between atoms: C_1  and  C_2
REMARK    2  A    between atoms: C_2  and  C_3
REMARK    3  A    between atoms: C_2  and  C_4
REMARK    4  A    between atoms: C_10  and  O_11
REMARK    5  A    between atoms: O_11  and  C_12
REMARK    6  A    between atoms: N_16  and  C_17
REMARK    7  A    between atoms: N_21  and  C_22
REMARK    8  A    between atoms: C_22  and  C_23
REMARK    9  A    between atoms: C_25  and  C_26
REMARK                            x       y       z     vdW  Elec       q    Type
REMARK                         _______ _______ _______ _____ _____    ______ ____
ROOT
ATOM      1  C   UNL     1      -3.755  10.775  17.501  0.00  0.00    +0.000 A 
ATOM      2  C   UNL     1      -3.203  11.079  18.727  0.00  0.00    +0.000 A 
ATOM      3  C   UNL     1      -3.868  12.245  19.173  0.00  0.00    +0.000 A 
ATOM      4  N   UNL     1      -3.489  13.037  20.212  0.00  0.00    +0.000 N 
ATOM      5  C   UNL     1      -2.186  13.185  20.745  0.00  0.00    +0.000 A 
ATOM      6  C   UNL     1      -1.962  13.995  21.842  0.00  0.00    +0.000 A 
ATOM      7  C   UNL     1      -0.690  13.969  22.374  0.00  0.00    +0.000 A 
ATOM      8  N   UNL     1       0.293  13.197  21.897  0.00  0.00    +0.000 NA
ATOM      9  C   UNL     1       0.019  12.509  20.795  0.00  0.00    +0.000 A 
ATOM     10  N   UNL     1       1.067  11.827  20.235  0.00  0.00    +0.000 N 
ATOM     11  N   UNL     1      -1.177  12.478  20.214  0.00  0.00    +0.000 NA
ATOM     12  N   UNL     1      -4.926  12.506  18.397  0.00  0.00    +0.000 NA
ATOM     13  N   UNL     1      -4.851  11.590  17.411  0.00  0.00    +0.000 N 
ATOM     14  H   UNL     1      -4.020  13.899  20.264  0.00  0.00    +0.000 HD
ATOM     15  H   UNL     1       1.532  11.263  20.932  0.00  0.00    +0.000 HD
ATOM     16  H   UNL     1      -5.547  11.622  16.673  0.00  0.00    +0.000 HD
ENDROOT
BRANCH   1  18
ATOM     17  C   UNL     1      -3.544  10.386  15.011  0.00  0.00    +0.000 C 
ATOM     18  C   UNL     1      -3.256   9.871  16.416  0.00  0.00    +0.000 C 
ATOM     19  C   UNL     1      -1.765   9.575  16.606  0.00  0.00    +0.000 C 
ENDBRANCH   1  18
BRANCH   7  20
ATOM     20  O   UNL     1      -0.400  14.842  23.409  0.00  0.00    +0.000 OA
BRANCH  20  21
ATOM     21  C   UNL     1      -1.564  15.428  24.035  0.00  0.00    +0.000 C 
ATOM     22  C   UNL     1      -1.701  16.868  23.535  0.00  0.00    +0.000 C 
ATOM     23  C   UNL     1      -0.546  17.720  24.044  0.00  0.00    +0.000 C 
ATOM     24  C   UNL     1      -0.432  17.726  25.566  0.00  0.00    +0.000 C 
ATOM     25  N   UNL     1      -0.775  16.496  26.249  0.00  0.00    +0.000 NA
ATOM     26  C   UNL     1       0.089  16.098  27.337  0.00  0.00    +0.000 C 
ATOM     27  C   UNL     1      -1.515  15.431  25.580  0.00  0.00    +0.000 C 
ENDBRANCH  20  21
ENDBRANCH   7  20
BRANCH  10  28
ATOM     28  C   UNL     1       0.891  11.231  18.927  0.00  0.00    +0.000 C 
BRANCH  28  29
ATOM     29  C   UNL     1       1.390   9.836  18.946  0.00  0.00    +0.000 A 
ATOM     30  C   UNL     1       2.023   9.079  17.995  0.00  0.00    +0.000 A 
ATOM     31  C   UNL     1       2.302   7.853  18.638  0.00  0.00    +0.000 A 
ATOM     32  N   UNL     1       1.839   7.870  19.900  0.00  0.00    +0.000 NA
ATOM     33  O   UNL     1       1.274   9.121  20.091  0.00  0.00    +0.000 OA
BRANCH  31  34
ATOM     34  C   UNL     1       2.971   6.689  18.059  0.00  0.00    +0.000 A 
ATOM     35  C   UNL     1       4.185   6.837  17.363  0.00  0.00    +0.000 A 
ATOM     36  C   UNL     1       4.796   5.736  16.765  0.00  0.00    +0.000 A 
ATOM     37  C   UNL     1       4.201   4.479  16.856  0.00  0.00    +0.000 A 
ATOM     38  C   UNL     1       3.004   4.318  17.551  0.00  0.00    +0.000 A 
ATOM     39  C   UNL     1       2.393   5.419  18.154  0.00  0.00    +0.000 A 
ENDBRANCH  31  34
ENDBRANCH  28  29
ENDBRANCH  10  28
TORSDOF 6
ENDMDL
MODEL 8
REMARK VINA RESULT:      -7.7      3.082      9.641
REMARK  Name = 
REMARK  9 active torsions:
REMARK  status: ('A' for Active; 'I' for Inactive)
REMARK    1  A    between atoms: C_1  and  C_2
REMARK    2  A    between atoms: C_2  and  C_3
REMARK    3  A    between atoms: C_2  and  C_4
REMARK    4  A    between atoms: C_10  and  O_11
REMARK    5  A    between atoms: O_11  and  C_12
REMARK    6  A    between atoms: N_16  and  C_17
REMARK    7  A    between atoms: N_21  and  C_22
REMARK    8  A    between atoms: C_22  and  C_23
REMARK    9  A    between atoms: C_25  and  C_26
REMARK                            x       y       z     vdW  Elec       q    Type
REMARK                         _______ _______ _______ _____ _____    ______ ____
ROOT
ATOM      1  C   UNL     1      -3.834  10.996  16.609  0.00  0.00    +0.000 A 
ATOM      2  C   UNL     1      -3.524  11.003  17.951  0.00  0.00    +0.000 A 
ATOM      3  C   UNL     1      -4.409  11.931  18.549  0.00  0.00    +0.000 A 
ATOM      4  N   UNL     1      -4.311  12.438  19.807  0.00  0.00    +0.000 N 
ATOM      5  C   UNL     1      -3.138  12.560  20.592  0.00  0.00    +0.000 A 
ATOM      6  C   UNL     1      -3.203  13.054  21.881  0.00  0.00    +0.000 A 
ATOM      7  C   UNL     1      -2.036  13.006  22.615  0.00  0.00    +0.000 A 
ATOM      8  N   UNL     1      -0.891  12.496  22.147  0.00  0.00    +0.000 NA
ATOM      9  C   UNL     1      -0.892  12.115  20.875  0.00  0.00    +0.000 A 
ATOM     10  N   UNL     1       0.315  11.720  20.364  0.00  0.00    +0.000 N 
ATOM     11  N   UNL     1      -1.969  12.129  20.095  0.00  0.00    +0.000 NA
ATOM     12  N   UNL     1      -5.364  12.291  17.684  0.00  0.00    +0.000 NA
ATOM     13  N   UNL     1      -5.009  11.694  16.528  0.00  0.00    +0.000 N 
ATOM     14  H   UNL     1      -4.961  13.196  19.978  0.00  0.00    +0.000 HD
ATOM     15  H   UNL     1       0.745  11.034  20.968  0.00  0.00    +0.000 HD
ATOM     16  H   UNL     1      -5.582  11.861  15.708  0.00  0.00    +0.000 HD
ENDROOT
BRANCH   1  18
ATOM     17  C   UNL     1      -2.136   9.312  15.784  0.00  0.00    +0.000 C 
ATOM     18  C   UNL     1      -3.051  10.481  15.440  0.00  0.00    +0.000 C 
ATOM     19  C   UNL     1      -3.987  10.132  14.279  0.00  0.00    +0.000 C 
ENDBRANCH   1  18
BRANCH   7  20
ATOM     20  O   UNL     1      -2.036  13.584  23.873  0.00  0.00    +0.000 OA
BRANCH  20  21
ATOM     21  C   UNL     1      -1.205  14.761  23.985  0.00  0.00    +0.000 C 
ATOM     22  C   UNL     1      -1.492  15.421  25.335  0.00  0.00    +0.000 C 
ATOM     23  C   UNL     1      -2.910  15.974  25.368  0.00  0.00    +0.000 C 
ATOM     24  C   UNL     1      -3.188  16.976  24.249  0.00  0.00    +0.000 C 
ATOM     25  N   UNL     1      -2.539  16.729  22.979  0.00  0.00    +0.000 NA
ATOM     26  C   UNL     1      -3.341  16.934  21.794  0.00  0.00    +0.000 C 
ATOM     27  C   UNL     1      -1.422  15.798  22.858  0.00  0.00    +0.000 C 
ENDBRANCH  20  21
ENDBRANCH   7  20
BRANCH  10  28
ATOM     28  C   UNL     1       0.427  11.493  18.937  0.00  0.00    +0.000 C 
BRANCH  28  29
ATOM     29  C   UNL     1       1.168  10.234  18.692  0.00  0.00    +0.000 A 
ATOM     30  C   UNL     1       1.323   9.103  19.449  0.00  0.00    +0.000 A 
ATOM     31  C   UNL     1       2.087   8.231  18.642  0.00  0.00    +0.000 A 
ATOM     32  N   UNL     1       2.391   8.821  17.473  0.00  0.00    +0.000 NA
ATOM     33  O   UNL     1       1.805  10.077  17.506  0.00  0.00    +0.000 OA
BRANCH  31  34
ATOM     34  C   UNL     1       2.534   6.882  18.984  0.00  0.00    +0.000 A 
ATOM     35  C   UNL     1       3.428   6.193  18.145  0.00  0.00    +0.000 A 
ATOM     36  C   UNL     1       3.814   4.887  18.442  0.00  0.00    +0.000 A 
ATOM     37  C   UNL     1       3.310   4.257  19.578  0.00  0.00    +0.000 A 
ATOM     38  C   UNL     1       2.432   4.932  20.423  0.00  0.00    +0.000 A 
ATOM     39  C   UNL     1       2.048   6.242  20.128  0.00  0.00    +0.000 A 
ENDBRANCH  31  34
ENDBRANCH  28  29
ENDBRANCH  10  28
TORSDOF 6
ENDMDL
MODEL 9
REMARK VINA RESULT:      -7.7      2.163      4.829
REMARK  Name = 
REMARK  9 active torsions:
REMARK  status: ('A' for Active; 'I' for Inactive)
REMARK    1  A    between atoms: C_1  and  C_2
REMARK    2  A    between atoms: C_2  and  C_3
REMARK    3  A    between atoms: C_2  and  C_4
REMARK    4  A    between atoms: C_10  and  O_11
REMARK    5  A    between atoms: O_11  and  C_12
REMARK    6  A    between atoms: N_16  and  C_17
REMARK    7  A    between atoms: N_21  and  C_22
REMARK    8  A    between atoms: C_22  and  C_23
REMARK    9  A    between atoms: C_25  and  C_26
REMARK                            x       y       z     vdW  Elec       q    Type
REMARK                         _______ _______ _______ _____ _____    ______ ____
ROOT
ATOM      1  C   UNL     1      -3.426  12.066  19.088  0.00  0.00    +0.000 A 
ATOM      2  C   UNL     1      -2.099  11.698  19.141  0.00  0.00    +0.000 A 
ATOM      3  C   UNL     1      -1.812  11.100  17.891  0.00  0.00    +0.000 A 
ATOM      4  N   UNL     1      -0.701  10.379  17.582  0.00  0.00    +0.000 N 
ATOM      5  C   UNL     1       0.134   9.668  18.478  0.00  0.00    +0.000 A 
ATOM      6  C   UNL     1       1.263   9.017  18.020  0.00  0.00    +0.000 A 
ATOM      7  C   UNL     1       2.089   8.471  18.981  0.00  0.00    +0.000 A 
ATOM      8  N   UNL     1       1.854   8.567  20.295  0.00  0.00    +0.000 NA
ATOM      9  C   UNL     1       0.709   9.139  20.649  0.00  0.00    +0.000 A 
ATOM     10  N   UNL     1       0.412   9.115  21.985  0.00  0.00    +0.000 N 
ATOM     11  N   UNL     1      -0.145   9.689  19.790  0.00  0.00    +0.000 NA
ATOM     12  N   UNL     1      -2.818  11.305  17.033  0.00  0.00    +0.000 NA
ATOM     13  N   UNL     1      -3.769  11.912  17.772  0.00  0.00    +0.000 N 
ATOM     14  H   UNL     1      -0.768   9.919  16.682  0.00  0.00    +0.000 HD
ATOM     15  H   UNL     1       1.194   9.457  22.526  0.00  0.00    +0.000 HD
ATOM     16  H   UNL     1      -4.653  12.133  17.326  0.00  0.00    +0.000 HD
ENDROOT
BRANCH   1  18
ATOM     17  C   UNL     1      -4.207  13.867  20.683  0.00  0.00    +0.000 C 
ATOM     18  C   UNL     1      -4.370  12.434  20.192  0.00  0.00    +0.000 C 
ATOM     19  C   UNL     1      -5.817  12.148  19.778  0.00  0.00    +0.000 C 
ENDBRANCH   1  18
BRANCH   7  20
ATOM     20  O   UNL     1       3.174   7.724  18.557  0.00  0.00    +0.000 OA
BRANCH  20  21
ATOM     21  C   UNL     1       2.822   6.491  17.890  0.00  0.00    +0.000 C 
ATOM     22  C   UNL     1       2.228   5.538  18.930  0.00  0.00    +0.000 C 
ATOM     23  C   UNL     1       3.291   5.116  19.934  0.00  0.00    +0.000 C 
ATOM     24  C   UNL     1       4.503   4.456  19.281  0.00  0.00    +0.000 C 
ATOM     25  N   UNL     1       4.898   4.960  17.983  0.00  0.00    +0.000 NA
ATOM     26  C   UNL     1       6.316   5.128  17.759  0.00  0.00    +0.000 C 
ATOM     27  C   UNL     1       4.008   5.794  17.183  0.00  0.00    +0.000 C 
ENDBRANCH  20  21
ENDBRANCH   7  20
BRANCH  10  28
ATOM     28  C   UNL     1      -0.908   9.531  22.413  0.00  0.00    +0.000 C 
BRANCH  28  29
ATOM     29  C   UNL     1      -0.919  10.996  22.632  0.00  0.00    +0.000 A 
ATOM     30  C   UNL     1      -1.913  11.853  23.026  0.00  0.00    +0.000 A 
ATOM     31  C   UNL     1      -1.286  13.116  23.112  0.00  0.00    +0.000 A 
ATOM     32  N   UNL     1       0.009  13.020  22.766  0.00  0.00    +0.000 NA
ATOM     33  O   UNL     1       0.236  11.685  22.472  0.00  0.00    +0.000 OA
BRANCH  31  34
ATOM     34  C   UNL     1      -1.909  14.383  23.493  0.00  0.00    +0.000 A 
ATOM     35  C   UNL     1      -2.842  14.431  24.545  0.00  0.00    +0.000 A 
ATOM     36  C   UNL     1      -3.476  15.628  24.873  0.00  0.00    +0.000 A 
ATOM     37  C   UNL     1      -3.186  16.786  24.154  0.00  0.00    +0.000 A 
ATOM     38  C   UNL     1      -2.256  16.753  23.116  0.00  0.00    +0.000 A 
ATOM     39  C   UNL     1      -1.617  15.556  22.789  0.00  0.00    +0.000 A 
ENDBRANCH  31  34
ENDBRANCH  28  29
ENDBRANCH  10  28
TORSDOF 6
ENDMDL
