MODEL 1
REMARK VINA RESULT:      -6.4      0.000      0.000
REMARK  Name = 
REMARK  4 active torsions:
REMARK  status: ('A' for Active; 'I' for Inactive)
REMARK    1  A    between atoms: C_1  and  O_2
REMARK    2  A    between atoms: O_2  and  C_3
REMARK    3  A    between atoms: N_19  and  C_20
REMARK    4  A    between atoms: C_20  and  C_21
REMARK                            x       y       z     vdW  Elec       q    Type
REMARK                         _______ _______ _______ _____ _____    ______ ____
ROOT
ATOM      1  C   UNL     1      -4.383  11.671  18.181  0.00  0.00    +0.000 A 
ATOM      2  C   UNL     1      -3.569  10.692  17.617  0.00  0.00    +0.000 A 
ATOM      3  C   UNL     1      -2.330  10.403  18.191  0.00  0.00    +0.000 A 
ATOM      4  C   UNL     1      -1.891  11.103  19.323  0.00  0.00    +0.000 A 
ATOM      5  C   UNL     1      -2.683  12.095  19.904  0.00  0.00    +0.000 A 
ATOM      6  C   UNL     1      -3.929  12.361  19.313  0.00  0.00    +0.000 A 
ATOM      7  F   UNL     1      -4.699  13.329  19.830  0.00  0.00    +0.000 F 
ATOM      8  C   UNL     1      -2.177  12.893  21.095  0.00  0.00    +0.000 C 
ATOM      9  C   UNL     1      -1.901  14.360  20.701  0.00  0.00    +0.000 C 
ATOM     10  C   UNL     1      -2.981  15.124  21.405  0.00  0.00    +0.000 C 
ATOM     11  O   UNL     1      -3.267  16.289  21.187  0.00  0.00    +0.000 OA
ATOM     12  N   UNL     1      -3.568  14.328  22.325  0.00  0.00    +0.000 N 
ATOM     13  C   UNL     1      -3.230  13.016  22.180  0.00  0.00    +0.000 C 
ATOM     14  O   UNL     1      -3.763  12.091  22.772  0.00  0.00    +0.000 OA
ATOM     15  C   UNL     1      -0.866  12.367  21.658  0.00  0.00    +0.000 C 
ATOM     16  O   UNL     1      -0.530  12.558  22.825  0.00  0.00    +0.000 OA
ATOM     17  N   UNL     1      -0.027  11.794  20.714  0.00  0.00    +0.000 N 
ATOM     18  C   UNL     1      -0.515  10.864  19.813  0.00  0.00    +0.000 C 
ATOM     19  O   UNL     1       0.127   9.907  19.393  0.00  0.00    +0.000 OA
ATOM     20  H   UNL     1      -4.341  14.629  22.894  0.00  0.00    +0.000 HD
ENDROOT
BRANCH   1  22
ATOM     21  C   UNL     1      -6.727  11.332  18.147  0.00  0.00    +0.000 C 
ATOM     22  O   UNL     1      -5.596  12.062  17.686  0.00  0.00    +0.000 OA
ENDBRANCH   1  22
BRANCH  17  23
ATOM     23  C   UNL     1       1.420  11.858  20.921  0.00  0.00    +0.000 C 
BRANCH  23  24
ATOM     24  C   UNL     1       1.967  13.010  20.099  0.00  0.00    +0.000 A 
ATOM     25  C   UNL     1       2.283  12.846  18.741  0.00  0.00    +0.000 A 
ATOM     26  C   UNL     1       2.646  13.946  17.959  0.00  0.00    +0.000 A 
ATOM     27  C   UNL     1       2.696  15.216  18.530  0.00  0.00    +0.000 A 
ATOM     28 BR   UNL     1       3.119  16.714  17.453  0.00  0.00    +0.000 Br
ATOM     29  C   UNL     1       2.410  15.398  19.878  0.00  0.00    +0.000 A 
ATOM     30  C   UNL     1       2.052  14.294  20.649  0.00  0.00    +0.000 A 
ATOM     31  F   UNL     1       1.727  14.486  21.933  0.00  0.00    +0.000 F 
ENDBRANCH  23  24
ENDBRANCH  17  23
TORSDOF 3
ENDMDL
MODEL 2
REMARK VINA RESULT:      -6.3      3.132      6.575
REMARK  Name = 
REMARK  4 active torsions:
REMARK  status: ('A' for Active; 'I' for Inactive)
REMARK    1  A    between atoms: C_1  and  O_2
REMARK    2  A    between atoms: O_2  and  C_3
REMARK    3  A    between atoms: N_19  and  C_20
REMARK    4  A    between atoms: C_20  and  C_21
REMARK                            x       y       z     vdW  Elec       q    Type
REMARK                         _______ _______ _______ _____ _____    ______ ____
ROOT
ATOM      1  C   UNL     1       2.297  14.157  19.303  0.00  0.00    +0.000 A 
ATOM      2  C   UNL     1       2.317  15.319  20.069  0.00  0.00    +0.000 A 
ATOM      3  C   UNL     1       1.543  15.399  21.229  0.00  0.00    +0.000 A 
ATOM      4  C   UNL     1       0.734  14.324  21.619  0.00  0.00    +0.000 A 
ATOM      5  C   UNL     1       0.689  13.150  20.864  0.00  0.00    +0.000 A 
ATOM      6  C   UNL     1       1.483  13.090  19.707  0.00  0.00    +0.000 A 
ATOM      7  F   UNL     1       1.438  11.989  18.944  0.00  0.00    +0.000 F 
ATOM      8  C   UNL     1      -0.237  12.010  21.258  0.00  0.00    +0.000 C 
ATOM      9  C   UNL     1      -1.384  11.851  20.237  0.00  0.00    +0.000 C 
ATOM     10  C   UNL     1      -1.064  10.562  19.543  0.00  0.00    +0.000 C 
ATOM     11  O   UNL     1      -1.592  10.174  18.514  0.00  0.00    +0.000 OA
ATOM     12  N   UNL     1      -0.122   9.896  20.245  0.00  0.00    +0.000 N 
ATOM     13  C   UNL     1       0.468  10.667  21.201  0.00  0.00    +0.000 C 
ATOM     14  O   UNL     1       1.459  10.349  21.838  0.00  0.00    +0.000 OA
ATOM     15  C   UNL     1      -0.912  12.220  22.603  0.00  0.00    +0.000 C 
ATOM     16  O   UNL     1      -1.316  11.283  23.288  0.00  0.00    +0.000 OA
ATOM     17  N   UNL     1      -1.165  13.548  22.915  0.00  0.00    +0.000 N 
ATOM     18  C   UNL     1      -0.174  14.504  22.773  0.00  0.00    +0.000 C 
ATOM     19  O   UNL     1      -0.041  15.473  23.512  0.00  0.00    +0.000 OA
ATOM     20  H   UNL     1       0.264   9.016  19.943  0.00  0.00    +0.000 HD
ENDROOT
BRANCH   1  22
ATOM     21  C   UNL     1       3.965  14.961  17.824  0.00  0.00    +0.000 C 
ATOM     22  O   UNL     1       2.983  13.978  18.133  0.00  0.00    +0.000 OA
ENDBRANCH   1  22
BRANCH  17  23
ATOM     23  C   UNL     1      -2.317  13.871  23.757  0.00  0.00    +0.000 C 
BRANCH  23  24
ATOM     24  C   UNL     1      -3.567  13.802  22.899  0.00  0.00    +0.000 A 
ATOM     25  C   UNL     1      -3.640  14.477  21.671  0.00  0.00    +0.000 A 
ATOM     26  C   UNL     1      -4.736  14.289  20.822  0.00  0.00    +0.000 A 
ATOM     27  C   UNL     1      -5.764  13.427  21.198  0.00  0.00    +0.000 A 
ATOM     28 BR   UNL     1      -7.211  13.120  20.018  0.00  0.00    +0.000 Br
ATOM     29  C   UNL     1      -5.722  12.767  22.421  0.00  0.00    +0.000 A 
ATOM     30  C   UNL     1      -4.627  12.963  23.259  0.00  0.00    +0.000 A 
ATOM     31  F   UNL     1      -4.570  12.283  24.411  0.00  0.00    +0.000 F 
ENDBRANCH  23  24
ENDBRANCH  17  23
TORSDOF 3
ENDMDL
MODEL 3
REMARK VINA RESULT:      -6.3      7.559      9.751
REMARK  Name = 
REMARK  4 active torsions:
REMARK  status: ('A' for Active; 'I' for Inactive)
REMARK    1  A    between atoms: C_1  and  O_2
REMARK    2  A    between atoms: O_2  and  C_3
REMARK    3  A    between atoms: N_19  and  C_20
REMARK    4  A    between atoms: C_20  and  C_21
REMARK                            x       y       z     vdW  Elec       q    Type
REMARK                         _______ _______ _______ _____ _____    ______ ____
ROOT
ATOM      1  C   UNL     1       1.135   7.254  20.457  0.00  0.00    +0.000 A 
ATOM      2  C   UNL     1       1.640   8.280  19.664  0.00  0.00    +0.000 A 
ATOM      3  C   UNL     1       2.543   7.988  18.640  0.00  0.00    +0.000 A 
ATOM      4  C   UNL     1       2.958   6.668  18.415  0.00  0.00    +0.000 A 
ATOM      5  C   UNL     1       2.474   5.621  19.200  0.00  0.00    +0.000 A 
ATOM      6  C   UNL     1       1.560   5.940  20.217  0.00  0.00    +0.000 A 
ATOM      7  F   UNL     1       1.101   4.960  21.009  0.00  0.00    +0.000 F 
ATOM      8  C   UNL     1       2.973   4.200  18.991  0.00  0.00    +0.000 C 
ATOM      9  C   UNL     1       3.835   3.735  20.185  0.00  0.00    +0.000 C 
ATOM     10  C   UNL     1       2.980   2.702  20.856  0.00  0.00    +0.000 C 
ATOM     11  O   UNL     1       3.186   2.241  21.967  0.00  0.00    +0.000 OA
ATOM     12  N   UNL     1       1.969   2.352  20.033  0.00  0.00    +0.000 N 
ATOM     13  C   UNL     1       1.833   3.199  18.974  0.00  0.00    +0.000 C 
ATOM     14  O   UNL     1       0.892   3.196  18.196  0.00  0.00    +0.000 OA
ATOM     15  C   UNL     1       3.858   4.047  17.765  0.00  0.00    +0.000 C 
ATOM     16  O   UNL     1       3.989   2.974  17.179  0.00  0.00    +0.000 OA
ATOM     17  N   UNL     1       4.611   5.172  17.459  0.00  0.00    +0.000 N 
ATOM     18  C   UNL     1       4.021   6.422  17.414  0.00  0.00    +0.000 C 
ATOM     19  O   UNL     1       4.347   7.312  16.637  0.00  0.00    +0.000 OA
ATOM     20  H   UNL     1       1.255   1.692  20.294  0.00  0.00    +0.000 HD
ENDROOT
BRANCH   1  22
ATOM     21  C   UNL     1      -0.349   8.699  21.606  0.00  0.00    +0.000 C 
ATOM     22  O   UNL     1       0.276   7.424  21.507  0.00  0.00    +0.000 OA
ENDBRANCH   1  22
BRANCH  17  23
ATOM     23  C   UNL     1       5.907   4.999  16.802  0.00  0.00    +0.000 C 
BRANCH  23  24
ATOM     24  C   UNL     1       6.846   6.078  17.310  0.00  0.00    +0.000 A 
ATOM     25  C   UNL     1       7.069   7.250  16.571  0.00  0.00    +0.000 A 
ATOM     26  C   UNL     1       7.818   8.299  17.113  0.00  0.00    +0.000 A 
ATOM     27  C   UNL     1       8.347   8.181  18.396  0.00  0.00    +0.000 A 
ATOM     28 BR   UNL     1       9.300   9.630  19.156  0.00  0.00    +0.000 Br
ATOM     29  C   UNL     1       8.158   7.020  19.137  0.00  0.00    +0.000 A 
ATOM     30  C   UNL     1       7.412   5.980  18.586  0.00  0.00    +0.000 A 
ATOM     31  F   UNL     1       7.191   4.886  19.325  0.00  0.00    +0.000 F 
ENDBRANCH  23  24
ENDBRANCH  17  23
TORSDOF 3
ENDMDL
MODEL 4
REMARK VINA RESULT:      -6.3      3.324      4.698
REMARK  Name = 
REMARK  4 active torsions:
REMARK  status: ('A' for Active; 'I' for Inactive)
REMARK    1  A    between atoms: C_1  and  O_2
REMARK    2  A    between atoms: O_2  and  C_3
REMARK    3  A    between atoms: N_19  and  C_20
REMARK    4  A    between atoms: C_20  and  C_21
REMARK                            x       y       z     vdW  Elec       q    Type
REMARK                         _______ _______ _______ _____ _____    ______ ____
ROOT
ATOM      1  C   UNL     1      -4.292  14.497  24.021  0.00  0.00    +0.000 A 
ATOM      2  C   UNL     1      -4.379  13.116  24.171  0.00  0.00    +0.000 A 
ATOM      3  C   UNL     1      -3.315  12.306  23.771  0.00  0.00    +0.000 A 
ATOM      4  C   UNL     1      -2.165  12.872  23.204  0.00  0.00    +0.000 A 
ATOM      5  C   UNL     1      -2.055  14.253  23.034  0.00  0.00    +0.000 A 
ATOM      6  C   UNL     1      -3.135  15.047  23.453  0.00  0.00    +0.000 A 
ATOM      7  F   UNL     1      -3.073  16.374  23.275  0.00  0.00    +0.000 F 
ATOM      8  C   UNL     1      -0.832  14.857  22.363  0.00  0.00    +0.000 C 
ATOM      9  C   UNL     1      -1.193  15.446  20.982  0.00  0.00    +0.000 C 
ATOM     10  C   UNL     1      -1.075  16.926  21.187  0.00  0.00    +0.000 C 
ATOM     11  O   UNL     1      -1.489  17.773  20.413  0.00  0.00    +0.000 OA
ATOM     12  N   UNL     1      -0.425  17.169  22.346  0.00  0.00    +0.000 N 
ATOM     13  C   UNL     1      -0.306  16.058  23.127  0.00  0.00    +0.000 C 
ATOM     14  O   UNL     1       0.081  16.060  24.284  0.00  0.00    +0.000 OA
ATOM     15  C   UNL     1       0.272  13.846  22.101  0.00  0.00    +0.000 C 
ATOM     16  O   UNL     1       1.452  14.174  21.996  0.00  0.00    +0.000 OA
ATOM     17  N   UNL     1      -0.180  12.560  21.843  0.00  0.00    +0.000 N 
ATOM     18  C   UNL     1      -1.123  11.968  22.666  0.00  0.00    +0.000 C 
ATOM     19  O   UNL     1      -1.153  10.772  22.932  0.00  0.00    +0.000 OA
ATOM     20  H   UNL     1      -0.261  18.098  22.696  0.00  0.00    +0.000 HD
ENDROOT
BRANCH   1  22
ATOM     21  C   UNL     1      -6.427  15.380  23.497  0.00  0.00    +0.000 C 
ATOM     22  O   UNL     1      -5.282  15.384  24.343  0.00  0.00    +0.000 OA
ENDBRANCH   1  22
BRANCH  17  23
ATOM     23  C   UNL     1       0.610  11.693  20.969  0.00  0.00    +0.000 C 
BRANCH  23  24
ATOM     24  C   UNL     1      -0.184  11.447  19.699  0.00  0.00    +0.000 A 
ATOM     25  C   UNL     1      -0.893  10.251  19.509  0.00  0.00    +0.000 A 
ATOM     26  C   UNL     1      -1.737  10.095  18.406  0.00  0.00    +0.000 A 
ATOM     27  C   UNL     1      -1.875  11.132  17.486  0.00  0.00    +0.000 A 
ATOM     28 BR   UNL     1      -3.072  10.946  16.032  0.00  0.00    +0.000 Br
ATOM     29  C   UNL     1      -1.163  12.316  17.642  0.00  0.00    +0.000 A 
ATOM     30  C   UNL     1      -0.323  12.460  18.745  0.00  0.00    +0.000 A 
ATOM     31  F   UNL     1       0.318  13.623  18.916  0.00  0.00    +0.000 F 
ENDBRANCH  23  24
ENDBRANCH  17  23
TORSDOF 3
ENDMDL
MODEL 5
REMARK VINA RESULT:      -6.3      3.417      4.952
REMARK  Name = 
REMARK  4 active torsions:
REMARK  status: ('A' for Active; 'I' for Inactive)
REMARK    1  A    between atoms: C_1  and  O_2
REMARK    2  A    between atoms: O_2  and  C_3
REMARK    3  A    between atoms: N_19  and  C_20
REMARK    4  A    between atoms: C_20  and  C_21
REMARK                            x       y       z     vdW  Elec       q    Type
REMARK                         _______ _______ _______ _____ _____    ______ ____
ROOT
ATOM      1  C   UNL     1      -4.091  14.744  24.059  0.00  0.00    +0.000 A 
ATOM      2  C   UNL     1      -4.218  13.370  24.242  0.00  0.00    +0.000 A 
ATOM      3  C   UNL     1      -3.203  12.515  23.808  0.00  0.00    +0.000 A 
ATOM      4  C   UNL     1      -2.063  13.028  23.174  0.00  0.00    +0.000 A 
ATOM      5  C   UNL     1      -1.914  14.401  22.971  0.00  0.00    +0.000 A 
ATOM      6  C   UNL     1      -2.945  15.241  23.424  0.00  0.00    +0.000 A 
ATOM      7  F   UNL     1      -2.845  16.562  23.215  0.00  0.00    +0.000 F 
ATOM      8  C   UNL     1      -0.705  14.948  22.228  0.00  0.00    +0.000 C 
ATOM      9  C   UNL     1      -1.113  15.522  20.854  0.00  0.00    +0.000 C 
ATOM     10  C   UNL     1      -0.933  17.001  21.022  0.00  0.00    +0.000 C 
ATOM     11  O   UNL     1      -1.355  17.846  20.250  0.00  0.00    +0.000 OA
ATOM     12  N   UNL     1      -0.220  17.242  22.142  0.00  0.00    +0.000 N 
ATOM     13  C   UNL     1      -0.101  16.144  22.940  0.00  0.00    +0.000 C 
ATOM     14  O   UNL     1       0.342  16.155  24.077  0.00  0.00    +0.000 OA
ATOM     15  C   UNL     1       0.348  13.893  21.935  0.00  0.00    +0.000 C 
ATOM     16  O   UNL     1       1.533  14.177  21.766  0.00  0.00    +0.000 OA
ATOM     17  N   UNL     1      -0.160  12.619  21.727  0.00  0.00    +0.000 N 
ATOM     18  C   UNL     1      -1.081  12.078  22.606  0.00  0.00    +0.000 C 
ATOM     19  O   UNL     1      -1.140  10.889  22.899  0.00  0.00    +0.000 OA
ATOM     20  H   UNL     1      -0.007  18.172  22.464  0.00  0.00    +0.000 HD
ENDROOT
BRANCH   1  22
ATOM     21  C   UNL     1      -6.191  15.732  23.585  0.00  0.00    +0.000 C 
ATOM     22  O   UNL     1      -5.032  15.672  24.409  0.00  0.00    +0.000 OA
ENDBRANCH   1  22
BRANCH  17  23
ATOM     23  C   UNL     1       0.556  11.707  20.834  0.00  0.00    +0.000 C 
BRANCH  23  24
ATOM     24  C   UNL     1      -0.361  11.358  19.676  0.00  0.00    +0.000 A 
ATOM     25  C   UNL     1      -1.249  12.305  19.145  0.00  0.00    +0.000 A 
ATOM     26  C   UNL     1      -1.982  12.020  17.988  0.00  0.00    +0.000 A 
ATOM     27  C   UNL     1      -1.830  10.787  17.358  0.00  0.00    +0.000 A 
ATOM     28 BR   UNL     1      -2.768  10.430  15.753  0.00  0.00    +0.000 Br
ATOM     29  C   UNL     1      -0.973   9.825  17.881  0.00  0.00    +0.000 A 
ATOM     30  C   UNL     1      -0.250  10.119  19.035  0.00  0.00    +0.000 A 
ATOM     31  F   UNL     1       0.613   9.207  19.502  0.00  0.00    +0.000 F 
ENDBRANCH  23  24
ENDBRANCH  17  23
TORSDOF 3
ENDMDL
MODEL 6
REMARK VINA RESULT:      -6.3      3.271      5.758
REMARK  Name = 
REMARK  4 active torsions:
REMARK  status: ('A' for Active; 'I' for Inactive)
REMARK    1  A    between atoms: C_1  and  O_2
REMARK    2  A    between atoms: O_2  and  C_3
REMARK    3  A    between atoms: N_19  and  C_20
REMARK    4  A    between atoms: C_20  and  C_21
REMARK                            x       y       z     vdW  Elec       q    Type
REMARK                         _______ _______ _______ _____ _____    ______ ____
ROOT
ATOM      1  C   UNL     1       0.522   9.965  21.722  0.00  0.00    +0.000 A 
ATOM      2  C   UNL     1      -0.105   9.641  22.922  0.00  0.00    +0.000 A 
ATOM      3  C   UNL     1      -1.222  10.367  23.341  0.00  0.00    +0.000 A 
ATOM      4  C   UNL     1      -1.708  11.431  22.569  0.00  0.00    +0.000 A 
ATOM      5  C   UNL     1      -1.094  11.782  21.366  0.00  0.00    +0.000 A 
ATOM      6  C   UNL     1       0.023  11.032  20.962  0.00  0.00    +0.000 A 
ATOM      7  F   UNL     1       0.653  11.365  19.827  0.00  0.00    +0.000 F 
ATOM      8  C   UNL     1      -1.588  12.975  20.563  0.00  0.00    +0.000 C 
ATOM      9  C   UNL     1      -0.556  14.124  20.588  0.00  0.00    +0.000 C 
ATOM     10  C   UNL     1      -0.028  14.154  19.185  0.00  0.00    +0.000 C 
ATOM     11  O   UNL     1       0.966  14.765  18.828  0.00  0.00    +0.000 OA
ATOM     12  N   UNL     1      -0.832  13.420  18.386  0.00  0.00    +0.000 N 
ATOM     13  C   UNL     1      -1.710  12.648  19.086  0.00  0.00    +0.000 C 
ATOM     14  O   UNL     1      -2.411  11.776  18.599  0.00  0.00    +0.000 OA
ATOM     15  C   UNL     1      -2.877  13.571  21.103  0.00  0.00    +0.000 C 
ATOM     16  O   UNL     1      -3.654  14.207  20.393  0.00  0.00    +0.000 OA
ATOM     17  N   UNL     1      -3.025  13.466  22.478  0.00  0.00    +0.000 N 
ATOM     18  C   UNL     1      -2.805  12.259  23.118  0.00  0.00    +0.000 C 
ATOM     19  O   UNL     1      -3.429  11.876  24.100  0.00  0.00    +0.000 OA
ATOM     20  H   UNL     1      -0.647  13.279  17.407  0.00  0.00    +0.000 HD
ENDROOT
BRANCH   1  22
ATOM     21  C   UNL     1       1.459   8.038  20.713  0.00  0.00    +0.000 C 
ATOM     22  O   UNL     1       1.640   9.351  21.231  0.00  0.00    +0.000 OA
ENDBRANCH   1  22
BRANCH  17  23
ATOM     23  C   UNL     1      -3.786  14.493  23.189  0.00  0.00    +0.000 C 
BRANCH  23  24
ATOM     24  C   UNL     1      -2.813  15.340  23.988  0.00  0.00    +0.000 A 
ATOM     25  C   UNL     1      -2.539  15.052  25.334  0.00  0.00    +0.000 A 
ATOM     26  C   UNL     1      -1.534  15.744  26.017  0.00  0.00    +0.000 A 
ATOM     27  C   UNL     1      -0.800  16.728  25.359  0.00  0.00    +0.000 A 
ATOM     28 BR   UNL     1       0.607  17.614  26.264  0.00  0.00    +0.000 Br
ATOM     29  C   UNL     1      -1.071  17.045  24.033  0.00  0.00    +0.000 A 
ATOM     30  C   UNL     1      -2.075  16.351  23.362  0.00  0.00    +0.000 A 
ATOM     31  F   UNL     1      -2.294  16.626  22.071  0.00  0.00    +0.000 F 
ENDBRANCH  23  24
ENDBRANCH  17  23
TORSDOF 3
ENDMDL
MODEL 7
REMARK VINA RESULT:      -6.2      3.509      5.765
REMARK  Name = 
REMARK  4 active torsions:
REMARK  status: ('A' for Active; 'I' for Inactive)
REMARK    1  A    between atoms: C_1  and  O_2
REMARK    2  A    between atoms: O_2  and  C_3
REMARK    3  A    between atoms: N_19  and  C_20
REMARK    4  A    between atoms: C_20  and  C_21
REMARK                            x       y       z     vdW  Elec       q    Type
REMARK                         _______ _______ _______ _____ _____    ______ ____
ROOT
ATOM      1  C   UNL     1       0.662   9.613  21.520  0.00  0.00    +0.000 A 
ATOM      2  C   UNL     1       0.040   9.384  22.743  0.00  0.00    +0.000 A 
ATOM      3  C   UNL     1      -0.967  10.246  23.182  0.00  0.00    +0.000 A 
ATOM      4  C   UNL     1      -1.346  11.350  22.406  0.00  0.00    +0.000 A 
ATOM      5  C   UNL     1      -0.732  11.608  21.179  0.00  0.00    +0.000 A 
ATOM      6  C   UNL     1       0.272  10.721  20.756  0.00  0.00    +0.000 A 
ATOM      7  F   UNL     1       0.901  10.959  19.596  0.00  0.00    +0.000 F 
ATOM      8  C   UNL     1      -1.103  12.841  20.370  0.00  0.00    +0.000 C 
ATOM      9  C   UNL     1       0.060  13.856  20.344  0.00  0.00    +0.000 C 
ATOM     10  C   UNL     1       0.543  13.801  18.926  0.00  0.00    +0.000 C 
ATOM     11  O   UNL     1       1.592  14.282  18.528  0.00  0.00    +0.000 OA
ATOM     12  N   UNL     1      -0.368  13.160  18.164  0.00  0.00    +0.000 N 
ATOM     13  C   UNL     1      -1.311  12.510  18.904  0.00  0.00    +0.000 C 
ATOM     14  O   UNL     1      -2.128  11.723  18.454  0.00  0.00    +0.000 OA
ATOM     15  C   UNL     1      -2.293  13.597  20.938  0.00  0.00    +0.000 C 
ATOM     16  O   UNL     1      -3.009  14.313  20.240  0.00  0.00    +0.000 OA
ATOM     17  N   UNL     1      -2.408  13.530  22.319  0.00  0.00    +0.000 N 
ATOM     18  C   UNL     1      -2.316  12.314  22.973  0.00  0.00    +0.000 C 
ATOM     19  O   UNL     1      -2.951  12.023  23.980  0.00  0.00    +0.000 OA
ATOM     20  H   UNL     1      -0.233  12.983  17.182  0.00  0.00    +0.000 HD
ENDROOT
BRANCH   1  22
ATOM     21  C   UNL     1       1.431   7.465  20.883  0.00  0.00    +0.000 C 
ATOM     22  O   UNL     1       1.682   8.860  21.006  0.00  0.00    +0.000 OA
ENDBRANCH   1  22
BRANCH  17  23
ATOM     23  C   UNL     1      -3.017  14.652  23.034  0.00  0.00    +0.000 C 
BRANCH  23  24
ATOM     24  C   UNL     1      -1.954  15.290  23.910  0.00  0.00    +0.000 A 
ATOM     25  C   UNL     1      -0.914  16.048  23.350  0.00  0.00    +0.000 A 
ATOM     26  C   UNL     1      -0.028  16.752  24.171  0.00  0.00    +0.000 A 
ATOM     27  C   UNL     1      -0.176  16.700  25.556  0.00  0.00    +0.000 A 
ATOM     28 BR   UNL     1       0.981  17.709  26.663  0.00  0.00    +0.000 Br
ATOM     29  C   UNL     1      -1.185  15.936  26.131  0.00  0.00    +0.000 A 
ATOM     30  C   UNL     1      -2.061  15.237  25.304  0.00  0.00    +0.000 A 
ATOM     31  F   UNL     1      -3.061  14.547  25.865  0.00  0.00    +0.000 F 
ENDBRANCH  23  24
ENDBRANCH  17  23
TORSDOF 3
ENDMDL
MODEL 8
REMARK VINA RESULT:      -6.2      3.374      6.432
REMARK  Name = 
REMARK  4 active torsions:
REMARK  status: ('A' for Active; 'I' for Inactive)
REMARK    1  A    between atoms: C_1  and  O_2
REMARK    2  A    between atoms: O_2  and  C_3
REMARK    3  A    between atoms: N_19  and  C_20
REMARK    4  A    between atoms: C_20  and  C_21
REMARK                            x       y       z     vdW  Elec       q    Type
REMARK                         _______ _______ _______ _____ _____    ______ ____
ROOT
ATOM      1  C   UNL     1       0.496  17.846  17.898  0.00  0.00    +0.000 A 
ATOM      2  C   UNL     1      -0.861  18.018  18.155  0.00  0.00    +0.000 A 
ATOM      3  C   UNL     1      -1.526  17.129  19.001  0.00  0.00    +0.000 A 
ATOM      4  C   UNL     1      -0.841  16.053  19.582  0.00  0.00    +0.000 A 
ATOM      5  C   UNL     1       0.518  15.852  19.336  0.00  0.00    +0.000 A 
ATOM      6  C   UNL     1       1.167  16.766  18.488  0.00  0.00    +0.000 A 
ATOM      7  F   UNL     1       2.465  16.582  18.206  0.00  0.00    +0.000 F 
ATOM      8  C   UNL     1       1.243  14.650  19.919  0.00  0.00    +0.000 C 
ATOM      9  C   UNL     1       1.635  13.649  18.811  0.00  0.00    +0.000 C 
ATOM     10  C   UNL     1       3.128  13.766  18.742  0.00  0.00    +0.000 C 
ATOM     11  O   UNL     1       3.822  13.313  17.846  0.00  0.00    +0.000 OA
ATOM     12  N   UNL     1       3.578  14.429  19.828  0.00  0.00    +0.000 N 
ATOM     13  C   UNL     1       2.578  15.038  20.526  0.00  0.00    +0.000 C 
ATOM     14  O   UNL     1       2.750  15.834  21.435  0.00  0.00    +0.000 OA
ATOM     15  C   UNL     1       0.399  13.859  20.905  0.00  0.00    +0.000 C 
ATOM     16  O   UNL     1       0.899  13.165  21.788  0.00  0.00    +0.000 OA
ATOM     17  N   UNL     1      -0.961  13.869  20.630  0.00  0.00    +0.000 N 
ATOM     18  C   UNL     1      -1.614  15.057  20.357  0.00  0.00    +0.000 C 
ATOM     19  O   UNL     1      -2.770  15.301  20.686  0.00  0.00    +0.000 OA
ATOM     20  H   UNL     1       4.550  14.646  19.972  0.00  0.00    +0.000 HD
ENDROOT
BRANCH   1  22
ATOM     21  C   UNL     1       0.978  18.488  15.669  0.00  0.00    +0.000 C 
ATOM     22  O   UNL     1       1.241  18.629  17.061  0.00  0.00    +0.000 OA
ENDBRANCH   1  22
BRANCH  17  23
ATOM     23  C   UNL     1      -1.769  12.712  21.017  0.00  0.00    +0.000 C 
BRANCH  23  24
ATOM     24  C   UNL     1      -2.101  11.923  19.764  0.00  0.00    +0.000 A 
ATOM     25  C   UNL     1      -3.264  12.192  19.026  0.00  0.00    +0.000 A 
ATOM     26  C   UNL     1      -3.486  11.562  17.798  0.00  0.00    +0.000 A 
ATOM     27  C   UNL     1      -2.547  10.660  17.301  0.00  0.00    +0.000 A 
ATOM     28 BR   UNL     1      -2.815   9.863  15.606  0.00  0.00    +0.000 Br
ATOM     29  C   UNL     1      -1.400  10.362  18.027  0.00  0.00    +0.000 A 
ATOM     30  C   UNL     1      -1.189  10.994  19.251  0.00  0.00    +0.000 A 
ATOM     31  F   UNL     1      -0.057  10.740  19.919  0.00  0.00    +0.000 F 
ENDBRANCH  23  24
ENDBRANCH  17  23
TORSDOF 3
ENDMDL
MODEL 9
REMARK VINA RESULT:      -6.2      1.259      1.572
REMARK  Name = 
REMARK  4 active torsions:
REMARK  status: ('A' for Active; 'I' for Inactive)
REMARK    1  A    between atoms: C_1  and  O_2
REMARK    2  A    between atoms: O_2  and  C_3
REMARK    3  A    between atoms: N_19  and  C_20
REMARK    4  A    between atoms: C_20  and  C_21
REMARK                            x       y       z     vdW  Elec       q    Type
REMARK                         _______ _______ _______ _____ _____    ______ ____
ROOT
ATOM      1  C   UNL     1      -5.183  12.515  19.109  0.00  0.00    +0.000 A 
ATOM      2  C   UNL     1      -4.515  11.688  18.211  0.00  0.00    +0.000 A 
ATOM      3  C   UNL     1      -3.214  11.265  18.492  0.00  0.00    +0.000 A 
ATOM      4  C   UNL     1      -2.570  11.681  19.666  0.00  0.00    +0.000 A 
ATOM      5  C   UNL     1      -3.214  12.516  20.580  0.00  0.00    +0.000 A 
ATOM      6  C   UNL     1      -4.525  12.920  20.278  0.00  0.00    +0.000 A 
ATOM      7  F   UNL     1      -5.160  13.748  21.121  0.00  0.00    +0.000 F 
ATOM      8  C   UNL     1      -2.490  13.014  21.821  0.00  0.00    +0.000 C 
ATOM      9  C   UNL     1      -2.215  14.530  21.730  0.00  0.00    +0.000 C 
ATOM     10  C   UNL     1      -3.135  15.117  22.758  0.00  0.00    +0.000 C 
ATOM     11  O   UNL     1      -3.400  16.304  22.860  0.00  0.00    +0.000 OA
ATOM     12  N   UNL     1      -3.603  14.134  23.556  0.00  0.00    +0.000 N 
ATOM     13  C   UNL     1      -3.352  12.889  23.063  0.00  0.00    +0.000 C 
ATOM     14  O   UNL     1      -3.825  11.856  23.509  0.00  0.00    +0.000 OA
ATOM     15  C   UNL     1      -1.132  12.363  22.026  0.00  0.00    +0.000 C 
ATOM     16  O   UNL     1      -0.607  12.276  23.134  0.00  0.00    +0.000 OA
ATOM     17  N   UNL     1      -0.480  12.018  20.851  0.00  0.00    +0.000 N 
ATOM     18  C   UNL     1      -1.146  11.325  19.855  0.00  0.00    +0.000 C 
ATOM     19  O   UNL     1      -0.622  10.488  19.129  0.00  0.00    +0.000 OA
ATOM     20  H   UNL     1      -4.262  14.301  24.299  0.00  0.00    +0.000 HD
ENDROOT
BRANCH   1  22
ATOM     21  C   UNL     1      -7.138  12.558  17.771  0.00  0.00    +0.000 C 
ATOM     22  O   UNL     1      -6.441  13.018  18.923  0.00  0.00    +0.000 OA
ENDBRANCH   1  22
BRANCH  17  23
ATOM     23  C   UNL     1       0.983  12.022  20.825  0.00  0.00    +0.000 C 
BRANCH  23  24
ATOM     24  C   UNL     1       1.440  13.158  19.928  0.00  0.00    +0.000 A 
ATOM     25  C   UNL     1       1.345  14.494  20.346  0.00  0.00    +0.000 A 
ATOM     26  C   UNL     1       1.902  15.520  19.575  0.00  0.00    +0.000 A 
ATOM     27  C   UNL     1       2.554  15.215  18.383  0.00  0.00    +0.000 A 
ATOM     28 BR   UNL     1       3.368  16.596  17.377  0.00  0.00    +0.000 Br
ATOM     29  C   UNL     1       2.638  13.900  17.938  0.00  0.00    +0.000 A 
ATOM     30  C   UNL     1       2.079  12.886  18.713  0.00  0.00    +0.000 A 
ATOM     31  F   UNL     1       2.210  11.618  18.304  0.00  0.00    +0.000 F 
ENDBRANCH  23  24
ENDBRANCH  17  23
TORSDOF 3
ENDMDL
