MODEL 1
REMARK VINA RESULT:      -7.3      0.000      0.000
REMARK  Name = 
REMARK  9 active torsions:
REMARK  status: ('A' for Active; 'I' for Inactive)
REMARK    1  A    between atoms: C_1  and  C_2
REMARK    2  A    between atoms: C_2  and  C_3
REMARK    3  A    between atoms: C_8  and  N_9
REMARK    4  A    between atoms: C_10  and  C_12
REMARK    5  A    between atoms: C_12  and  N_13
REMARK    6  A    between atoms: N_13  and  C_14
REMARK    7  A    between atoms: N_13  and  C_15
REMARK    8  A    between atoms: C_15  and  C_16
REMARK    9  A    between atoms: C_15  and  C_17
REMARK                            x       y       z     vdW  Elec       q    Type
REMARK                         _______ _______ _______ _____ _____    ______ ____
ROOT
ATOM      1  N   UNL     1      -0.001   9.227  21.304  0.00  0.00    +0.000 NA
ATOM      2  C   UNL     1      -0.461   9.170  22.702  0.00  0.00    +0.000 C 
ENDROOT
BRANCH   1   3
ATOM      3  C   UNL     1      -0.239  10.608  20.752  0.00  0.00    +0.000 C 
ATOM      4  C   UNL     1       0.932  11.605  20.867  0.00  0.00    +0.000 C 
BRANCH   3   5
ATOM      5  C   UNL     1      -0.673  10.555  19.267  0.00  0.00    +0.000 C 
ATOM      6  O   UNL     1       0.131  10.737  18.352  0.00  0.00    +0.000 OA
ATOM      7  N   UNL     1      -2.023  10.344  19.070  0.00  0.00    +0.000 N 
ATOM      8  C   UNL     1      -2.574  10.246  17.794  0.00  0.00    +0.000 A 
ATOM      9  C   UNL     1      -1.917   9.558  16.774  0.00  0.00    +0.000 A 
ATOM     10  C   UNL     1      -2.441   9.595  15.485  0.00  0.00    +0.000 A 
ATOM     11  C   UNL     1      -3.592  10.333  15.259  0.00  0.00    +0.000 A 
ATOM     12 CL   UNL     1      -4.224  10.504  13.673  0.00  0.00    +0.000 Cl
ATOM     13  C   UNL     1      -4.215  10.937  16.345  0.00  0.00    +0.000 A 
ATOM     14  N   UNL     1      -3.751  10.874  17.620  0.00  0.00    +0.000 NA
ATOM     15  H   UNL     1      -2.652  10.653  19.798  0.00  0.00    +0.000 HD
ENDBRANCH   3   5
ENDBRANCH   1   3
BRANCH   1  16
ATOM     16  C   UNL     1       1.446   8.885  21.227  0.00  0.00    +0.000 C 
BRANCH  16  18
ATOM     17  N   UNL     1       2.074   6.629  20.405  0.00  0.00    +0.000 N 
ATOM     18  C   UNL     1       1.842   7.955  20.079  0.00  0.00    +0.000 C 
ATOM     19  O   UNL     1       1.839   8.433  18.936  0.00  0.00    +0.000 OA
ATOM     20  H   UNL     1       1.923   6.378  21.375  0.00  0.00    +0.000 HD
BRANCH  17  26
ATOM     21  C   UNL     1       2.043   4.270  19.668  0.00  0.00    +0.000 A 
ATOM     22  C   UNL     1       2.469   3.289  18.735  0.00  0.00    +0.000 A 
ATOM     23  C   UNL     1       3.274   3.615  17.646  0.00  0.00    +0.000 A 
ATOM     24  C   UNL     1       3.693   4.920  17.475  0.00  0.00    +0.000 A 
ATOM     25  C   UNL     1       3.301   5.896  18.395  0.00  0.00    +0.000 A 
ATOM     26  C   UNL     1       2.473   5.602  19.498  0.00  0.00    +0.000 A 
BRANCH  21  28
ATOM     27  C   UNL     1       1.657   2.638  21.568  0.00  0.00    +0.000 C 
ATOM     28  C   UNL     1       1.106   3.802  20.756  0.00  0.00    +0.000 C 
ENDBRANCH  21  28
ENDBRANCH  17  26
ENDBRANCH  16  18
ENDBRANCH   1  16
TORSDOF 6
ENDMDL
MODEL 2
REMARK VINA RESULT:      -7.3      6.435      9.128
REMARK  Name = 
REMARK  9 active torsions:
REMARK  status: ('A' for Active; 'I' for Inactive)
REMARK    1  A    between atoms: C_1  and  C_2
REMARK    2  A    between atoms: C_2  and  C_3
REMARK    3  A    between atoms: C_8  and  N_9
REMARK    4  A    between atoms: C_10  and  C_12
REMARK    5  A    between atoms: C_12  and  N_13
REMARK    6  A    between atoms: N_13  and  C_14
REMARK    7  A    between atoms: N_13  and  C_15
REMARK    8  A    between atoms: C_15  and  C_16
REMARK    9  A    between atoms: C_15  and  C_17
REMARK                            x       y       z     vdW  Elec       q    Type
REMARK                         _______ _______ _______ _____ _____    ______ ____
ROOT
ATOM      1  N   UNL     1       6.912   6.165  17.037  0.00  0.00    +0.000 NA
ATOM      2  C   UNL     1       5.586   6.681  16.657  0.00  0.00    +0.000 C 
ENDROOT
BRANCH   1   3
ATOM      3  C   UNL     1       7.387   6.868  18.283  0.00  0.00    +0.000 C 
ATOM      4  C   UNL     1       8.323   6.066  19.208  0.00  0.00    +0.000 C 
BRANCH   3   5
ATOM      5  C   UNL     1       8.086   8.206  17.944  0.00  0.00    +0.000 C 
ATOM      6  O   UNL     1       8.308   8.543  16.781  0.00  0.00    +0.000 OA
ATOM      7  N   UNL     1       8.478   8.944  19.044  0.00  0.00    +0.000 N 
ATOM      8  C   UNL     1       9.099  10.184  18.914  0.00  0.00    +0.000 A 
ATOM      9  C   UNL     1       8.683  11.104  17.952  0.00  0.00    +0.000 A 
ATOM     10  C   UNL     1       9.414  12.275  17.773  0.00  0.00    +0.000 A 
ATOM     11  C   UNL     1      10.545  12.474  18.549  0.00  0.00    +0.000 A 
ATOM     12 CL   UNL     1      11.546  13.846  18.299  0.00  0.00    +0.000 Cl
ATOM     13  C   UNL     1      10.852  11.534  19.525  0.00  0.00    +0.000 A 
ATOM     14  N   UNL     1      10.126  10.409  19.753  0.00  0.00    +0.000 NA
ATOM     15  H   UNL     1       8.680   8.438  19.894  0.00  0.00    +0.000 HD
ENDBRANCH   3   5
ENDBRANCH   1   3
BRANCH   1  16
ATOM     16  C   UNL     1       6.843   4.696  17.269  0.00  0.00    +0.000 C 
BRANCH  16  18
ATOM     17  N   UNL     1       4.500   3.884  17.361  0.00  0.00    +0.000 N 
ATOM     18  C   UNL     1       5.638   4.215  18.078  0.00  0.00    +0.000 C 
ATOM     19  O   UNL     1       5.796   4.072  19.299  0.00  0.00    +0.000 OA
ATOM     20  H   UNL     1       4.576   3.952  16.353  0.00  0.00    +0.000 HD
BRANCH  17  26
ATOM     21  C   UNL     1       2.276   4.350  18.333  0.00  0.00    +0.000 A 
ATOM     22  C   UNL     1       1.064   3.847  18.875  0.00  0.00    +0.000 A 
ATOM     23  C   UNL     1       0.818   2.480  18.978  0.00  0.00    +0.000 A 
ATOM     24  C   UNL     1       1.783   1.582  18.565  0.00  0.00    +0.000 A 
ATOM     25  C   UNL     1       2.991   2.057  18.048  0.00  0.00    +0.000 A 
ATOM     26  C   UNL     1       3.264   3.435  17.915  0.00  0.00    +0.000 A 
BRANCH  21  28
ATOM     27  C   UNL     1       2.485   6.568  19.539  0.00  0.00    +0.000 C 
ATOM     28  C   UNL     1       2.383   5.850  18.201  0.00  0.00    +0.000 C 
ENDBRANCH  21  28
ENDBRANCH  17  26
ENDBRANCH  16  18
ENDBRANCH   1  16
TORSDOF 6
ENDMDL
MODEL 3
REMARK VINA RESULT:      -7.2      4.500      8.105
REMARK  Name = 
REMARK  9 active torsions:
REMARK  status: ('A' for Active; 'I' for Inactive)
REMARK    1  A    between atoms: C_1  and  C_2
REMARK    2  A    between atoms: C_2  and  C_3
REMARK    3  A    between atoms: C_8  and  N_9
REMARK    4  A    between atoms: C_10  and  C_12
REMARK    5  A    between atoms: C_12  and  N_13
REMARK    6  A    between atoms: N_13  and  C_14
REMARK    7  A    between atoms: N_13  and  C_15
REMARK    8  A    between atoms: C_15  and  C_16
REMARK    9  A    between atoms: C_15  and  C_17
REMARK                            x       y       z     vdW  Elec       q    Type
REMARK                         _______ _______ _______ _____ _____    ______ ____
ROOT
ATOM      1  N   UNL     1       2.665   2.413  20.919  0.00  0.00    +0.000 NA
ATOM      2  C   UNL     1       1.993   2.122  19.641  0.00  0.00    +0.000 C 
ENDROOT
BRANCH   1   3
ATOM      3  C   UNL     1       4.150   2.528  20.691  0.00  0.00    +0.000 C 
ATOM      4  C   UNL     1       5.012   1.343  21.171  0.00  0.00    +0.000 C 
BRANCH   3   5
ATOM      5  C   UNL     1       4.474   2.776  19.198  0.00  0.00    +0.000 C 
ATOM      6  O   UNL     1       4.057   2.028  18.313  0.00  0.00    +0.000 OA
ATOM      7  N   UNL     1       5.299   3.858  18.961  0.00  0.00    +0.000 N 
ATOM      8  C   UNL     1       5.668   4.233  17.671  0.00  0.00    +0.000 A 
ATOM      9  C   UNL     1       4.752   4.200  16.619  0.00  0.00    +0.000 A 
ATOM     10  C   UNL     1       5.196   4.459  15.325  0.00  0.00    +0.000 A 
ATOM     11  C   UNL     1       6.543   4.722  15.129  0.00  0.00    +0.000 A 
ATOM     12 CL   UNL     1       7.168   4.943  13.545  0.00  0.00    +0.000 Cl
ATOM     13  C   UNL     1       7.373   4.795  16.240  0.00  0.00    +0.000 A 
ATOM     14  N   UNL     1       6.954   4.596  17.517  0.00  0.00    +0.000 NA
ATOM     15  H   UNL     1       5.940   4.122  19.695  0.00  0.00    +0.000 HD
ENDBRANCH   3   5
ENDBRANCH   1   3
BRANCH   1  16
ATOM     16  C   UNL     1       2.134   3.676  21.500  0.00  0.00    +0.000 C 
BRANCH  16  18
ATOM     17  N   UNL     1       2.438   5.951  20.557  0.00  0.00    +0.000 N 
ATOM     18  C   UNL     1       1.745   4.754  20.487  0.00  0.00    +0.000 C 
ATOM     19  O   UNL     1       0.908   4.448  19.627  0.00  0.00    +0.000 OA
ATOM     20  H   UNL     1       3.175   5.998  21.252  0.00  0.00    +0.000 HD
BRANCH  17  26
ATOM     21  C   UNL     1       1.596   8.251  20.227  0.00  0.00    +0.000 A 
ATOM     22  C   UNL     1       1.408   9.357  19.357  0.00  0.00    +0.000 A 
ATOM     23  C   UNL     1       1.852   9.334  18.037  0.00  0.00    +0.000 A 
ATOM     24  C   UNL     1       2.471   8.200  17.546  0.00  0.00    +0.000 A 
ATOM     25  C   UNL     1       2.646   7.094  18.381  0.00  0.00    +0.000 A 
ATOM     26  C   UNL     1       2.223   7.092  19.727  0.00  0.00    +0.000 A 
BRANCH  21  28
ATOM     27  C   UNL     1      -0.344   8.739  21.783  0.00  0.00    +0.000 C 
ATOM     28  C   UNL     1       1.143   8.435  21.655  0.00  0.00    +0.000 C 
ENDBRANCH  21  28
ENDBRANCH  17  26
ENDBRANCH  16  18
ENDBRANCH   1  16
TORSDOF 6
ENDMDL
MODEL 4
REMARK VINA RESULT:      -7.1      6.404      9.147
REMARK  Name = 
REMARK  9 active torsions:
REMARK  status: ('A' for Active; 'I' for Inactive)
REMARK    1  A    between atoms: C_1  and  C_2
REMARK    2  A    between atoms: C_2  and  C_3
REMARK    3  A    between atoms: C_8  and  N_9
REMARK    4  A    between atoms: C_10  and  C_12
REMARK    5  A    between atoms: C_12  and  N_13
REMARK    6  A    between atoms: N_13  and  C_14
REMARK    7  A    between atoms: N_13  and  C_15
REMARK    8  A    between atoms: C_15  and  C_16
REMARK    9  A    between atoms: C_15  and  C_17
REMARK                            x       y       z     vdW  Elec       q    Type
REMARK                         _______ _______ _______ _____ _____    ______ ____
ROOT
ATOM      1  N   UNL     1       7.201   5.845  17.064  0.00  0.00    +0.000 NA
ATOM      2  C   UNL     1       6.051   6.371  16.308  0.00  0.00    +0.000 C 
ENDROOT
BRANCH   1   3
ATOM      3  C   UNL     1       7.415   6.682  18.299  0.00  0.00    +0.000 C 
ATOM      4  C   UNL     1       8.219   6.027  19.440  0.00  0.00    +0.000 C 
BRANCH   3   5
ATOM      5  C   UNL     1       8.090   8.031  17.956  0.00  0.00    +0.000 C 
ATOM      6  O   UNL     1       8.324   8.360  16.793  0.00  0.00    +0.000 OA
ATOM      7  N   UNL     1       8.446   8.791  19.053  0.00  0.00    +0.000 N 
ATOM      8  C   UNL     1       9.042  10.043  18.919  0.00  0.00    +0.000 A 
ATOM      9  C   UNL     1       8.622  10.942  17.939  0.00  0.00    +0.000 A 
ATOM     10  C   UNL     1       9.329  12.127  17.758  0.00  0.00    +0.000 A 
ATOM     11  C   UNL     1      10.443  12.360  18.550  0.00  0.00    +0.000 A 
ATOM     12 CL   UNL     1      11.417  13.752  18.301  0.00  0.00    +0.000 Cl
ATOM     13  C   UNL     1      10.754  11.440  19.543  0.00  0.00    +0.000 A 
ATOM     14  N   UNL     1      10.050  10.301  19.772  0.00  0.00    +0.000 NA
ATOM     15  H   UNL     1       8.645   8.300  19.913  0.00  0.00    +0.000 HD
ENDBRANCH   3   5
ENDBRANCH   1   3
BRANCH   1  16
ATOM     16  C   UNL     1       6.960   4.425  17.440  0.00  0.00    +0.000 C 
BRANCH  16  18
ATOM     17  N   UNL     1       4.998   4.185  18.941  0.00  0.00    +0.000 N 
ATOM     18  C   UNL     1       5.495   4.042  17.656  0.00  0.00    +0.000 C 
ATOM     19  O   UNL     1       4.840   3.718  16.655  0.00  0.00    +0.000 OA
ATOM     20  H   UNL     1       5.640   4.571  19.624  0.00  0.00    +0.000 HD
BRANCH  17  26
ATOM     21  C   UNL     1       2.738   4.881  19.658  0.00  0.00    +0.000 A 
ATOM     22  C   UNL     1       1.433   4.507  20.076  0.00  0.00    +0.000 A 
ATOM     23  C   UNL     1       1.050   3.172  20.177  0.00  0.00    +0.000 A 
ATOM     24  C   UNL     1       1.964   2.178  19.886  0.00  0.00    +0.000 A 
ATOM     25  C   UNL     1       3.260   2.525  19.494  0.00  0.00    +0.000 A 
ATOM     26  C   UNL     1       3.673   3.867  19.366  0.00  0.00    +0.000 A 
BRANCH  21  28
ATOM     27  C   UNL     1       2.821   6.867  18.087  0.00  0.00    +0.000 C 
ATOM     28  C   UNL     1       2.999   6.360  19.511  0.00  0.00    +0.000 C 
ENDBRANCH  21  28
ENDBRANCH  17  26
ENDBRANCH  16  18
ENDBRANCH   1  16
TORSDOF 6
ENDMDL
MODEL 5
REMARK VINA RESULT:      -7.0      3.879      8.527
REMARK  Name = 
REMARK  9 active torsions:
REMARK  status: ('A' for Active; 'I' for Inactive)
REMARK    1  A    between atoms: C_1  and  C_2
REMARK    2  A    between atoms: C_2  and  C_3
REMARK    3  A    between atoms: C_8  and  N_9
REMARK    4  A    between atoms: C_10  and  C_12
REMARK    5  A    between atoms: C_12  and  N_13
REMARK    6  A    between atoms: N_13  and  C_14
REMARK    7  A    between atoms: N_13  and  C_15
REMARK    8  A    between atoms: C_15  and  C_16
REMARK    9  A    between atoms: C_15  and  C_17
REMARK                            x       y       z     vdW  Elec       q    Type
REMARK                         _______ _______ _______ _____ _____    ______ ____
ROOT
ATOM      1  N   UNL     1       2.655   4.469  19.589  0.00  0.00    +0.000 NA
ATOM      2  C   UNL     1       1.862   3.916  18.478  0.00  0.00    +0.000 C 
ENDROOT
BRANCH   1   3
ATOM      3  C   UNL     1       4.029   3.851  19.583  0.00  0.00    +0.000 C 
ATOM      4  C   UNL     1       4.088   2.312  19.507  0.00  0.00    +0.000 C 
BRANCH   3   5
ATOM      5  C   UNL     1       4.897   4.416  18.432  0.00  0.00    +0.000 C 
ATOM      6  O   UNL     1       5.389   5.543  18.488  0.00  0.00    +0.000 OA
ATOM      7  N   UNL     1       5.019   3.579  17.340  0.00  0.00    +0.000 N 
ATOM      8  C   UNL     1       5.785   3.927  16.230  0.00  0.00    +0.000 A 
ATOM      9  C   UNL     1       7.016   4.568  16.373  0.00  0.00    +0.000 A 
ATOM     10  C   UNL     1       7.686   5.011  15.236  0.00  0.00    +0.000 A 
ATOM     11  C   UNL     1       7.092   4.813  13.999  0.00  0.00    +0.000 A 
ATOM     12 CL   UNL     1       7.818   5.432  12.572  0.00  0.00    +0.000 Cl
ATOM     13  C   UNL     1       5.894   4.112  13.944  0.00  0.00    +0.000 A 
ATOM     14  N   UNL     1       5.246   3.626  15.035  0.00  0.00    +0.000 NA
ATOM     15  H   UNL     1       4.267   2.927  17.169  0.00  0.00    +0.000 HD
ENDBRANCH   3   5
ENDBRANCH   1   3
BRANCH   1  16
ATOM     16  C   UNL     1       2.756   5.949  19.459  0.00  0.00    +0.000 C 
BRANCH  16  18
ATOM     17  N   UNL     1       1.740   8.120  20.100  0.00  0.00    +0.000 N 
ATOM     18  C   UNL     1       1.774   6.752  20.313  0.00  0.00    +0.000 C 
ATOM     19  O   UNL     1       1.023   6.115  21.064  0.00  0.00    +0.000 OA
ATOM     20  H   UNL     1       2.344   8.470  19.365  0.00  0.00    +0.000 HD
BRANCH  17  26
ATOM     21  C   UNL     1       0.196  10.050  20.106  0.00  0.00    +0.000 A 
ATOM     22  C   UNL     1      -0.607  10.954  20.851  0.00  0.00    +0.000 A 
ATOM     23  C   UNL     1      -0.718  10.865  22.236  0.00  0.00    +0.000 A 
ATOM     24  C   UNL     1      -0.015   9.888  22.914  0.00  0.00    +0.000 A 
ATOM     25  C   UNL     1       0.797   9.002  22.201  0.00  0.00    +0.000 A 
ATOM     26  C   UNL     1       0.919   9.056  20.797  0.00  0.00    +0.000 A 
BRANCH  21  28
ATOM     27  C   UNL     1      -1.243  10.279  18.033  0.00  0.00    +0.000 C 
ATOM     28  C   UNL     1       0.166  10.204  18.605  0.00  0.00    +0.000 C 
ENDBRANCH  21  28
ENDBRANCH  17  26
ENDBRANCH  16  18
ENDBRANCH   1  16
TORSDOF 6
ENDMDL
MODEL 6
REMARK VINA RESULT:      -7.0      4.393      8.090
REMARK  Name = 
REMARK  9 active torsions:
REMARK  status: ('A' for Active; 'I' for Inactive)
REMARK    1  A    between atoms: C_1  and  C_2
REMARK    2  A    between atoms: C_2  and  C_3
REMARK    3  A    between atoms: C_8  and  N_9
REMARK    4  A    between atoms: C_10  and  C_12
REMARK    5  A    between atoms: C_12  and  N_13
REMARK    6  A    between atoms: N_13  and  C_14
REMARK    7  A    between atoms: N_13  and  C_15
REMARK    8  A    between atoms: C_15  and  C_16
REMARK    9  A    between atoms: C_15  and  C_17
REMARK                            x       y       z     vdW  Elec       q    Type
REMARK                         _______ _______ _______ _____ _____    ______ ____
ROOT
ATOM      1  N   UNL     1       2.374   2.709  20.106  0.00  0.00    +0.000 NA
ATOM      2  C   UNL     1       1.461   2.963  18.978  0.00  0.00    +0.000 C 
ENDROOT
BRANCH   1   3
ATOM      3  C   UNL     1       3.712   2.262  19.578  0.00  0.00    +0.000 C 
ATOM      4  C   UNL     1       3.709   1.021  18.664  0.00  0.00    +0.000 C 
BRANCH   3   5
ATOM      5  C   UNL     1       4.431   3.406  18.822  0.00  0.00    +0.000 C 
ATOM      6  O   UNL     1       4.326   3.542  17.604  0.00  0.00    +0.000 OA
ATOM      7  N   UNL     1       5.227   4.208  19.617  0.00  0.00    +0.000 N 
ATOM      8  C   UNL     1       5.924   5.297  19.099  0.00  0.00    +0.000 A 
ATOM      9  C   UNL     1       5.348   6.137  18.145  0.00  0.00    +0.000 A 
ATOM     10  C   UNL     1       6.124   7.133  17.561  0.00  0.00    +0.000 A 
ATOM     11  C   UNL     1       7.454   7.241  17.938  0.00  0.00    +0.000 A 
ATOM     12 CL   UNL     1       8.489   8.379  17.175  0.00  0.00    +0.000 Cl
ATOM     13  C   UNL     1       7.929   6.402  18.938  0.00  0.00    +0.000 A 
ATOM     14  N   UNL     1       7.178   5.456  19.559  0.00  0.00    +0.000 NA
ATOM     15  H   UNL     1       5.617   3.794  20.452  0.00  0.00    +0.000 HD
ENDBRANCH   3   5
ENDBRANCH   1   3
BRANCH   1  16
ATOM     16  C   UNL     1       2.529   3.942  20.925  0.00  0.00    +0.000 C 
BRANCH  16  18
ATOM     17  N   UNL     1       2.543   6.255  20.026  0.00  0.00    +0.000 N 
ATOM     18  C   UNL     1       1.775   5.170  20.414  0.00  0.00    +0.000 C 
ATOM     19  O   UNL     1       0.545   5.073  20.301  0.00  0.00    +0.000 OA
ATOM     20  H   UNL     1       3.547   6.128  20.077  0.00  0.00    +0.000 HD
BRANCH  17  26
ATOM     21  C   UNL     1       1.434   8.430  20.409  0.00  0.00    +0.000 A 
ATOM     22  C   UNL     1       0.958   9.657  19.873  0.00  0.00    +0.000 A 
ATOM     23  C   UNL     1       1.107   9.973  18.525  0.00  0.00    +0.000 A 
ATOM     24  C   UNL     1       1.711   9.067  17.675  0.00  0.00    +0.000 A 
ATOM     25  C   UNL     1       2.166   7.846  18.180  0.00  0.00    +0.000 A 
ATOM     26  C   UNL     1       2.046   7.502  19.542  0.00  0.00    +0.000 A 
BRANCH  21  28
ATOM     27  C   UNL     1       0.256   9.178  22.524  0.00  0.00    +0.000 C 
ATOM     28  C   UNL     1       1.284   8.245  21.900  0.00  0.00    +0.000 C 
ENDBRANCH  21  28
ENDBRANCH  17  26
ENDBRANCH  16  18
ENDBRANCH   1  16
TORSDOF 6
ENDMDL
MODEL 7
REMARK VINA RESULT:      -7.0      3.816      8.036
REMARK  Name = 
REMARK  9 active torsions:
REMARK  status: ('A' for Active; 'I' for Inactive)
REMARK    1  A    between atoms: C_1  and  C_2
REMARK    2  A    between atoms: C_2  and  C_3
REMARK    3  A    between atoms: C_8  and  N_9
REMARK    4  A    between atoms: C_10  and  C_12
REMARK    5  A    between atoms: C_12  and  N_13
REMARK    6  A    between atoms: N_13  and  C_14
REMARK    7  A    between atoms: N_13  and  C_15
REMARK    8  A    between atoms: C_15  and  C_16
REMARK    9  A    between atoms: C_15  and  C_17
REMARK                            x       y       z     vdW  Elec       q    Type
REMARK                         _______ _______ _______ _____ _____    ______ ____
ROOT
ATOM      1  N   UNL     1       2.633   4.377  20.492  0.00  0.00    +0.000 NA
ATOM      2  C   UNL     1       1.179   4.574  20.356  0.00  0.00    +0.000 C 
ENDROOT
BRANCH   1   3
ATOM      3  C   UNL     1       3.049   3.153  19.718  0.00  0.00    +0.000 C 
ATOM      4  C   UNL     1       1.967   2.076  19.504  0.00  0.00    +0.000 C 
BRANCH   3   5
ATOM      5  C   UNL     1       3.624   3.531  18.332  0.00  0.00    +0.000 C 
ATOM      6  O   UNL     1       3.006   3.302  17.292  0.00  0.00    +0.000 OA
ATOM      7  N   UNL     1       4.888   4.086  18.366  0.00  0.00    +0.000 N 
ATOM      8  C   UNL     1       5.539   4.504  17.207  0.00  0.00    +0.000 A 
ATOM      9  C   UNL     1       4.849   5.160  16.186  0.00  0.00    +0.000 A 
ATOM     10  C   UNL     1       5.511   5.444  14.995  0.00  0.00    +0.000 A 
ATOM     11  C   UNL     1       6.831   5.044  14.860  0.00  0.00    +0.000 A 
ATOM     12 CL   UNL     1       7.665   5.270  13.377  0.00  0.00    +0.000 Cl
ATOM     13  C   UNL     1       7.458   4.451  15.949  0.00  0.00    +0.000 A 
ATOM     14  N   UNL     1       6.849   4.209  17.139  0.00  0.00    +0.000 NA
ATOM     15  H   UNL     1       5.486   3.831  19.138  0.00  0.00    +0.000 HD
ENDBRANCH   3   5
ENDBRANCH   1   3
BRANCH   1  16
ATOM     16  C   UNL     1       3.360   5.575  19.991  0.00  0.00    +0.000 C 
BRANCH  16  18
ATOM     17  N   UNL     1       2.095   7.688  20.295  0.00  0.00    +0.000 N 
ATOM     18  C   UNL     1       2.479   6.687  19.419  0.00  0.00    +0.000 C 
ATOM     19  O   UNL     1       2.250   6.659  18.201  0.00  0.00    +0.000 OA
ATOM     20  H   UNL     1       2.464   7.620  21.236  0.00  0.00    +0.000 HD
BRANCH  17  26
ATOM     21  C   UNL     1       0.630   9.553  20.991  0.00  0.00    +0.000 A 
ATOM     22  C   UNL     1      -0.188  10.653  20.619  0.00  0.00    +0.000 A 
ATOM     23  C   UNL     1      -0.356  11.022  19.287  0.00  0.00    +0.000 A 
ATOM     24  C   UNL     1       0.266  10.291  18.294  0.00  0.00    +0.000 A 
ATOM     25  C   UNL     1       1.057   9.192  18.638  0.00  0.00    +0.000 A 
ATOM     26  C   UNL     1       1.262   8.803  19.978  0.00  0.00    +0.000 A 
BRANCH  21  28
ATOM     27  C   UNL     1      -0.437   9.678  23.286  0.00  0.00    +0.000 C 
ATOM     28  C   UNL     1       0.795   9.309  22.472  0.00  0.00    +0.000 C 
ENDBRANCH  21  28
ENDBRANCH  17  26
ENDBRANCH  16  18
ENDBRANCH   1  16
TORSDOF 6
ENDMDL
MODEL 8
REMARK VINA RESULT:      -6.9      3.348      4.400
REMARK  Name = 
REMARK  9 active torsions:
REMARK  status: ('A' for Active; 'I' for Inactive)
REMARK    1  A    between atoms: C_1  and  C_2
REMARK    2  A    between atoms: C_2  and  C_3
REMARK    3  A    between atoms: C_8  and  N_9
REMARK    4  A    between atoms: C_10  and  C_12
REMARK    5  A    between atoms: C_12  and  N_13
REMARK    6  A    between atoms: N_13  and  C_14
REMARK    7  A    between atoms: N_13  and  C_15
REMARK    8  A    between atoms: C_15  and  C_16
REMARK    9  A    between atoms: C_15  and  C_17
REMARK                            x       y       z     vdW  Elec       q    Type
REMARK                         _______ _______ _______ _____ _____    ______ ____
ROOT
ATOM      1  N   UNL     1       0.759  10.532  18.991  0.00  0.00    +0.000 NA
ATOM      2  C   UNL     1      -0.663  10.412  18.625  0.00  0.00    +0.000 C 
ENDROOT
BRANCH   1   3
ATOM      3  C   UNL     1       0.909  11.540  20.102  0.00  0.00    +0.000 C 
ATOM      4  C   UNL     1       1.154  13.000  19.674  0.00  0.00    +0.000 C 
BRANCH   3   5
ATOM      5  C   UNL     1      -0.316  11.522  21.048  0.00  0.00    +0.000 C 
ATOM      6  O   UNL     1      -0.526  10.582  21.815  0.00  0.00    +0.000 OA
ATOM      7  N   UNL     1      -1.159  12.607  20.917  0.00  0.00    +0.000 N 
ATOM      8  C   UNL     1      -2.295  12.757  21.710  0.00  0.00    +0.000 A 
ATOM      9  C   UNL     1      -2.274  12.438  23.069  0.00  0.00    +0.000 A 
ATOM     10  C   UNL     1      -3.462  12.481  23.793  0.00  0.00    +0.000 A 
ATOM     11  C   UNL     1      -4.630  12.822  23.128  0.00  0.00    +0.000 A 
ATOM     12 CL   UNL     1      -6.140  12.787  23.943  0.00  0.00    +0.000 Cl
ATOM     13  C   UNL     1      -4.549  13.183  21.789  0.00  0.00    +0.000 A 
ATOM     14  N   UNL     1      -3.394  13.198  21.074  0.00  0.00    +0.000 NA
ATOM     15  H   UNL     1      -1.189  13.066  20.017  0.00  0.00    +0.000 HD
ENDBRANCH   3   5
ENDBRANCH   1   3
BRANCH   1  16
ATOM     16  C   UNL     1       1.290   9.210  19.421  0.00  0.00    +0.000 C 
BRANCH  16  18
ATOM     17  N   UNL     1       2.603   7.217  18.739  0.00  0.00    +0.000 N 
ATOM     18  C   UNL     1       2.105   8.455  18.369  0.00  0.00    +0.000 C 
ATOM     19  O   UNL     1       2.185   8.964  17.242  0.00  0.00    +0.000 OA
ATOM     20  H   UNL     1       2.350   6.896  19.667  0.00  0.00    +0.000 HD
BRANCH  17  26
ATOM     21  C   UNL     1       3.108   4.985  17.805  0.00  0.00    +0.000 A 
ATOM     22  C   UNL     1       3.936   4.178  16.981  0.00  0.00    +0.000 A 
ATOM     23  C   UNL     1       5.008   4.714  16.271  0.00  0.00    +0.000 A 
ATOM     24  C   UNL     1       5.294   6.061  16.385  0.00  0.00    +0.000 A 
ATOM     25  C   UNL     1       4.504   6.867  17.207  0.00  0.00    +0.000 A 
ATOM     26  C   UNL     1       3.402   6.359  17.925  0.00  0.00    +0.000 A 
BRANCH  21  28
ATOM     27  C   UNL     1       1.836   2.816  18.117  0.00  0.00    +0.000 C 
ATOM     28  C   UNL     1       1.931   4.298  18.455  0.00  0.00    +0.000 C 
ENDBRANCH  21  28
ENDBRANCH  17  26
ENDBRANCH  16  18
ENDBRANCH   1  16
TORSDOF 6
ENDMDL
MODEL 9
REMARK VINA RESULT:      -6.9      3.417      4.652
REMARK  Name = 
REMARK  9 active torsions:
REMARK  status: ('A' for Active; 'I' for Inactive)
REMARK    1  A    between atoms: C_1  and  C_2
REMARK    2  A    between atoms: C_2  and  C_3
REMARK    3  A    between atoms: C_8  and  N_9
REMARK    4  A    between atoms: C_10  and  C_12
REMARK    5  A    between atoms: C_12  and  N_13
REMARK    6  A    between atoms: N_13  and  C_14
REMARK    7  A    between atoms: N_13  and  C_15
REMARK    8  A    between atoms: C_15  and  C_16
REMARK    9  A    between atoms: C_15  and  C_17
REMARK                            x       y       z     vdW  Elec       q    Type
REMARK                         _______ _______ _______ _____ _____    ______ ____
ROOT
ATOM      1  N   UNL     1       1.269  10.335  18.582  0.00  0.00    +0.000 NA
ATOM      2  C   UNL     1       2.223  11.375  18.158  0.00  0.00    +0.000 C 
ENDROOT
BRANCH   1   3
ATOM      3  C   UNL     1      -0.133  10.879  18.505  0.00  0.00    +0.000 C 
ATOM      4  C   UNL     1      -1.109  10.131  17.575  0.00  0.00    +0.000 C 
BRANCH   3   5
ATOM      5  C   UNL     1      -0.784  10.962  19.907  0.00  0.00    +0.000 C 
ATOM      6  O   UNL     1      -0.586  10.100  20.763  0.00  0.00    +0.000 OA
ATOM      7  N   UNL     1      -1.630  12.039  20.085  0.00  0.00    +0.000 N 
ATOM      8  C   UNL     1      -2.277  12.274  21.296  0.00  0.00    +0.000 A 
ATOM      9  C   UNL     1      -1.624  12.082  22.514  0.00  0.00    +0.000 A 
ATOM     10  C   UNL     1      -2.346  12.204  23.698  0.00  0.00    +0.000 A 
ATOM     11  C   UNL     1      -3.699  12.494  23.619  0.00  0.00    +0.000 A 
ATOM     12 CL   UNL     1      -4.664  12.551  25.038  0.00  0.00    +0.000 Cl
ATOM     13  C   UNL     1      -4.255  12.729  22.368  0.00  0.00    +0.000 A 
ATOM     14  N   UNL     1      -3.560  12.665  21.203  0.00  0.00    +0.000 NA
ATOM     15  H   UNL     1      -2.085  12.413  19.264  0.00  0.00    +0.000 HD
ENDBRANCH   3   5
ENDBRANCH   1   3
BRANCH   1  16
ATOM     16  C   UNL     1       1.404   9.133  17.714  0.00  0.00    +0.000 C 
BRANCH  16  18
ATOM     17  N   UNL     1       3.213   7.480  17.324  0.00  0.00    +0.000 N 
ATOM     18  C   UNL     1       2.340   8.044  18.240  0.00  0.00    +0.000 C 
ATOM     19  O   UNL     1       2.312   7.811  19.456  0.00  0.00    +0.000 OA
ATOM     20  H   UNL     1       3.184   7.866  16.388  0.00  0.00    +0.000 HD
BRANCH  17  26
ATOM     21  C   UNL     1       3.729   5.114  17.818  0.00  0.00    +0.000 A 
ATOM     22  C   UNL     1       4.706   4.118  18.082  0.00  0.00    +0.000 A 
ATOM     23  C   UNL     1       6.067   4.414  18.098  0.00  0.00    +0.000 A 
ATOM     24  C   UNL     1       6.484   5.713  17.875  0.00  0.00    +0.000 A 
ATOM     25  C   UNL     1       5.536   6.710  17.635  0.00  0.00    +0.000 A 
ATOM     26  C   UNL     1       4.152   6.440  17.595  0.00  0.00    +0.000 A 
BRANCH  21  28
ATOM     27  C   UNL     1       1.703   4.305  19.108  0.00  0.00    +0.000 C 
ATOM     28  C   UNL     1       2.295   4.646  17.748  0.00  0.00    +0.000 C 
ENDBRANCH  21  28
ENDBRANCH  17  26
ENDBRANCH  16  18
ENDBRANCH   1  16
TORSDOF 6
ENDMDL
