MODEL 1
REMARK VINA RESULT:      -8.1      0.000      0.000
REMARK  Name = 
REMARK  6 active torsions:
REMARK  status: ('A' for Active; 'I' for Inactive)
REMARK    1  A    between atoms: C_1  and  O_2
REMARK    2  A    between atoms: O_2  and  C_3
REMARK    3  A    between atoms: C_6  and  C_7
REMARK    4  A    between atoms: N_13  and  C_14
REMARK    5  A    between atoms: C_14  and  C_15
REMARK    6  A    between atoms: C_15  and  C_16
REMARK                            x       y       z     vdW  Elec       q    Type
REMARK                         _______ _______ _______ _____ _____    ______ ____
ROOT
ATOM      1  C   UNL     1       1.782   7.762  19.698  0.00  0.00    +0.000 C 
ATOM      2  C   UNL     1       2.341   7.995  18.512  0.00  0.00    +0.000 C 
ATOM      3  O   UNL     1       3.001   6.973  17.865  0.00  0.00    +0.000 OA
ATOM      4  C   UNL     1       3.048   5.884  18.818  0.00  0.00    +0.000 C 
ATOM      5  C   UNL     1       2.665   4.577  18.142  0.00  0.00    +0.000 C 
ATOM      6  C   UNL     1       3.735   4.175  17.123  0.00  0.00    +0.000 C 
ATOM      7  N   UNL     1       5.085   4.116  17.720  0.00  0.00    +0.000 NA
ATOM      8  C   UNL     1       5.447   5.394  18.349  0.00  0.00    +0.000 C 
ATOM      9  C   UNL     1       4.445   5.795  19.418  0.00  0.00    +0.000 C 
ATOM     10  C   UNL     1       2.078   6.332  19.881  0.00  0.00    +0.000 C 
ATOM     11  O   UNL     1       1.643   5.641  20.792  0.00  0.00    +0.000 OA
ENDROOT
BRANCH   1  15
ATOM     12  C   UNL     1      -0.112  10.554  22.317  0.00  0.00    +0.000 A 
ATOM     13  C   UNL     1       0.649   9.506  22.836  0.00  0.00    +0.000 A 
ATOM     14  C   UNL     1       1.265   8.585  21.984  0.00  0.00    +0.000 A 
ATOM     15  C   UNL     1       1.105   8.681  20.599  0.00  0.00    +0.000 A 
ATOM     16  C   UNL     1       0.319   9.726  20.087  0.00  0.00    +0.000 A 
ATOM     17  C   UNL     1      -0.285  10.655  20.939  0.00  0.00    +0.000 A 
BRANCH  12  19
ATOM     18  C   UNL     1      -1.804  12.124  22.810  0.00  0.00    +0.000 C 
ATOM     19  O   UNL     1      -0.664  11.392  23.246  0.00  0.00    +0.000 OA
ENDBRANCH  12  19
ENDBRANCH   1  15
BRANCH   7  20
ATOM     20  C   UNL     1       6.071   3.736  16.682  0.00  0.00    +0.000 C 
BRANCH  20  21
ATOM     21  C   UNL     1       6.646   4.941  15.914  0.00  0.00    +0.000 C 
BRANCH  21  22
ATOM     22  C   UNL     1       6.788   4.671  14.439  0.00  0.00    +0.000 A 
ATOM     23  C   UNL     1       6.000   3.686  13.825  0.00  0.00    +0.000 A 
ATOM     24  C   UNL     1       6.110   3.448  12.456  0.00  0.00    +0.000 A 
ATOM     25  C   UNL     1       7.011   4.187  11.693  0.00  0.00    +0.000 A 
ATOM     26  C   UNL     1       7.806   5.161  12.297  0.00  0.00    +0.000 A 
ATOM     27  C   UNL     1       7.696   5.402  13.667  0.00  0.00    +0.000 A 
ENDBRANCH  21  22
ENDBRANCH  20  21
ENDBRANCH   7  20
TORSDOF 5
ENDMDL
MODEL 2
REMARK VINA RESULT:      -8.0      0.275      1.337
REMARK  Name = 
REMARK  6 active torsions:
REMARK  status: ('A' for Active; 'I' for Inactive)
REMARK    1  A    between atoms: C_1  and  O_2
REMARK    2  A    between atoms: O_2  and  C_3
REMARK    3  A    between atoms: C_6  and  C_7
REMARK    4  A    between atoms: N_13  and  C_14
REMARK    5  A    between atoms: C_14  and  C_15
REMARK    6  A    between atoms: C_15  and  C_16
REMARK                            x       y       z     vdW  Elec       q    Type
REMARK                         _______ _______ _______ _____ _____    ______ ____
ROOT
ATOM      1  C   UNL     1       1.798   7.826  19.702  0.00  0.00    +0.000 C 
ATOM      2  C   UNL     1       2.316   8.015  18.489  0.00  0.00    +0.000 C 
ATOM      3  O   UNL     1       2.912   6.957  17.838  0.00  0.00    +0.000 OA
ATOM      4  C   UNL     1       2.959   5.886  18.812  0.00  0.00    +0.000 C 
ATOM      5  C   UNL     1       2.502   4.581  18.180  0.00  0.00    +0.000 C 
ATOM      6  C   UNL     1       3.514   4.119  17.127  0.00  0.00    +0.000 C 
ATOM      7  N   UNL     1       4.884   4.023  17.670  0.00  0.00    +0.000 NA
ATOM      8  C   UNL     1       5.318   5.300  18.256  0.00  0.00    +0.000 C 
ATOM      9  C   UNL     1       4.376   5.758  19.356  0.00  0.00    +0.000 C 
ATOM     10  C   UNL     1       2.051   6.390  19.904  0.00  0.00    +0.000 C 
ATOM     11  O   UNL     1       1.630   5.734  20.846  0.00  0.00    +0.000 OA
ENDROOT
BRANCH   1  15
ATOM     12  C   UNL     1      -0.088  10.567  22.380  0.00  0.00    +0.000 A 
ATOM     13  C   UNL     1      -0.082  10.815  21.007  0.00  0.00    +0.000 A 
ATOM     14  C   UNL     1       0.540   9.925  20.127  0.00  0.00    +0.000 A 
ATOM     15  C   UNL     1       1.192   8.787  20.610  0.00  0.00    +0.000 A 
ATOM     16  C   UNL     1       1.199   8.557  21.995  0.00  0.00    +0.000 A 
ATOM     17  C   UNL     1       0.564   9.440  22.874  0.00  0.00    +0.000 A 
BRANCH  12  19
ATOM     18  C   UNL     1      -0.867  12.789  22.543  0.00  0.00    +0.000 C 
ATOM     19  O   UNL     1      -0.728  11.505  23.142  0.00  0.00    +0.000 OA
ENDBRANCH  12  19
ENDBRANCH   1  15
BRANCH   7  20
ATOM     20  C   UNL     1       5.813   3.587  16.601  0.00  0.00    +0.000 C 
BRANCH  20  21
ATOM     21  C   UNL     1       6.599   4.747  15.962  0.00  0.00    +0.000 C 
BRANCH  21  22
ATOM     22  C   UNL     1       6.750   4.591  14.472  0.00  0.00    +0.000 A 
ATOM     23  C   UNL     1       7.670   5.384  13.770  0.00  0.00    +0.000 A 
ATOM     24  C   UNL     1       7.830   5.227  12.394  0.00  0.00    +0.000 A 
ATOM     25  C   UNL     1       7.069   4.282  11.710  0.00  0.00    +0.000 A 
ATOM     26  C   UNL     1       6.144   3.497  12.397  0.00  0.00    +0.000 A 
ATOM     27  C   UNL     1       5.984   3.651  13.774  0.00  0.00    +0.000 A 
ENDBRANCH  21  22
ENDBRANCH  20  21
ENDBRANCH   7  20
TORSDOF 5
ENDMDL
MODEL 3
REMARK VINA RESULT:      -7.9      0.446      1.028
REMARK  Name = 
REMARK  6 active torsions:
REMARK  status: ('A' for Active; 'I' for Inactive)
REMARK    1  A    between atoms: C_1  and  O_2
REMARK    2  A    between atoms: O_2  and  C_3
REMARK    3  A    between atoms: C_6  and  C_7
REMARK    4  A    between atoms: N_13  and  C_14
REMARK    5  A    between atoms: C_14  and  C_15
REMARK    6  A    between atoms: C_15  and  C_16
REMARK                            x       y       z     vdW  Elec       q    Type
REMARK                         _______ _______ _______ _____ _____    ______ ____
ROOT
ATOM      1  C   UNL     1       1.748   7.853  19.693  0.00  0.00    +0.000 C 
ATOM      2  C   UNL     1       2.316   8.135  18.522  0.00  0.00    +0.000 C 
ATOM      3  O   UNL     1       3.026   7.156  17.862  0.00  0.00    +0.000 OA
ATOM      4  C   UNL     1       3.101   6.047  18.790  0.00  0.00    +0.000 C 
ATOM      5  C   UNL     1       2.780   4.743  18.078  0.00  0.00    +0.000 C 
ATOM      6  C   UNL     1       3.881   4.408  17.067  0.00  0.00    +0.000 C 
ATOM      7  N   UNL     1       5.223   4.387  17.685  0.00  0.00    +0.000 NA
ATOM      8  C   UNL     1       5.525   5.663  18.349  0.00  0.00    +0.000 C 
ATOM      9  C   UNL     1       4.492   5.998  19.411  0.00  0.00    +0.000 C 
ATOM     10  C   UNL     1       2.098   6.431  19.848  0.00  0.00    +0.000 C 
ATOM     11  O   UNL     1       1.677   5.702  20.735  0.00  0.00    +0.000 OA
ENDROOT
BRANCH   1  15
ATOM     12  C   UNL     1      -0.299  10.507  22.340  0.00  0.00    +0.000 A 
ATOM     13  C   UNL     1       0.544   9.517  22.848  0.00  0.00    +0.000 A 
ATOM     14  C   UNL     1       1.211   8.641  21.986  0.00  0.00    +0.000 A 
ATOM     15  C   UNL     1       1.022   8.723  20.604  0.00  0.00    +0.000 A 
ATOM     16  C   UNL     1       0.156   9.708  20.104  0.00  0.00    +0.000 A 
ATOM     17  C   UNL     1      -0.500  10.593  20.965  0.00  0.00    +0.000 A 
BRANCH  12  19
ATOM     18  C   UNL     1      -1.088  12.661  22.892  0.00  0.00    +0.000 C 
ATOM     19  O   UNL     1      -0.894  11.305  23.277  0.00  0.00    +0.000 OA
ENDBRANCH  12  19
ENDBRANCH   1  15
BRANCH   7  20
ATOM     20  C   UNL     1       6.240   4.071  16.654  0.00  0.00    +0.000 C 
BRANCH  20  21
ATOM     21  C   UNL     1       5.641   3.483  15.363  0.00  0.00    +0.000 C 
BRANCH  21  22
ATOM     22  C   UNL     1       6.331   3.988  14.124  0.00  0.00    +0.000 A 
ATOM     23  C   UNL     1       7.244   5.050  14.210  0.00  0.00    +0.000 A 
ATOM     24  C   UNL     1       7.904   5.506  13.070  0.00  0.00    +0.000 A 
ATOM     25  C   UNL     1       7.652   4.910  11.837  0.00  0.00    +0.000 A 
ATOM     26  C   UNL     1       6.738   3.861  11.739  0.00  0.00    +0.000 A 
ATOM     27  C   UNL     1       6.078   3.402  12.880  0.00  0.00    +0.000 A 
ENDBRANCH  21  22
ENDBRANCH  20  21
ENDBRANCH   7  20
TORSDOF 5
ENDMDL
MODEL 4
REMARK VINA RESULT:      -7.9      0.465      1.117
REMARK  Name = 
REMARK  6 active torsions:
REMARK  status: ('A' for Active; 'I' for Inactive)
REMARK    1  A    between atoms: C_1  and  O_2
REMARK    2  A    between atoms: O_2  and  C_3
REMARK    3  A    between atoms: C_6  and  C_7
REMARK    4  A    between atoms: N_13  and  C_14
REMARK    5  A    between atoms: C_14  and  C_15
REMARK    6  A    between atoms: C_15  and  C_16
REMARK                            x       y       z     vdW  Elec       q    Type
REMARK                         _______ _______ _______ _____ _____    ______ ____
ROOT
ATOM      1  C   UNL     1       1.772   7.931  19.718  0.00  0.00    +0.000 C 
ATOM      2  C   UNL     1       2.362   8.218  18.558  0.00  0.00    +0.000 C 
ATOM      3  O   UNL     1       3.042   7.227  17.884  0.00  0.00    +0.000 OA
ATOM      4  C   UNL     1       3.066   6.096  18.788  0.00  0.00    +0.000 C 
ATOM      5  C   UNL     1       2.705   4.821  18.044  0.00  0.00    +0.000 C 
ATOM      6  C   UNL     1       3.803   4.467  17.036  0.00  0.00    +0.000 C 
ATOM      7  N   UNL     1       5.137   4.383  17.666  0.00  0.00    +0.000 NA
ATOM      8  C   UNL     1       5.479   5.632  18.361  0.00  0.00    +0.000 C 
ATOM      9  C   UNL     1       4.448   5.982  19.420  0.00  0.00    +0.000 C 
ATOM     10  C   UNL     1       2.068   6.495  19.844  0.00  0.00    +0.000 C 
ATOM     11  O   UNL     1       1.611   5.762  20.711  0.00  0.00    +0.000 OA
ENDROOT
BRANCH   1  15
ATOM     12  C   UNL     1      -0.380  10.404  22.455  0.00  0.00    +0.000 A 
ATOM     13  C   UNL     1      -0.546  10.566  21.079  0.00  0.00    +0.000 A 
ATOM     14  C   UNL     1       0.162   9.764  20.178  0.00  0.00    +0.000 A 
ATOM     15  C   UNL     1       1.069   8.807  20.641  0.00  0.00    +0.000 A 
ATOM     16  C   UNL     1       1.244   8.666  22.026  0.00  0.00    +0.000 A 
ATOM     17  C   UNL     1       0.526   9.459  22.927  0.00  0.00    +0.000 A 
BRANCH  12  19
ATOM     18  C   UNL     1      -1.148  12.605  22.825  0.00  0.00    +0.000 C 
ATOM     19  O   UNL     1      -1.125  11.243  23.236  0.00  0.00    +0.000 OA
ENDBRANCH  12  19
ENDBRANCH   1  15
BRANCH   7  20
ATOM     20  C   UNL     1       6.152   4.052  16.638  0.00  0.00    +0.000 C 
BRANCH  20  21
ATOM     21  C   UNL     1       5.547   3.491  15.338  0.00  0.00    +0.000 C 
BRANCH  21  22
ATOM     22  C   UNL     1       6.279   3.962  14.110  0.00  0.00    +0.000 A 
ATOM     23  C   UNL     1       6.020   3.369  12.865  0.00  0.00    +0.000 A 
ATOM     24  C   UNL     1       6.679   3.817  11.721  0.00  0.00    +0.000 A 
ATOM     25  C   UNL     1       7.603   4.855  11.813  0.00  0.00    +0.000 A 
ATOM     26  C   UNL     1       7.875   5.444  13.048  0.00  0.00    +0.000 A 
ATOM     27  C   UNL     1       7.216   4.997  14.194  0.00  0.00    +0.000 A 
ENDBRANCH  21  22
ENDBRANCH  20  21
ENDBRANCH   7  20
TORSDOF 5
ENDMDL
MODEL 5
REMARK VINA RESULT:      -7.4      3.048     10.868
REMARK  Name = 
REMARK  6 active torsions:
REMARK  status: ('A' for Active; 'I' for Inactive)
REMARK    1  A    between atoms: C_1  and  O_2
REMARK    2  A    between atoms: O_2  and  C_3
REMARK    3  A    between atoms: C_6  and  C_7
REMARK    4  A    between atoms: N_13  and  C_14
REMARK    5  A    between atoms: C_14  and  C_15
REMARK    6  A    between atoms: C_15  and  C_16
REMARK                            x       y       z     vdW  Elec       q    Type
REMARK                         _______ _______ _______ _____ _____    ______ ____
ROOT
ATOM      1  C   UNL     1       2.192   8.366  18.491  0.00  0.00    +0.000 C 
ATOM      2  C   UNL     1       2.028   9.535  17.873  0.00  0.00    +0.000 C 
ATOM      3  O   UNL     1       1.336  10.543  18.508  0.00  0.00    +0.000 OA
ATOM      4  C   UNL     1       0.791   9.937  19.705  0.00  0.00    +0.000 C 
ATOM      5  C   UNL     1       1.017  10.845  20.903  0.00  0.00    +0.000 C 
ATOM      6  C   UNL     1       0.182  12.122  20.764  0.00  0.00    +0.000 C 
ATOM      7  N   UNL     1      -1.251  11.834  20.549  0.00  0.00    +0.000 NA
ATOM      8  C   UNL     1      -1.452  10.974  19.374  0.00  0.00    +0.000 C 
ATOM      9  C   UNL     1      -0.694   9.665  19.504  0.00  0.00    +0.000 C 
ATOM     10  C   UNL     1       1.531   8.627  19.780  0.00  0.00    +0.000 C 
ATOM     11  O   UNL     1       1.542   7.863  20.736  0.00  0.00    +0.000 OA
ENDROOT
BRANCH   1  15
ATOM     12  C   UNL     1       4.047   4.742  17.199  0.00  0.00    +0.000 A 
ATOM     13  C   UNL     1       4.679   5.969  16.993  0.00  0.00    +0.000 A 
ATOM     14  C   UNL     1       4.073   7.159  17.407  0.00  0.00    +0.000 A 
ATOM     15  C   UNL     1       2.811   7.142  18.008  0.00  0.00    +0.000 A 
ATOM     16  C   UNL     1       2.174   5.905  18.192  0.00  0.00    +0.000 A 
ATOM     17  C   UNL     1       2.786   4.714  17.790  0.00  0.00    +0.000 A 
BRANCH  12  19
ATOM     18  C   UNL     1       5.793   3.919  15.842  0.00  0.00    +0.000 C 
ATOM     19  O   UNL     1       4.735   3.648  16.754  0.00  0.00    +0.000 OA
ENDBRANCH  12  19
ENDBRANCH   1  15
BRANCH   7  20
ATOM     20  C   UNL     1      -1.998  13.106  20.409  0.00  0.00    +0.000 C 
BRANCH  20  21
ATOM     21  C   UNL     1      -3.527  12.921  20.397  0.00  0.00    +0.000 C 
BRANCH  21  22
ATOM     22  C   UNL     1      -4.111  12.849  21.783  0.00  0.00    +0.000 A 
ATOM     23  C   UNL     1      -5.489  13.028  21.977  0.00  0.00    +0.000 A 
ATOM     24  C   UNL     1      -6.038  12.939  23.256  0.00  0.00    +0.000 A 
ATOM     25  C   UNL     1      -5.215  12.678  24.349  0.00  0.00    +0.000 A 
ATOM     26  C   UNL     1      -3.842  12.509  24.167  0.00  0.00    +0.000 A 
ATOM     27  C   UNL     1      -3.291  12.596  22.888  0.00  0.00    +0.000 A 
ENDBRANCH  21  22
ENDBRANCH  20  21
ENDBRANCH   7  20
TORSDOF 5
ENDMDL
MODEL 6
REMARK VINA RESULT:      -7.3      0.861      1.275
REMARK  Name = 
REMARK  6 active torsions:
REMARK  status: ('A' for Active; 'I' for Inactive)
REMARK    1  A    between atoms: C_1  and  O_2
REMARK    2  A    between atoms: O_2  and  C_3
REMARK    3  A    between atoms: C_6  and  C_7
REMARK    4  A    between atoms: N_13  and  C_14
REMARK    5  A    between atoms: C_14  and  C_15
REMARK    6  A    between atoms: C_15  and  C_16
REMARK                            x       y       z     vdW  Elec       q    Type
REMARK                         _______ _______ _______ _____ _____    ______ ____
ROOT
ATOM      1  C   UNL     1       2.079   7.241  19.883  0.00  0.00    +0.000 C 
ATOM      2  C   UNL     1       2.585   7.643  18.718  0.00  0.00    +0.000 C 
ATOM      3  O   UNL     1       3.358   6.771  17.981  0.00  0.00    +0.000 OA
ATOM      4  C   UNL     1       3.556   5.619  18.836  0.00  0.00    +0.000 C 
ATOM      5  C   UNL     1       3.328   4.338  18.051  0.00  0.00    +0.000 C 
ATOM      6  C   UNL     1       4.423   4.162  16.995  0.00  0.00    +0.000 C 
ATOM      7  N   UNL     1       5.780   4.223  17.577  0.00  0.00    +0.000 NA
ATOM      8  C   UNL     1       5.989   5.478  18.313  0.00  0.00    +0.000 C 
ATOM      9  C   UNL     1       4.963   5.656  19.418  0.00  0.00    +0.000 C 
ATOM     10  C   UNL     1       2.555   5.849  19.940  0.00  0.00    +0.000 C 
ATOM     11  O   UNL     1       2.226   5.033  20.789  0.00  0.00    +0.000 OA
ENDROOT
BRANCH   1  15
ATOM     12  C   UNL     1      -0.225   9.518  22.667  0.00  0.00    +0.000 A 
ATOM     13  C   UNL     1       1.166   9.634  22.642  0.00  0.00    +0.000 A 
ATOM     14  C   UNL     1       1.925   8.886  21.738  0.00  0.00    +0.000 A 
ATOM     15  C   UNL     1       1.307   7.987  20.864  0.00  0.00    +0.000 A 
ATOM     16  C   UNL     1      -0.090   7.861  20.911  0.00  0.00    +0.000 A 
ATOM     17  C   UNL     1      -0.851   8.620  21.806  0.00  0.00    +0.000 A 
BRANCH  12  19
ATOM     18  C   UNL     1      -1.521  11.448  23.071  0.00  0.00    +0.000 C 
ATOM     19  O   UNL     1      -0.861  10.300  23.591  0.00  0.00    +0.000 OA
ENDBRANCH  12  19
ENDBRANCH   1  15
BRANCH   7  20
ATOM     20  C   UNL     1       6.789   4.061  16.505  0.00  0.00    +0.000 C 
BRANCH  20  21
ATOM     21  C   UNL     1       6.780   5.208  15.477  0.00  0.00    +0.000 C 
BRANCH  21  22
ATOM     22  C   UNL     1       6.761   4.710  14.056  0.00  0.00    +0.000 A 
ATOM     23  C   UNL     1       7.679   5.213  13.122  0.00  0.00    +0.000 A 
ATOM     24  C   UNL     1       7.681   4.739  11.811  0.00  0.00    +0.000 A 
ATOM     25  C   UNL     1       6.764   3.765  11.423  0.00  0.00    +0.000 A 
ATOM     26  C   UNL     1       5.840   3.267  12.342  0.00  0.00    +0.000 A 
ATOM     27  C   UNL     1       5.838   3.739  13.655  0.00  0.00    +0.000 A 
ENDBRANCH  21  22
ENDBRANCH  20  21
ENDBRANCH   7  20
TORSDOF 5
ENDMDL
MODEL 7
REMARK VINA RESULT:      -7.3      0.879      1.127
REMARK  Name = 
REMARK  6 active torsions:
REMARK  status: ('A' for Active; 'I' for Inactive)
REMARK    1  A    between atoms: C_1  and  O_2
REMARK    2  A    between atoms: O_2  and  C_3
REMARK    3  A    between atoms: C_6  and  C_7
REMARK    4  A    between atoms: N_13  and  C_14
REMARK    5  A    between atoms: C_14  and  C_15
REMARK    6  A    between atoms: C_15  and  C_16
REMARK                            x       y       z     vdW  Elec       q    Type
REMARK                         _______ _______ _______ _____ _____    ______ ____
ROOT
ATOM      1  C   UNL     1       2.103   7.794  19.227  0.00  0.00    +0.000 C 
ATOM      2  C   UNL     1       2.540   8.064  17.998  0.00  0.00    +0.000 C 
ATOM      3  O   UNL     1       3.254   7.108  17.310  0.00  0.00    +0.000 OA
ATOM      4  C   UNL     1       3.492   6.047  18.266  0.00  0.00    +0.000 C 
ATOM      5  C   UNL     1       3.200   4.695  17.635  0.00  0.00    +0.000 C 
ATOM      6  C   UNL     1       4.225   4.391  16.537  0.00  0.00    +0.000 C 
ATOM      7  N   UNL     1       5.616   4.487  17.026  0.00  0.00    +0.000 NA
ATOM      8  C   UNL     1       5.886   5.808  17.613  0.00  0.00    +0.000 C 
ATOM      9  C   UNL     1       4.933   6.118  18.754  0.00  0.00    +0.000 C 
ATOM     10  C   UNL     1       2.565   6.407  19.399  0.00  0.00    +0.000 C 
ATOM     11  O   UNL     1       2.280   5.690  20.348  0.00  0.00    +0.000 OA
ENDROOT
BRANCH   1  15
ATOM     12  C   UNL     1       0.151  10.397  21.994  0.00  0.00    +0.000 A 
ATOM     13  C   UNL     1       0.760   9.224  22.440  0.00  0.00    +0.000 A 
ATOM     14  C   UNL     1       1.394   8.365  21.538  0.00  0.00    +0.000 A 
ATOM     15  C   UNL     1       1.403   8.651  20.170  0.00  0.00    +0.000 A 
ATOM     16  C   UNL     1       0.769   9.824  19.728  0.00  0.00    +0.000 A 
ATOM     17  C   UNL     1       0.147  10.690  20.632  0.00  0.00    +0.000 A 
BRANCH  12  19
ATOM     18  C   UNL     1      -1.220  12.251  22.499  0.00  0.00    +0.000 C 
ATOM     19  O   UNL     1      -0.435  11.159  22.966  0.00  0.00    +0.000 OA
ENDBRANCH  12  19
ENDBRANCH   1  15
BRANCH   7  20
ATOM     20  C   UNL     1       6.554   4.197  15.917  0.00  0.00    +0.000 C 
BRANCH  20  21
ATOM     21  C   UNL     1       6.259   5.005  14.639  0.00  0.00    +0.000 C 
BRANCH  21  22
ATOM     22  C   UNL     1       6.064   4.126  13.433  0.00  0.00    +0.000 A 
ATOM     23  C   UNL     1       4.769   3.830  12.980  0.00  0.00    +0.000 A 
ATOM     24  C   UNL     1       4.582   3.035  11.850  0.00  0.00    +0.000 A 
ATOM     25  C   UNL     1       5.686   2.527  11.168  0.00  0.00    +0.000 A 
ATOM     26  C   UNL     1       6.976   2.807  11.617  0.00  0.00    +0.000 A 
ATOM     27  C   UNL     1       7.165   3.603  12.747  0.00  0.00    +0.000 A 
ENDBRANCH  21  22
ENDBRANCH  20  21
ENDBRANCH   7  20
TORSDOF 5
ENDMDL
MODEL 8
REMARK VINA RESULT:      -7.3      3.091     10.914
REMARK  Name = 
REMARK  6 active torsions:
REMARK  status: ('A' for Active; 'I' for Inactive)
REMARK    1  A    between atoms: C_1  and  O_2
REMARK    2  A    between atoms: O_2  and  C_3
REMARK    3  A    between atoms: C_6  and  C_7
REMARK    4  A    between atoms: N_13  and  C_14
REMARK    5  A    between atoms: C_14  and  C_15
REMARK    6  A    between atoms: C_15  and  C_16
REMARK                            x       y       z     vdW  Elec       q    Type
REMARK                         _______ _______ _______ _____ _____    ______ ____
ROOT
ATOM      1  C   UNL     1       2.212   8.447  18.543  0.00  0.00    +0.000 C 
ATOM      2  C   UNL     1       2.027   9.604  17.909  0.00  0.00    +0.000 C 
ATOM      3  O   UNL     1       1.296  10.599  18.521  0.00  0.00    +0.000 OA
ATOM      4  C   UNL     1       0.748   9.991  19.716  0.00  0.00    +0.000 C 
ATOM      5  C   UNL     1       0.928  10.917  20.907  0.00  0.00    +0.000 C 
ATOM      6  C   UNL     1       0.061  12.169  20.741  0.00  0.00    +0.000 C 
ATOM      7  N   UNL     1      -1.360  11.841  20.505  0.00  0.00    +0.000 NA
ATOM      8  C   UNL     1      -1.517  10.963  19.336  0.00  0.00    +0.000 C 
ATOM      9  C   UNL     1      -0.726   9.676  19.493  0.00  0.00    +0.000 C 
ATOM     10  C   UNL     1       1.522   8.702  19.817  0.00  0.00    +0.000 C 
ATOM     11  O   UNL     1       1.537   7.949  20.781  0.00  0.00    +0.000 OA
ENDROOT
BRANCH   1  15
ATOM     12  C   UNL     1       4.109   4.916  17.068  0.00  0.00    +0.000 A 
ATOM     13  C   UNL     1       2.895   4.831  17.751  0.00  0.00    +0.000 A 
ATOM     14  C   UNL     1       2.274   5.982  18.242  0.00  0.00    +0.000 A 
ATOM     15  C   UNL     1       2.872   7.235  18.083  0.00  0.00    +0.000 A 
ATOM     16  C   UNL     1       4.103   7.309  17.413  0.00  0.00    +0.000 A 
ATOM     17  C   UNL     1       4.718   6.159  16.910  0.00  0.00    +0.000 A 
BRANCH  12  19
ATOM     18  C   UNL     1       5.791   3.819  15.827  0.00  0.00    +0.000 C 
ATOM     19  O   UNL     1       4.621   3.725  16.632  0.00  0.00    +0.000 OA
ENDBRANCH  12  19
ENDBRANCH   1  15
BRANCH   7  20
ATOM     20  C   UNL     1      -2.138  13.090  20.339  0.00  0.00    +0.000 C 
BRANCH  20  21
ATOM     21  C   UNL     1      -3.661  12.863  20.302  0.00  0.00    +0.000 C 
BRANCH  21  22
ATOM     22  C   UNL     1      -4.270  12.809  21.677  0.00  0.00    +0.000 A 
ATOM     23  C   UNL     1      -3.448  12.684  22.807  0.00  0.00    +0.000 A 
ATOM     24  C   UNL     1      -4.005  12.657  24.085  0.00  0.00    +0.000 A 
ATOM     25  C   UNL     1      -5.386  12.750  24.242  0.00  0.00    +0.000 A 
ATOM     26  C   UNL     1      -6.213  12.864  23.124  0.00  0.00    +0.000 A 
ATOM     27  C   UNL     1      -5.656  12.892  21.845  0.00  0.00    +0.000 A 
ENDBRANCH  21  22
ENDBRANCH  20  21
ENDBRANCH   7  20
TORSDOF 5
ENDMDL
MODEL 9
REMARK VINA RESULT:      -7.2      3.490     10.613
REMARK  Name = 
REMARK  6 active torsions:
REMARK  status: ('A' for Active; 'I' for Inactive)
REMARK    1  A    between atoms: C_1  and  O_2
REMARK    2  A    between atoms: O_2  and  C_3
REMARK    3  A    between atoms: C_6  and  C_7
REMARK    4  A    between atoms: N_13  and  C_14
REMARK    5  A    between atoms: C_14  and  C_15
REMARK    6  A    between atoms: C_15  and  C_16
REMARK                            x       y       z     vdW  Elec       q    Type
REMARK                         _______ _______ _______ _____ _____    ______ ____
ROOT
ATOM      1  C   UNL     1       2.212   8.445  18.470  0.00  0.00    +0.000 C 
ATOM      2  C   UNL     1       2.041   9.601  17.829  0.00  0.00    +0.000 C 
ATOM      3  O   UNL     1       1.311  10.604  18.429  0.00  0.00    +0.000 OA
ATOM      4  C   UNL     1       0.747  10.006  19.621  0.00  0.00    +0.000 C 
ATOM      5  C   UNL     1       0.922  10.936  20.810  0.00  0.00    +0.000 C 
ATOM      6  C   UNL     1       0.065  12.193  20.629  0.00  0.00    +0.000 C 
ATOM      7  N   UNL     1      -1.356  11.873  20.380  0.00  0.00    +0.000 NA
ATOM      8  C   UNL     1      -1.508  10.990  19.214  0.00  0.00    +0.000 C 
ATOM      9  C   UNL     1      -0.727   9.699  19.385  0.00  0.00    +0.000 C 
ATOM     10  C   UNL     1       1.511   8.712  19.736  0.00  0.00    +0.000 C 
ATOM     11  O   UNL     1       1.512   7.964  20.704  0.00  0.00    +0.000 OA
ENDROOT
BRANCH   1  15
ATOM     12  C   UNL     1       4.169   4.839  17.286  0.00  0.00    +0.000 A 
ATOM     13  C   UNL     1       4.800   6.071  17.116  0.00  0.00    +0.000 A 
ATOM     14  C   UNL     1       4.161   7.255  17.495  0.00  0.00    +0.000 A 
ATOM     15  C   UNL     1       2.868   7.227  18.023  0.00  0.00    +0.000 A 
ATOM     16  C   UNL     1       2.233   5.984  18.171  0.00  0.00    +0.000 A 
ATOM     17  C   UNL     1       2.878   4.799  17.805  0.00  0.00    +0.000 A 
BRANCH  12  19
ATOM     18  C   UNL     1       5.686   3.942  15.716  0.00  0.00    +0.000 C 
ATOM     19  O   UNL     1       4.891   3.751  16.881  0.00  0.00    +0.000 OA
ENDBRANCH  12  19
ENDBRANCH   1  15
BRANCH   7  20
ATOM     20  C   UNL     1      -2.124  13.127  20.201  0.00  0.00    +0.000 C 
BRANCH  20  21
ATOM     21  C   UNL     1      -3.215  13.334  21.267  0.00  0.00    +0.000 C 
BRANCH  21  22
ATOM     22  C   UNL     1      -4.560  12.820  20.825  0.00  0.00    +0.000 A 
ATOM     23  C   UNL     1      -5.602  12.685  21.754  0.00  0.00    +0.000 A 
ATOM     24  C   UNL     1      -6.856  12.232  21.346  0.00  0.00    +0.000 A 
ATOM     25  C   UNL     1      -7.075  11.905  20.010  0.00  0.00    +0.000 A 
ATOM     26  C   UNL     1      -6.041  12.025  19.081  0.00  0.00    +0.000 A 
ATOM     27  C   UNL     1      -4.786  12.480  19.488  0.00  0.00    +0.000 A 
ENDBRANCH  21  22
ENDBRANCH  20  21
ENDBRANCH   7  20
TORSDOF 5
ENDMDL
