MODEL 1
REMARK VINA RESULT:      -8.6      0.000      0.000
REMARK  Name = 
REMARK  3 active torsions:
REMARK  status: ('A' for Active; 'I' for Inactive)
REMARK    1  A    between atoms: C_2  and  C_4
REMARK    2  A    between atoms: C_10  and  C_11
REMARK    3  A    between atoms: C_14  and  C_15
REMARK                            x       y       z     vdW  Elec       q    Type
REMARK                         _______ _______ _______ _____ _____    ______ ____
ROOT
ATOM      1  C   UNL     1      -0.571  10.888  20.550  0.00  0.00    +0.000 A 
ATOM      2  C   UNL     1      -1.153  11.309  21.760  0.00  0.00    +0.000 A 
ATOM      3  C   UNL     1      -0.873  10.651  22.963  0.00  0.00    +0.000 A 
ATOM      4  C   UNL     1      -0.007   9.554  23.008  0.00  0.00    +0.000 A 
ATOM      5  C   UNL     1       0.563   9.165  21.796  0.00  0.00    +0.000 A 
ATOM      6  N   UNL     1       1.425   8.151  21.474  0.00  0.00    +0.000 N 
ATOM      7  C   UNL     1       1.665   8.183  20.119  0.00  0.00    +0.000 A 
ATOM      8  N   UNL     1       1.013   9.188  19.569  0.00  0.00    +0.000 NA
ATOM      9  C   UNL     1       0.312   9.799  20.586  0.00  0.00    +0.000 A 
ATOM     10  H   UNL     1       1.800   7.477  22.122  0.00  0.00    +0.000 HD
ENDROOT
BRANCH   7  11
ATOM     11  C   UNL     1       2.498   7.219  19.408  0.00  0.00    +0.000 A 
ATOM     12  C   UNL     1       2.990   7.488  18.133  0.00  0.00    +0.000 A 
ATOM     13  C   UNL     1       3.817   6.574  17.486  0.00  0.00    +0.000 A 
ATOM     14  C   UNL     1       4.166   5.353  18.076  0.00  0.00    +0.000 A 
ATOM     15  C   UNL     1       3.678   5.092  19.367  0.00  0.00    +0.000 A 
ATOM     16  C   UNL     1       2.852   6.012  20.022  0.00  0.00    +0.000 A 
BRANCH  14  17
ATOM     17  C   UNL     1       5.091   4.350  17.393  0.00  0.00    +0.000 C 
ATOM     18  C   UNL     1       6.579   4.442  17.792  0.00  0.00    +0.000 C 
ATOM     19  C   UNL     1       7.290   5.636  17.142  0.00  0.00    +0.000 C 
ATOM     20  N   UNL     1       7.151   5.646  15.688  0.00  0.00    +0.000 NA
ATOM     21  C   UNL     1       5.748   5.602  15.274  0.00  0.00    +0.000 C 
ATOM     22  C   UNL     1       5.006   4.400  15.855  0.00  0.00    +0.000 C 
ATOM     23  H   UNL     1       7.639   4.841  15.301  0.00  0.00    +0.000 HD
ENDBRANCH  14  17
ENDBRANCH   7  11
BRANCH   1  25
ATOM     24  N   UNL     1       0.119  11.884  18.441  0.00  0.00    +0.000 N 
ATOM     25  C   UNL     1      -0.913  11.559  19.275  0.00  0.00    +0.000 C 
ATOM     26  O   UNL     1      -2.078  11.803  18.972  0.00  0.00    +0.000 OA
ATOM     27  H   UNL     1      -0.074  12.326  17.556  0.00  0.00    +0.000 HD
ATOM     28  H   UNL     1       1.084  11.684  18.702  0.00  0.00    +0.000 HD
ENDBRANCH   1  25
TORSDOF 3
ENDMDL
MODEL 2
REMARK VINA RESULT:      -8.4      3.178      8.195
REMARK  Name = 
REMARK  3 active torsions:
REMARK  status: ('A' for Active; 'I' for Inactive)
REMARK    1  A    between atoms: C_2  and  C_4
REMARK    2  A    between atoms: C_10  and  C_11
REMARK    3  A    between atoms: C_14  and  C_15
REMARK                            x       y       z     vdW  Elec       q    Type
REMARK                         _______ _______ _______ _____ _____    ______ ____
ROOT
ATOM      1  C   UNL     1       2.820   3.274  19.741  0.00  0.00    +0.000 A 
ATOM      2  C   UNL     1       3.456   2.329  18.915  0.00  0.00    +0.000 A 
ATOM      3  C   UNL     1       3.996   2.699  17.678  0.00  0.00    +0.000 A 
ATOM      4  C   UNL     1       3.925   4.018  17.218  0.00  0.00    +0.000 A 
ATOM      5  C   UNL     1       3.298   4.935  18.061  0.00  0.00    +0.000 A 
ATOM      6  N   UNL     1       3.044   6.274  17.930  0.00  0.00    +0.000 N 
ATOM      7  C   UNL     1       2.369   6.712  19.046  0.00  0.00    +0.000 A 
ATOM      8  N   UNL     1       2.204   5.716  19.894  0.00  0.00    +0.000 NA
ATOM      9  C   UNL     1       2.757   4.604  19.297  0.00  0.00    +0.000 A 
ATOM     10  H   UNL     1       3.290   6.838  17.132  0.00  0.00    +0.000 HD
ENDROOT
BRANCH   7  11
ATOM     11  C   UNL     1       1.887   8.077  19.235  0.00  0.00    +0.000 A 
ATOM     12  C   UNL     1       1.357   8.497  20.452  0.00  0.00    +0.000 A 
ATOM     13  C   UNL     1       0.940   9.813  20.626  0.00  0.00    +0.000 A 
ATOM     14  C   UNL     1       1.017  10.751  19.589  0.00  0.00    +0.000 A 
ATOM     15  C   UNL     1       1.565  10.327  18.368  0.00  0.00    +0.000 A 
ATOM     16  C   UNL     1       1.990   9.005  18.192  0.00  0.00    +0.000 A 
BRANCH  14  17
ATOM     17  C   UNL     1       0.589  12.205  19.769  0.00  0.00    +0.000 C 
ATOM     18  C   UNL     1      -0.462  12.456  20.871  0.00  0.00    +0.000 C 
ATOM     19  C   UNL     1      -1.872  12.029  20.448  0.00  0.00    +0.000 C 
ATOM     20  N   UNL     1      -2.292  12.648  19.193  0.00  0.00    +0.000 NA
ATOM     21  C   UNL     1      -1.337  12.393  18.113  0.00  0.00    +0.000 C 
ATOM     22  C   UNL     1       0.077  12.849  18.467  0.00  0.00    +0.000 C 
ATOM     23  H   UNL     1      -2.381  13.652  19.331  0.00  0.00    +0.000 HD
ENDBRANCH  14  17
ENDBRANCH   7  11
BRANCH   1  25
ATOM     24  N   UNL     1       0.848   2.949  21.128  0.00  0.00    +0.000 N 
ATOM     25  C   UNL     1       2.208   2.863  21.025  0.00  0.00    +0.000 C 
ATOM     26  O   UNL     1       2.892   2.449  21.957  0.00  0.00    +0.000 OA
ATOM     27  H   UNL     1       0.393   2.662  21.980  0.00  0.00    +0.000 HD
ATOM     28  H   UNL     1       0.287   3.300  20.353  0.00  0.00    +0.000 HD
ENDBRANCH   1  25
TORSDOF 3
ENDMDL
MODEL 3
REMARK VINA RESULT:      -8.2      3.361      7.917
REMARK  Name = 
REMARK  3 active torsions:
REMARK  status: ('A' for Active; 'I' for Inactive)
REMARK    1  A    between atoms: C_2  and  C_4
REMARK    2  A    between atoms: C_10  and  C_11
REMARK    3  A    between atoms: C_14  and  C_15
REMARK                            x       y       z     vdW  Elec       q    Type
REMARK                         _______ _______ _______ _____ _____    ______ ____
ROOT
ATOM      1  C   UNL     1       2.828   3.251  19.754  0.00  0.00    +0.000 A 
ATOM      2  C   UNL     1       3.474   2.286  18.960  0.00  0.00    +0.000 A 
ATOM      3  C   UNL     1       4.040   2.626  17.726  0.00  0.00    +0.000 A 
ATOM      4  C   UNL     1       3.985   3.935  17.237  0.00  0.00    +0.000 A 
ATOM      5  C   UNL     1       3.348   4.874  18.049  0.00  0.00    +0.000 A 
ATOM      6  N   UNL     1       3.104   6.211  17.885  0.00  0.00    +0.000 N 
ATOM      7  C   UNL     1       2.411   6.676  18.978  0.00  0.00    +0.000 A 
ATOM      8  N   UNL     1       2.224   5.699  19.843  0.00  0.00    +0.000 NA
ATOM      9  C   UNL     1       2.782   4.571  19.280  0.00  0.00    +0.000 A 
ATOM     10  H   UNL     1       3.369   6.756  17.080  0.00  0.00    +0.000 HD
ENDROOT
BRANCH   7  11
ATOM     11  C   UNL     1       1.934   8.047  19.129  0.00  0.00    +0.000 A 
ATOM     12  C   UNL     1       1.945   8.940  18.060  0.00  0.00    +0.000 A 
ATOM     13  C   UNL     1       1.448  10.231  18.211  0.00  0.00    +0.000 A 
ATOM     14  C   UNL     1       0.944  10.686  19.436  0.00  0.00    +0.000 A 
ATOM     15  C   UNL     1       0.923   9.778  20.507  0.00  0.00    +0.000 A 
ATOM     16  C   UNL     1       1.417   8.477  20.357  0.00  0.00    +0.000 A 
BRANCH  14  17
ATOM     17  C   UNL     1       0.372  12.089  19.614  0.00  0.00    +0.000 C 
ATOM     18  C   UNL     1       0.592  13.051  18.429  0.00  0.00    +0.000 C 
ATOM     19  C   UNL     1       2.031  13.579  18.360  0.00  0.00    +0.000 C 
ATOM     20  N   UNL     1       2.458  14.203  19.609  0.00  0.00    +0.000 NA
ATOM     21  C   UNL     1       2.302  13.302  20.751  0.00  0.00    +0.000 C 
ATOM     22  C   UNL     1       0.871  12.787  20.894  0.00  0.00    +0.000 C 
ATOM     23  H   UNL     1       1.906  15.043  19.767  0.00  0.00    +0.000 HD
ENDBRANCH  14  17
ENDBRANCH   7  11
BRANCH   1  25
ATOM     24  N   UNL     1       0.830   2.981  21.113  0.00  0.00    +0.000 N 
ATOM     25  C   UNL     1       2.189   2.871  21.034  0.00  0.00    +0.000 C 
ATOM     26  O   UNL     1       2.851   2.460  21.983  0.00  0.00    +0.000 OA
ATOM     27  H   UNL     1       0.356   2.715  21.963  0.00  0.00    +0.000 HD
ATOM     28  H   UNL     1       0.287   3.328  20.324  0.00  0.00    +0.000 HD
ENDBRANCH   1  25
TORSDOF 3
ENDMDL
MODEL 4
REMARK VINA RESULT:      -8.2      2.997      7.953
REMARK  Name = 
REMARK  3 active torsions:
REMARK  status: ('A' for Active; 'I' for Inactive)
REMARK    1  A    between atoms: C_2  and  C_4
REMARK    2  A    between atoms: C_10  and  C_11
REMARK    3  A    between atoms: C_14  and  C_15
REMARK                            x       y       z     vdW  Elec       q    Type
REMARK                         _______ _______ _______ _____ _____    ______ ____
ROOT
ATOM      1  C   UNL     1       3.937   3.848  19.332  0.00  0.00    +0.000 A 
ATOM      2  C   UNL     1       3.854   2.638  20.043  0.00  0.00    +0.000 A 
ATOM      3  C   UNL     1       2.979   2.496  21.127  0.00  0.00    +0.000 A 
ATOM      4  C   UNL     1       2.159   3.550  21.542  0.00  0.00    +0.000 A 
ATOM      5  C   UNL     1       2.255   4.735  20.812  0.00  0.00    +0.000 A 
ATOM      6  N   UNL     1       1.626   5.944  20.943  0.00  0.00    +0.000 N 
ATOM      7  C   UNL     1       2.098   6.800  19.974  0.00  0.00    +0.000 A 
ATOM      8  N   UNL     1       2.982   6.181  19.217  0.00  0.00    +0.000 NA
ATOM      9  C   UNL     1       3.106   4.907  19.729  0.00  0.00    +0.000 A 
ATOM     10  H   UNL     1       0.947   6.173  21.651  0.00  0.00    +0.000 HD
ENDROOT
BRANCH   7  11
ATOM     11  C   UNL     1       1.690   8.194  19.838  0.00  0.00    +0.000 A 
ATOM     12  C   UNL     1       1.770   8.856  18.615  0.00  0.00    +0.000 A 
ATOM     13  C   UNL     1       1.339  10.174  18.495  0.00  0.00    +0.000 A 
ATOM     14  C   UNL     1       0.833  10.885  19.590  0.00  0.00    +0.000 A 
ATOM     15  C   UNL     1       0.742  10.209  20.817  0.00  0.00    +0.000 A 
ATOM     16  C   UNL     1       1.170   8.882  20.940  0.00  0.00    +0.000 A 
BRANCH  14  17
ATOM     17  C   UNL     1       0.332  12.321  19.471  0.00  0.00    +0.000 C 
ATOM     18  C   UNL     1      -0.586  12.801  20.615  0.00  0.00    +0.000 C 
ATOM     19  C   UNL     1      -2.005  12.230  20.510  0.00  0.00    +0.000 C 
ATOM     20  N   UNL     1      -2.622  12.502  19.214  0.00  0.00    +0.000 NA
ATOM     21  C   UNL     1      -1.797  12.021  18.105  0.00  0.00    +0.000 C 
ATOM     22  C   UNL     1      -0.384  12.602  18.136  0.00  0.00    +0.000 C 
ATOM     23  H   UNL     1      -2.763  13.505  19.116  0.00  0.00    +0.000 HD
ENDBRANCH  14  17
ENDBRANCH   7  11
BRANCH   1  25
ATOM     24  N   UNL     1       6.227   4.072  18.541  0.00  0.00    +0.000 N 
ATOM     25  C   UNL     1       4.901   4.004  18.218  0.00  0.00    +0.000 C 
ATOM     26  O   UNL     1       4.527   4.057  17.050  0.00  0.00    +0.000 OA
ATOM     27  H   UNL     1       6.915   4.161  17.809  0.00  0.00    +0.000 HD
ATOM     28  H   UNL     1       6.530   4.034  19.513  0.00  0.00    +0.000 HD
ENDBRANCH   1  25
TORSDOF 3
ENDMDL
MODEL 5
REMARK VINA RESULT:      -8.2      1.368      2.412
REMARK  Name = 
REMARK  3 active torsions:
REMARK  status: ('A' for Active; 'I' for Inactive)
REMARK    1  A    between atoms: C_2  and  C_4
REMARK    2  A    between atoms: C_10  and  C_11
REMARK    3  A    between atoms: C_14  and  C_15
REMARK                            x       y       z     vdW  Elec       q    Type
REMARK                         _______ _______ _______ _____ _____    ______ ____
ROOT
ATOM      1  C   UNL     1      -0.583  10.793  21.101  0.00  0.00    +0.000 A 
ATOM      2  C   UNL     1      -1.321  11.936  20.743  0.00  0.00    +0.000 A 
ATOM      3  C   UNL     1      -1.321  12.412  19.426  0.00  0.00    +0.000 A 
ATOM      4  C   UNL     1      -0.591  11.771  18.420  0.00  0.00    +0.000 A 
ATOM      5  C   UNL     1       0.122  10.634  18.801  0.00  0.00    +0.000 A 
ATOM      6  N   UNL     1       0.935   9.786  18.099  0.00  0.00    +0.000 N 
ATOM      7  C   UNL     1       1.421   8.823  18.954  0.00  0.00    +0.000 A 
ATOM      8  N   UNL     1       0.933   9.007  20.164  0.00  0.00    +0.000 NA
ATOM      9  C   UNL     1       0.139  10.132  20.096  0.00  0.00    +0.000 A 
ATOM     10  H   UNL     1       1.160   9.872  17.121  0.00  0.00    +0.000 HD
ENDROOT
BRANCH   7  11
ATOM     11  C   UNL     1       2.362   7.777  18.567  0.00  0.00    +0.000 A 
ATOM     12  C   UNL     1       3.314   7.990  17.573  0.00  0.00    +0.000 A 
ATOM     13  C   UNL     1       4.230   6.995  17.245  0.00  0.00    +0.000 A 
ATOM     14  C   UNL     1       4.216   5.746  17.879  0.00  0.00    +0.000 A 
ATOM     15  C   UNL     1       3.263   5.541  18.889  0.00  0.00    +0.000 A 
ATOM     16  C   UNL     1       2.345   6.542  19.225  0.00  0.00    +0.000 A 
BRANCH  14  17
ATOM     17  C   UNL     1       5.228   4.652  17.551  0.00  0.00    +0.000 C 
ATOM     18  C   UNL     1       6.692   4.969  17.923  0.00  0.00    +0.000 C 
ATOM     19  C   UNL     1       7.347   5.954  16.947  0.00  0.00    +0.000 C 
ATOM     20  N   UNL     1       7.259   5.508  15.559  0.00  0.00    +0.000 NA
ATOM     21  C   UNL     1       5.878   5.239  15.159  0.00  0.00    +0.000 C 
ATOM     22  C   UNL     1       5.195   4.222  16.072  0.00  0.00    +0.000 C 
ATOM     23  H   UNL     1       7.812   4.661  15.446  0.00  0.00    +0.000 HD
ENDBRANCH  14  17
ENDBRANCH   7  11
BRANCH   1  25
ATOM     24  N   UNL     1      -0.625   8.980  22.722  0.00  0.00    +0.000 N 
ATOM     25  C   UNL     1      -0.549  10.327  22.506  0.00  0.00    +0.000 C 
ATOM     26  O   UNL     1      -0.443  11.117  23.440  0.00  0.00    +0.000 OA
ATOM     27  H   UNL     1      -0.587   8.623  23.664  0.00  0.00    +0.000 HD
ATOM     28  H   UNL     1      -0.719   8.330  21.942  0.00  0.00    +0.000 HD
ENDBRANCH   1  25
TORSDOF 3
ENDMDL
MODEL 6
REMARK VINA RESULT:      -8.2      1.657      2.246
REMARK  Name = 
REMARK  3 active torsions:
REMARK  status: ('A' for Active; 'I' for Inactive)
REMARK    1  A    between atoms: C_2  and  C_4
REMARK    2  A    between atoms: C_10  and  C_11
REMARK    3  A    between atoms: C_14  and  C_15
REMARK                            x       y       z     vdW  Elec       q    Type
REMARK                         _______ _______ _______ _____ _____    ______ ____
ROOT
ATOM      1  C   UNL     1      -1.459  11.670  19.831  0.00  0.00    +0.000 A 
ATOM      2  C   UNL     1      -2.015  12.273  20.974  0.00  0.00    +0.000 A 
ATOM      3  C   UNL     1      -1.587  11.918  22.259  0.00  0.00    +0.000 A 
ATOM      4  C   UNL     1      -0.593  10.953  22.454  0.00  0.00    +0.000 A 
ATOM      5  C   UNL     1      -0.053  10.379  21.303  0.00  0.00    +0.000 A 
ATOM      6  N   UNL     1       0.904   9.417  21.123  0.00  0.00    +0.000 N 
ATOM      7  C   UNL     1       1.059   9.187  19.775  0.00  0.00    +0.000 A 
ATOM      8  N   UNL     1       0.259   9.978  19.088  0.00  0.00    +0.000 NA
ATOM      9  C   UNL     1      -0.449  10.713  20.015  0.00  0.00    +0.000 A 
ATOM     10  H   UNL     1       1.395   8.939  21.861  0.00  0.00    +0.000 HD
ENDROOT
BRANCH   7  11
ATOM     11  C   UNL     1       1.958   8.188  19.208  0.00  0.00    +0.000 A 
ATOM     12  C   UNL     1       2.564   8.379  17.968  0.00  0.00    +0.000 A 
ATOM     13  C   UNL     1       3.452   7.434  17.461  0.00  0.00    +0.000 A 
ATOM     14  C   UNL     1       3.750   6.257  18.159  0.00  0.00    +0.000 A 
ATOM     15  C   UNL     1       3.147   6.076  19.414  0.00  0.00    +0.000 A 
ATOM     16  C   UNL     1       2.259   7.027  19.929  0.00  0.00    +0.000 A 
BRANCH  14  17
ATOM     17  C   UNL     1       4.740   5.223  17.632  0.00  0.00    +0.000 C 
ATOM     18  C   UNL     1       4.149   4.165  16.676  0.00  0.00    +0.000 C 
ATOM     19  C   UNL     1       3.331   3.098  17.413  0.00  0.00    +0.000 C 
ATOM     20  N   UNL     1       4.088   2.452  18.482  0.00  0.00    +0.000 NA
ATOM     21  C   UNL     1       4.629   3.425  19.432  0.00  0.00    +0.000 C 
ATOM     22  C   UNL     1       5.495   4.483  18.752  0.00  0.00    +0.000 C 
ATOM     23  H   UNL     1       4.854   1.922  18.073  0.00  0.00    +0.000 HD
ENDBRANCH  14  17
ENDBRANCH   7  11
BRANCH   1  25
ATOM     24  N   UNL     1      -1.091  12.666  17.643  0.00  0.00    +0.000 N 
ATOM     25  C   UNL     1      -1.953  12.016  18.479  0.00  0.00    +0.000 C 
ATOM     26  O   UNL     1      -3.090  11.721  18.118  0.00  0.00    +0.000 OA
ATOM     27  H   UNL     1      -1.385  12.903  16.708  0.00  0.00    +0.000 HD
ATOM     28  H   UNL     1      -0.152  12.914  17.951  0.00  0.00    +0.000 HD
ENDBRANCH   1  25
TORSDOF 3
ENDMDL
MODEL 7
REMARK VINA RESULT:      -8.2      1.511      2.205
REMARK  Name = 
REMARK  3 active torsions:
REMARK  status: ('A' for Active; 'I' for Inactive)
REMARK    1  A    between atoms: C_2  and  C_4
REMARK    2  A    between atoms: C_10  and  C_11
REMARK    3  A    between atoms: C_14  and  C_15
REMARK                            x       y       z     vdW  Elec       q    Type
REMARK                         _______ _______ _______ _____ _____    ______ ____
ROOT
ATOM      1  C   UNL     1      -1.908  11.692  19.251  0.00  0.00    +0.000 A 
ATOM      2  C   UNL     1      -2.408  12.508  20.282  0.00  0.00    +0.000 A 
ATOM      3  C   UNL     1      -1.801  12.531  21.543  0.00  0.00    +0.000 A 
ATOM      4  C   UNL     1      -0.678  11.747  21.824  0.00  0.00    +0.000 A 
ATOM      5  C   UNL     1      -0.197  10.956  20.781  0.00  0.00    +0.000 A 
ATOM      6  N   UNL     1       0.849  10.076  20.706  0.00  0.00    +0.000 N 
ATOM      7  C   UNL     1       0.883   9.529  19.444  0.00  0.00    +0.000 A 
ATOM      8  N   UNL     1      -0.081  10.040  18.704  0.00  0.00    +0.000 NA
ATOM      9  C   UNL     1      -0.771  10.913  19.517  0.00  0.00    +0.000 A 
ATOM     10  H   UNL     1       1.474   9.850  21.462  0.00  0.00    +0.000 HD
ENDROOT
BRANCH   7  11
ATOM     11  C   UNL     1       1.835   8.511  19.013  0.00  0.00    +0.000 A 
ATOM     12  C   UNL     1       2.085   7.379  19.786  0.00  0.00    +0.000 A 
ATOM     13  C   UNL     1       2.966   6.398  19.339  0.00  0.00    +0.000 A 
ATOM     14  C   UNL     1       3.645   6.519  18.120  0.00  0.00    +0.000 A 
ATOM     15  C   UNL     1       3.379   7.655  17.339  0.00  0.00    +0.000 A 
ATOM     16  C   UNL     1       2.489   8.640  17.782  0.00  0.00    +0.000 A 
BRANCH  14  17
ATOM     17  C   UNL     1       4.594   5.442  17.603  0.00  0.00    +0.000 C 
ATOM     18  C   UNL     1       5.360   4.656  18.687  0.00  0.00    +0.000 C 
ATOM     19  C   UNL     1       6.511   5.465  19.298  0.00  0.00    +0.000 C 
ATOM     20  N   UNL     1       7.436   5.972  18.288  0.00  0.00    +0.000 NA
ATOM     21  C   UNL     1       6.747   6.760  17.264  0.00  0.00    +0.000 C 
ATOM     22  C   UNL     1       5.622   5.980  16.589  0.00  0.00    +0.000 C 
ATOM     23  H   UNL     1       7.908   5.188  17.845  0.00  0.00    +0.000 HD
ENDBRANCH  14  17
ENDBRANCH   7  11
BRANCH   1  25
ATOM     24  N   UNL     1      -1.859  11.995  16.838  0.00  0.00    +0.000 N 
ATOM     25  C   UNL     1      -2.588  11.636  17.936  0.00  0.00    +0.000 C 
ATOM     26  O   UNL     1      -3.755  11.269  17.834  0.00  0.00    +0.000 OA
ATOM     27  H   UNL     1      -2.282  11.954  15.923  0.00  0.00    +0.000 HD
ATOM     28  H   UNL     1      -0.893  12.305  16.930  0.00  0.00    +0.000 HD
ENDBRANCH   1  25
TORSDOF 3
ENDMDL
MODEL 8
REMARK VINA RESULT:      -8.2      0.478      1.090
REMARK  Name = 
REMARK  3 active torsions:
REMARK  status: ('A' for Active; 'I' for Inactive)
REMARK    1  A    between atoms: C_2  and  C_4
REMARK    2  A    between atoms: C_10  and  C_11
REMARK    3  A    between atoms: C_14  and  C_15
REMARK                            x       y       z     vdW  Elec       q    Type
REMARK                         _______ _______ _______ _____ _____    ______ ____
ROOT
ATOM      1  C   UNL     1      -0.455  10.943  20.334  0.00  0.00    +0.000 A 
ATOM      2  C   UNL     1      -1.110  11.366  21.506  0.00  0.00    +0.000 A 
ATOM      3  C   UNL     1      -0.929  10.689  22.718  0.00  0.00    +0.000 A 
ATOM      4  C   UNL     1      -0.094   9.571  22.810  0.00  0.00    +0.000 A 
ATOM      5  C   UNL     1       0.550   9.180  21.636  0.00  0.00    +0.000 A 
ATOM      6  N   UNL     1       1.407   8.149  21.362  0.00  0.00    +0.000 N 
ATOM      7  C   UNL     1       1.742   8.188  20.028  0.00  0.00    +0.000 A 
ATOM      8  N   UNL     1       1.153   9.214  19.445  0.00  0.00    +0.000 NA
ATOM      9  C   UNL     1       0.398   9.832  20.419  0.00  0.00    +0.000 A 
ATOM     10  H   UNL     1       1.720   7.460  22.027  0.00  0.00    +0.000 HD
ENDROOT
BRANCH   7  11
ATOM     11  C   UNL     1       2.599   7.212  19.365  0.00  0.00    +0.000 A 
ATOM     12  C   UNL     1       2.930   6.004  19.975  0.00  0.00    +0.000 A 
ATOM     13  C   UNL     1       3.715   5.067  19.311  0.00  0.00    +0.000 A 
ATOM     14  C   UNL     1       4.217   5.308  18.026  0.00  0.00    +0.000 A 
ATOM     15  C   UNL     1       3.870   6.520  17.409  0.00  0.00    +0.000 A 
ATOM     16  C   UNL     1       3.076   7.462  18.072  0.00  0.00    +0.000 A 
BRANCH  14  17
ATOM     17  C   UNL     1       5.058   4.282  17.272  0.00  0.00    +0.000 C 
ATOM     18  C   UNL     1       6.562   4.273  17.617  0.00  0.00    +0.000 C 
ATOM     19  C   UNL     1       7.317   5.449  16.985  0.00  0.00    +0.000 C 
ATOM     20  N   UNL     1       7.127   5.524  15.539  0.00  0.00    +0.000 NA
ATOM     21  C   UNL     1       5.710   5.576  15.177  0.00  0.00    +0.000 C 
ATOM     22  C   UNL     1       4.921   4.396  15.742  0.00  0.00    +0.000 C 
ATOM     23  H   UNL     1       7.553   4.709  15.105  0.00  0.00    +0.000 HD
ENDBRANCH  14  17
ENDBRANCH   7  11
BRANCH   1  25
ATOM     24  N   UNL     1      -0.763  10.860  17.923  0.00  0.00    +0.000 N 
ATOM     25  C   UNL     1      -0.692  11.634  19.046  0.00  0.00    +0.000 C 
ATOM     26  O   UNL     1      -0.830  12.853  18.990  0.00  0.00    +0.000 OA
ATOM     27  H   UNL     1      -0.941  11.293  17.029  0.00  0.00    +0.000 HD
ATOM     28  H   UNL     1      -0.641   9.850  17.976  0.00  0.00    +0.000 HD
ENDBRANCH   1  25
TORSDOF 3
ENDMDL
MODEL 9
REMARK VINA RESULT:      -8.2      1.746      2.518
REMARK  Name = 
REMARK  3 active torsions:
REMARK  status: ('A' for Active; 'I' for Inactive)
REMARK    1  A    between atoms: C_2  and  C_4
REMARK    2  A    between atoms: C_10  and  C_11
REMARK    3  A    between atoms: C_14  and  C_15
REMARK                            x       y       z     vdW  Elec       q    Type
REMARK                         _______ _______ _______ _____ _____    ______ ____
ROOT
ATOM      1  C   UNL     1      -0.559  12.747  20.220  0.00  0.00    +0.000 A 
ATOM      2  C   UNL     1      -1.288  13.246  21.315  0.00  0.00    +0.000 A 
ATOM      3  C   UNL     1      -1.459  12.485  22.477  0.00  0.00    +0.000 A 
ATOM      4  C   UNL     1      -0.912  11.203  22.594  0.00  0.00    +0.000 A 
ATOM      5  C   UNL     1      -0.186  10.737  21.498  0.00  0.00    +0.000 A 
ATOM      6  N   UNL     1       0.461   9.554  21.265  0.00  0.00    +0.000 N 
ATOM      7  C   UNL     1       1.009   9.584  20.003  0.00  0.00    +0.000 A 
ATOM      8  N   UNL     1       0.760  10.746  19.431  0.00  0.00    +0.000 NA
ATOM      9  C   UNL     1       0.008  11.468  20.333  0.00  0.00    +0.000 A 
ATOM     10  H   UNL     1       0.505   8.778  21.906  0.00  0.00    +0.000 HD
ENDROOT
BRANCH   7  11
ATOM     11  C   UNL     1       1.731   8.474  19.391  0.00  0.00    +0.000 A 
ATOM     12  C   UNL     1       1.904   7.265  20.060  0.00  0.00    +0.000 A 
ATOM     13  C   UNL     1       2.560   6.203  19.445  0.00  0.00    +0.000 A 
ATOM     14  C   UNL     1       3.085   6.313  18.151  0.00  0.00    +0.000 A 
ATOM     15  C   UNL     1       2.895   7.529  17.475  0.00  0.00    +0.000 A 
ATOM     16  C   UNL     1       2.231   8.597  18.089  0.00  0.00    +0.000 A 
BRANCH  14  17
ATOM     17  C   UNL     1       3.784   5.152  17.451  0.00  0.00    +0.000 C 
ATOM     18  C   UNL     1       3.441   3.747  17.992  0.00  0.00    +0.000 C 
ATOM     19  C   UNL     1       4.137   3.444  19.324  0.00  0.00    +0.000 C 
ATOM     20  N   UNL     1       5.585   3.624  19.253  0.00  0.00    +0.000 NA
ATOM     21  C   UNL     1       5.947   4.962  18.783  0.00  0.00    +0.000 C 
ATOM     22  C   UNL     1       5.318   5.294  17.431  0.00  0.00    +0.000 C 
ATOM     23  H   UNL     1       5.975   2.930  18.620  0.00  0.00    +0.000 HD
ENDBRANCH  14  17
ENDBRANCH   7  11
BRANCH   1  25
ATOM     24  N   UNL     1      -0.906  12.983  17.824  0.00  0.00    +0.000 N 
ATOM     25  C   UNL     1      -0.428  13.539  18.976  0.00  0.00    +0.000 C 
ATOM     26  O   UNL     1       0.080  14.658  18.981  0.00  0.00    +0.000 OA
ATOM     27  H   UNL     1      -0.850  13.499  16.960  0.00  0.00    +0.000 HD
ATOM     28  H   UNL     1      -1.320  12.052  17.826  0.00  0.00    +0.000 HD
ENDBRANCH   1  25
TORSDOF 3
ENDMDL
