MODEL 1
REMARK VINA RESULT:      -8.4      0.000      0.000
REMARK  Name = 
REMARK  6 active torsions:
REMARK  status: ('A' for Active; 'I' for Inactive)
REMARK    1  A    between atoms: N_1  and  C_2
REMARK    2  A    between atoms: C_5  and  C_6
REMARK    3  A    between atoms: C_6  and  C_8
REMARK    4  A    between atoms: C_9  and  C_10
REMARK    5  A    between atoms: C_13  and  C_14
REMARK    6  A    between atoms: C_22  and  O_23
REMARK                            x       y       z     vdW  Elec       q    Type
REMARK                         _______ _______ _______ _____ _____    ______ ____
ROOT
ATOM      1  C   UNL     1       2.963   4.705  18.268  0.00  0.00    +0.000 C 
ATOM      2  C   UNL     1       3.327   5.995  18.292  0.00  0.00    +0.000 C 
ENDROOT
BRANCH   2   3
ATOM      3  C   UNL     1       2.521   6.988  18.998  0.00  0.00    +0.000 A 
ATOM      4  C   UNL     1       2.159   8.173  18.357  0.00  0.00    +0.000 A 
ATOM      5  C   UNL     1       1.392   9.133  19.028  0.00  0.00    +0.000 A 
ATOM      6  C   UNL     1       0.951   8.935  20.349  0.00  0.00    +0.000 A 
ATOM      7  C   UNL     1       1.342   7.739  20.980  0.00  0.00    +0.000 A 
ATOM      8  C   UNL     1       2.122   6.779  20.318  0.00  0.00    +0.000 A 
BRANCH   6   9
ATOM      9  C   UNL     1       0.102   9.942  21.036  0.00  0.00    +0.000 A 
ATOM     10  C   UNL     1      -0.259   9.792  22.390  0.00  0.00    +0.000 A 
ATOM     11  C   UNL     1      -1.068  10.728  23.043  0.00  0.00    +0.000 A 
ATOM     12  C   UNL     1      -1.524  11.850  22.361  0.00  0.00    +0.000 A 
ATOM     13  C   UNL     1      -1.174  12.034  21.027  0.00  0.00    +0.000 A 
ATOM     14  C   UNL     1      -0.375  11.087  20.373  0.00  0.00    +0.000 A 
ENDBRANCH   6   9
ENDBRANCH   2   3
BRANCH   1  15
ATOM     15  C   UNL     1       3.842   3.706  17.607  0.00  0.00    +0.000 C 
ATOM     16  O   UNL     1       3.695   2.501  17.806  0.00  0.00    +0.000 OA
BRANCH  15  20
ATOM     17  C   UNL     1       7.036   4.969  14.968  0.00  0.00    +0.000 A 
ATOM     18  C   UNL     1       5.727   4.881  14.495  0.00  0.00    +0.000 A 
ATOM     19  C   UNL     1       4.682   4.460  15.328  0.00  0.00    +0.000 A 
ATOM     20  C   UNL     1       4.920   4.165  16.677  0.00  0.00    +0.000 A 
ATOM     21  C   UNL     1       6.233   4.299  17.159  0.00  0.00    +0.000 A 
ATOM     22  C   UNL     1       7.270   4.718  16.320  0.00  0.00    +0.000 A 
BRANCH  17  23
ATOM     23  N   UNL     1       8.039   5.519  14.164  0.00  0.00    +0.000 N 
ATOM     24  H   UNL     1       7.982   6.527  14.055  0.00  0.00    +0.000 HD
ATOM     25  H   UNL     1       8.161   5.041  13.276  0.00  0.00    +0.000 HD
ENDBRANCH  17  23
BRANCH  21  26
ATOM     26  O   UNL     1       6.591   4.041  18.458  0.00  0.00    +0.000 OA
ATOM     27  H   UNL     1       5.784   3.753  18.944  0.00  0.00    +0.000 HD
ENDBRANCH  21  26
ENDBRANCH  15  20
ENDBRANCH   1  15
TORSDOF 6
ENDMDL
MODEL 2
REMARK VINA RESULT:      -8.4      0.525      1.112
REMARK  Name = 
REMARK  6 active torsions:
REMARK  status: ('A' for Active; 'I' for Inactive)
REMARK    1  A    between atoms: N_1  and  C_2
REMARK    2  A    between atoms: C_5  and  C_6
REMARK    3  A    between atoms: C_6  and  C_8
REMARK    4  A    between atoms: C_9  and  C_10
REMARK    5  A    between atoms: C_13  and  C_14
REMARK    6  A    between atoms: C_22  and  O_23
REMARK                            x       y       z     vdW  Elec       q    Type
REMARK                         _______ _______ _______ _____ _____    ______ ____
ROOT
ATOM      1  C   UNL     1       3.325   4.747  19.029  0.00  0.00    +0.000 C 
ATOM      2  C   UNL     1       3.130   5.946  18.461  0.00  0.00    +0.000 C 
ENDROOT
BRANCH   2   3
ATOM      3  C   UNL     1       2.389   6.993  19.160  0.00  0.00    +0.000 A 
ATOM      4  C   UNL     1       1.938   6.776  20.463  0.00  0.00    +0.000 A 
ATOM      5  C   UNL     1       1.222   7.771  21.137  0.00  0.00    +0.000 A 
ATOM      6  C   UNL     1       0.945   9.016  20.542  0.00  0.00    +0.000 A 
ATOM      7  C   UNL     1       1.396   9.206  19.221  0.00  0.00    +0.000 A 
ATOM      8  C   UNL     1       2.103   8.207  18.535  0.00  0.00    +0.000 A 
BRANCH   6   9
ATOM      9  C   UNL     1       0.221  10.080  21.283  0.00  0.00    +0.000 A 
ATOM     10  C   UNL     1      -0.462   9.800  22.483  0.00  0.00    +0.000 A 
ATOM     11  C   UNL     1      -1.157  10.792  23.182  0.00  0.00    +0.000 A 
ATOM     12  C   UNL     1      -1.172  12.098  22.706  0.00  0.00    +0.000 A 
ATOM     13  C   UNL     1      -0.497  12.410  21.532  0.00  0.00    +0.000 A 
ATOM     14  C   UNL     1       0.187  11.411  20.827  0.00  0.00    +0.000 A 
ENDBRANCH   6   9
ENDBRANCH   2   3
BRANCH   1  15
ATOM     15  C   UNL     1       4.147   3.728  18.327  0.00  0.00    +0.000 C 
ATOM     16  O   UNL     1       4.059   2.535  18.615  0.00  0.00    +0.000 OA
BRANCH  15  20
ATOM     17  C   UNL     1       6.969   4.906  15.261  0.00  0.00    +0.000 A 
ATOM     18  C   UNL     1       5.666   4.548  14.916  0.00  0.00    +0.000 A 
ATOM     19  C   UNL     1       4.742   4.149  15.891  0.00  0.00    +0.000 A 
ATOM     20  C   UNL     1       5.092   4.149  17.248  0.00  0.00    +0.000 A 
ATOM     21  C   UNL     1       6.393   4.555  17.592  0.00  0.00    +0.000 A 
ATOM     22  C   UNL     1       7.309   4.951  16.613  0.00  0.00    +0.000 A 
BRANCH  17  23
ATOM     23  N   UNL     1       7.833   5.431  14.294  0.00  0.00    +0.000 N 
ATOM     24  H   UNL     1       8.622   4.833  14.069  0.00  0.00    +0.000 HD
ATOM     25  H   UNL     1       8.114   6.390  14.472  0.00  0.00    +0.000 HD
ENDBRANCH  17  23
BRANCH  21  26
ATOM     26  O   UNL     1       6.853   4.599  18.885  0.00  0.00    +0.000 OA
ATOM     27  H   UNL     1       6.648   3.735  19.309  0.00  0.00    +0.000 HD
ENDBRANCH  21  26
ENDBRANCH  15  20
ENDBRANCH   1  15
TORSDOF 6
ENDMDL
MODEL 3
REMARK VINA RESULT:      -8.3      1.070      1.811
REMARK  Name = 
REMARK  6 active torsions:
REMARK  status: ('A' for Active; 'I' for Inactive)
REMARK    1  A    between atoms: N_1  and  C_2
REMARK    2  A    between atoms: C_5  and  C_6
REMARK    3  A    between atoms: C_6  and  C_8
REMARK    4  A    between atoms: C_9  and  C_10
REMARK    5  A    between atoms: C_13  and  C_14
REMARK    6  A    between atoms: C_22  and  O_23
REMARK                            x       y       z     vdW  Elec       q    Type
REMARK                         _______ _______ _______ _____ _____    ______ ____
ROOT
ATOM      1  C   UNL     1       3.151   5.137  19.763  0.00  0.00    +0.000 C 
ATOM      2  C   UNL     1       3.098   6.317  19.128  0.00  0.00    +0.000 C 
ENDROOT
BRANCH   2   3
ATOM      3  C   UNL     1       2.211   7.379  19.595  0.00  0.00    +0.000 A 
ATOM      4  C   UNL     1       1.637   7.299  20.864  0.00  0.00    +0.000 A 
ATOM      5  C   UNL     1       0.781   8.309  21.317  0.00  0.00    +0.000 A 
ATOM      6  C   UNL     1       0.484   9.435  20.528  0.00  0.00    +0.000 A 
ATOM      7  C   UNL     1       1.062   9.486  19.245  0.00  0.00    +0.000 A 
ATOM      8  C   UNL     1       1.910   8.470  18.780  0.00  0.00    +0.000 A 
BRANCH   6   9
ATOM      9  C   UNL     1      -0.392  10.522  21.037  0.00  0.00    +0.000 A 
ATOM     10  C   UNL     1      -1.041  11.410  20.156  0.00  0.00    +0.000 A 
ATOM     11  C   UNL     1      -1.859  12.444  20.625  0.00  0.00    +0.000 A 
ATOM     12  C   UNL     1      -2.062  12.605  21.991  0.00  0.00    +0.000 A 
ATOM     13  C   UNL     1      -1.447  11.737  22.885  0.00  0.00    +0.000 A 
ATOM     14  C   UNL     1      -0.618  10.710  22.412  0.00  0.00    +0.000 A 
ENDBRANCH   6   9
ENDBRANCH   2   3
BRANCH   1  15
ATOM     15  C   UNL     1       4.117   4.103  19.311  0.00  0.00    +0.000 C 
ATOM     16  O   UNL     1       4.182   3.008  19.869  0.00  0.00    +0.000 OA
BRANCH  15  20
ATOM     17  C   UNL     1       6.826   4.890  16.025  0.00  0.00    +0.000 A 
ATOM     18  C   UNL     1       5.526   4.453  15.774  0.00  0.00    +0.000 A 
ATOM     19  C   UNL     1       4.639   4.177  16.823  0.00  0.00    +0.000 A 
ATOM     20  C   UNL     1       5.022   4.385  18.155  0.00  0.00    +0.000 A 
ATOM     21  C   UNL     1       6.319   4.870  18.398  0.00  0.00    +0.000 A 
ATOM     22  C   UNL     1       7.198   5.140  17.346  0.00  0.00    +0.000 A 
BRANCH  17  23
ATOM     23  N   UNL     1       7.650   5.289  14.967  0.00  0.00    +0.000 N 
ATOM     24  H   UNL     1       8.016   6.232  15.054  0.00  0.00    +0.000 HD
ATOM     25  H   UNL     1       7.253   5.112  14.049  0.00  0.00    +0.000 HD
ENDBRANCH  17  23
BRANCH  21  26
ATOM     26  O   UNL     1       6.809   5.114  19.657  0.00  0.00    +0.000 OA
ATOM     27  H   UNL     1       6.397   4.467  20.274  0.00  0.00    +0.000 HD
ENDBRANCH  21  26
ENDBRANCH  15  20
ENDBRANCH   1  15
TORSDOF 6
ENDMDL
MODEL 4
REMARK VINA RESULT:      -8.3      0.961      1.406
REMARK  Name = 
REMARK  6 active torsions:
REMARK  status: ('A' for Active; 'I' for Inactive)
REMARK    1  A    between atoms: N_1  and  C_2
REMARK    2  A    between atoms: C_5  and  C_6
REMARK    3  A    between atoms: C_6  and  C_8
REMARK    4  A    between atoms: C_9  and  C_10
REMARK    5  A    between atoms: C_13  and  C_14
REMARK    6  A    between atoms: C_22  and  O_23
REMARK                            x       y       z     vdW  Elec       q    Type
REMARK                         _______ _______ _______ _____ _____    ______ ____
ROOT
ATOM      1  C   UNL     1       3.387   5.052  19.699  0.00  0.00    +0.000 C 
ATOM      2  C   UNL     1       3.102   6.132  18.957  0.00  0.00    +0.000 C 
ENDROOT
BRANCH   2   3
ATOM      3  C   UNL     1       2.268   7.207  19.489  0.00  0.00    +0.000 A 
ATOM      4  C   UNL     1       1.993   8.327  18.704  0.00  0.00    +0.000 A 
ATOM      5  C   UNL     1       1.201   9.365  19.209  0.00  0.00    +0.000 A 
ATOM      6  C   UNL     1       0.646   9.311  20.501  0.00  0.00    +0.000 A 
ATOM      7  C   UNL     1       0.950   8.178  21.279  0.00  0.00    +0.000 A 
ATOM      8  C   UNL     1       1.755   7.141  20.784  0.00  0.00    +0.000 A 
BRANCH   6   9
ATOM      9  C   UNL     1      -0.228  10.399  21.009  0.00  0.00    +0.000 A 
ATOM     10  C   UNL     1      -0.851  11.307  20.130  0.00  0.00    +0.000 A 
ATOM     11  C   UNL     1      -1.666  12.342  20.599  0.00  0.00    +0.000 A 
ATOM     12  C   UNL     1      -1.895  12.485  21.963  0.00  0.00    +0.000 A 
ATOM     13  C   UNL     1      -1.306  11.597  22.855  0.00  0.00    +0.000 A 
ATOM     14  C   UNL     1      -0.479  10.569  22.383  0.00  0.00    +0.000 A 
ENDBRANCH   6   9
ENDBRANCH   2   3
BRANCH   1  15
ATOM     15  C   UNL     1       4.299   4.010  19.159  0.00  0.00    +0.000 C 
ATOM     16  O   UNL     1       4.363   2.894  19.673  0.00  0.00    +0.000 OA
BRANCH  15  20
ATOM     17  C   UNL     1       6.853   4.857  15.765  0.00  0.00    +0.000 A 
ATOM     18  C   UNL     1       5.556   4.382  15.567  0.00  0.00    +0.000 A 
ATOM     19  C   UNL     1       4.719   4.087  16.652  0.00  0.00    +0.000 A 
ATOM     20  C   UNL     1       5.149   4.312  17.967  0.00  0.00    +0.000 A 
ATOM     21  C   UNL     1       6.440   4.835  18.157  0.00  0.00    +0.000 A 
ATOM     22  C   UNL     1       7.269   5.124  17.069  0.00  0.00    +0.000 A 
BRANCH  17  23
ATOM     23  N   UNL     1       7.622   5.273  14.674  0.00  0.00    +0.000 N 
ATOM     24  H   UNL     1       7.624   4.625  13.892  0.00  0.00    +0.000 HD
ATOM     25  H   UNL     1       8.558   5.579  14.924  0.00  0.00    +0.000 HD
ENDBRANCH  17  23
BRANCH  21  26
ATOM     26  O   UNL     1       6.973   5.099  19.393  0.00  0.00    +0.000 OA
ATOM     27  H   UNL     1       6.318   5.632  19.899  0.00  0.00    +0.000 HD
ENDBRANCH  21  26
ENDBRANCH  15  20
ENDBRANCH   1  15
TORSDOF 6
ENDMDL
MODEL 5
REMARK VINA RESULT:      -8.2      1.096      1.250
REMARK  Name = 
REMARK  6 active torsions:
REMARK  status: ('A' for Active; 'I' for Inactive)
REMARK    1  A    between atoms: N_1  and  C_2
REMARK    2  A    between atoms: C_5  and  C_6
REMARK    3  A    between atoms: C_6  and  C_8
REMARK    4  A    between atoms: C_9  and  C_10
REMARK    5  A    between atoms: C_13  and  C_14
REMARK    6  A    between atoms: C_22  and  O_23
REMARK                            x       y       z     vdW  Elec       q    Type
REMARK                         _______ _______ _______ _____ _____    ______ ____
ROOT
ATOM      1  C   UNL     1       3.054   5.186  19.716  0.00  0.00    +0.000 C 
ATOM      2  C   UNL     1       3.085   6.395  19.137  0.00  0.00    +0.000 C 
ENDROOT
BRANCH   2   3
ATOM      3  C   UNL     1       2.194   7.462  19.584  0.00  0.00    +0.000 A 
ATOM      4  C   UNL     1       1.892   8.521  18.726  0.00  0.00    +0.000 A 
ATOM      5  C   UNL     1       1.045   9.552  19.149  0.00  0.00    +0.000 A 
ATOM      6  C   UNL     1       0.462   9.552  20.429  0.00  0.00    +0.000 A 
ATOM      7  C   UNL     1       0.794   8.482  21.282  0.00  0.00    +0.000 A 
ATOM      8  C   UNL     1       1.653   7.453  20.869  0.00  0.00    +0.000 A 
BRANCH   6   9
ATOM      9  C   UNL     1      -0.470  10.630  20.851  0.00  0.00    +0.000 A 
ATOM     10  C   UNL     1      -0.635  10.962  22.210  0.00  0.00    +0.000 A 
ATOM     11  C   UNL     1      -1.518  11.967  22.618  0.00  0.00    +0.000 A 
ATOM     12  C   UNL     1      -2.248  12.679  21.673  0.00  0.00    +0.000 A 
ATOM     13  C   UNL     1      -2.098  12.383  20.323  0.00  0.00    +0.000 A 
ATOM     14  C   UNL     1      -1.222  11.367  19.918  0.00  0.00    +0.000 A 
ENDBRANCH   6   9
ENDBRANCH   2   3
BRANCH   1  15
ATOM     15  C   UNL     1       4.024   4.143  19.292  0.00  0.00    +0.000 C 
ATOM     16  O   UNL     1       4.076   3.055  19.864  0.00  0.00    +0.000 OA
BRANCH  15  20
ATOM     17  C   UNL     1       6.787   4.880  16.039  0.00  0.00    +0.000 A 
ATOM     18  C   UNL     1       5.477   4.481  15.771  0.00  0.00    +0.000 A 
ATOM     19  C   UNL     1       4.572   4.223  16.810  0.00  0.00    +0.000 A 
ATOM     20  C   UNL     1       4.948   4.409  18.147  0.00  0.00    +0.000 A 
ATOM     21  C   UNL     1       6.255   4.855  18.407  0.00  0.00    +0.000 A 
ATOM     22  C   UNL     1       7.152   5.109  17.366  0.00  0.00    +0.000 A 
BRANCH  17  23
ATOM     23  N   UNL     1       7.632   5.263  14.993  0.00  0.00    +0.000 N 
ATOM     24  H   UNL     1       7.488   6.214  14.666  0.00  0.00    +0.000 HD
ATOM     25  H   UNL     1       7.669   4.594  14.230  0.00  0.00    +0.000 HD
ENDBRANCH  17  23
BRANCH  21  26
ATOM     26  O   UNL     1       6.740   5.075  19.672  0.00  0.00    +0.000 OA
ATOM     27  H   UNL     1       7.646   4.693  19.721  0.00  0.00    +0.000 HD
ENDBRANCH  21  26
ENDBRANCH  15  20
ENDBRANCH   1  15
TORSDOF 6
ENDMDL
MODEL 6
REMARK VINA RESULT:      -8.0      0.923      1.705
REMARK  Name = 
REMARK  6 active torsions:
REMARK  status: ('A' for Active; 'I' for Inactive)
REMARK    1  A    between atoms: N_1  and  C_2
REMARK    2  A    between atoms: C_5  and  C_6
REMARK    3  A    between atoms: C_6  and  C_8
REMARK    4  A    between atoms: C_9  and  C_10
REMARK    5  A    between atoms: C_13  and  C_14
REMARK    6  A    between atoms: C_22  and  O_23
REMARK                            x       y       z     vdW  Elec       q    Type
REMARK                         _______ _______ _______ _____ _____    ______ ____
ROOT
ATOM      1  C   UNL     1       2.843   5.342  18.316  0.00  0.00    +0.000 C 
ATOM      2  C   UNL     1       3.269   6.594  18.538  0.00  0.00    +0.000 C 
ENDROOT
BRANCH   2   3
ATOM      3  C   UNL     1       2.327   7.654  18.888  0.00  0.00    +0.000 A 
ATOM      4  C   UNL     1       1.862   7.766  20.199  0.00  0.00    +0.000 A 
ATOM      5  C   UNL     1       0.955   8.775  20.542  0.00  0.00    +0.000 A 
ATOM      6  C   UNL     1       0.495   9.710  19.596  0.00  0.00    +0.000 A 
ATOM      7  C   UNL     1       0.966   9.567  18.277  0.00  0.00    +0.000 A 
ATOM      8  C   UNL     1       1.865   8.549  17.924  0.00  0.00    +0.000 A 
BRANCH   6   9
ATOM      9  C   UNL     1      -0.434  10.802  19.982  0.00  0.00    +0.000 A 
ATOM     10  C   UNL     1      -1.501  11.183  19.145  0.00  0.00    +0.000 A 
ATOM     11  C   UNL     1      -2.376  12.218  19.493  0.00  0.00    +0.000 A 
ATOM     12  C   UNL     1      -2.215  12.889  20.700  0.00  0.00    +0.000 A 
ATOM     13  C   UNL     1      -1.179  12.528  21.555  0.00  0.00    +0.000 A 
ATOM     14  C   UNL     1      -0.297  11.499  21.196  0.00  0.00    +0.000 A 
ENDBRANCH   6   9
ENDBRANCH   2   3
BRANCH   1  15
ATOM     15  C   UNL     1       3.832   4.269  18.036  0.00  0.00    +0.000 C 
ATOM     16  O   UNL     1       3.781   3.190  18.625  0.00  0.00    +0.000 OA
BRANCH  15  20
ATOM     17  C   UNL     1       7.005   4.856  15.147  0.00  0.00    +0.000 A 
ATOM     18  C   UNL     1       5.674   4.814  14.730  0.00  0.00    +0.000 A 
ATOM     19  C   UNL     1       4.634   4.610  15.647  0.00  0.00    +0.000 A 
ATOM     20  C   UNL     1       4.903   4.493  17.018  0.00  0.00    +0.000 A 
ATOM     21  C   UNL     1       6.242   4.582  17.435  0.00  0.00    +0.000 A 
ATOM     22  C   UNL     1       7.274   4.784  16.514  0.00  0.00    +0.000 A 
BRANCH  17  23
ATOM     23  N   UNL     1       8.015   5.195  14.241  0.00  0.00    +0.000 N 
ATOM     24  H   UNL     1       7.988   6.160  13.927  0.00  0.00    +0.000 HD
ATOM     25  H   UNL     1       8.111   4.541  13.471  0.00  0.00    +0.000 HD
ENDBRANCH  17  23
BRANCH  21  26
ATOM     26  O   UNL     1       6.631   4.483  18.747  0.00  0.00    +0.000 OA
ATOM     27  H   UNL     1       6.539   5.373  19.159  0.00  0.00    +0.000 HD
ENDBRANCH  21  26
ENDBRANCH  15  20
ENDBRANCH   1  15
TORSDOF 6
ENDMDL
MODEL 7
REMARK VINA RESULT:      -7.8      1.100      2.141
REMARK  Name = 
REMARK  6 active torsions:
REMARK  status: ('A' for Active; 'I' for Inactive)
REMARK    1  A    between atoms: N_1  and  C_2
REMARK    2  A    between atoms: C_5  and  C_6
REMARK    3  A    between atoms: C_6  and  C_8
REMARK    4  A    between atoms: C_9  and  C_10
REMARK    5  A    between atoms: C_13  and  C_14
REMARK    6  A    between atoms: C_22  and  O_23
REMARK                            x       y       z     vdW  Elec       q    Type
REMARK                         _______ _______ _______ _____ _____    ______ ____
ROOT
ATOM      1  C   UNL     1       3.432   5.429  19.822  0.00  0.00    +0.000 C 
ATOM      2  C   UNL     1       2.966   6.386  19.007  0.00  0.00    +0.000 C 
ENDROOT
BRANCH   2   3
ATOM      3  C   UNL     1       2.131   7.468  19.523  0.00  0.00    +0.000 A 
ATOM      4  C   UNL     1       1.607   7.387  20.814  0.00  0.00    +0.000 A 
ATOM      5  C   UNL     1       0.801   8.417  21.313  0.00  0.00    +0.000 A 
ATOM      6  C   UNL     1       0.507   9.563  20.552  0.00  0.00    +0.000 A 
ATOM      7  C   UNL     1       1.034   9.614  19.247  0.00  0.00    +0.000 A 
ATOM      8  C   UNL     1       1.831   8.579  18.735  0.00  0.00    +0.000 A 
BRANCH   6   9
ATOM      9  C   UNL     1      -0.314  10.668  21.109  0.00  0.00    +0.000 A 
ATOM     10  C   UNL     1      -0.744  11.738  20.300  0.00  0.00    +0.000 A 
ATOM     11  C   UNL     1      -1.508  12.790  20.818  0.00  0.00    +0.000 A 
ATOM     12  C   UNL     1      -1.877  12.789  22.158  0.00  0.00    +0.000 A 
ATOM     13  C   UNL     1      -1.480  11.739  22.979  0.00  0.00    +0.000 A 
ATOM     14  C   UNL     1      -0.704  10.694  22.460  0.00  0.00    +0.000 A 
ENDBRANCH   6   9
ENDBRANCH   2   3
BRANCH   1  15
ATOM     15  C   UNL     1       4.340   4.383  19.283  0.00  0.00    +0.000 C 
ATOM     16  O   UNL     1       4.387   3.263  19.789  0.00  0.00    +0.000 OA
BRANCH  15  20
ATOM     17  C   UNL     1       6.759   5.272  15.803  0.00  0.00    +0.000 A 
ATOM     18  C   UNL     1       7.164   5.700  17.067  0.00  0.00    +0.000 A 
ATOM     19  C   UNL     1       6.387   5.436  18.204  0.00  0.00    +0.000 A 
ATOM     20  C   UNL     1       5.206   4.688  18.104  0.00  0.00    +0.000 A 
ATOM     21  C   UNL     1       4.829   4.221  16.834  0.00  0.00    +0.000 A 
ATOM     22  C   UNL     1       5.608   4.490  15.704  0.00  0.00    +0.000 A 
BRANCH  17  23
ATOM     23  N   UNL     1       7.610   5.425  14.704  0.00  0.00    +0.000 N 
ATOM     24  H   UNL     1       7.210   5.953  13.935  0.00  0.00    +0.000 HD
ATOM     25  H   UNL     1       8.040   4.558  14.394  0.00  0.00    +0.000 HD
ENDBRANCH  17  23
BRANCH  21  26
ATOM     26  O   UNL     1       3.697   3.479  16.608  0.00  0.00    +0.000 OA
ATOM     27  H   UNL     1       3.724   2.694  17.202  0.00  0.00    +0.000 HD
ENDBRANCH  21  26
ENDBRANCH  15  20
ENDBRANCH   1  15
TORSDOF 6
ENDMDL
MODEL 8
REMARK VINA RESULT:      -7.7      6.798      8.005
REMARK  Name = 
REMARK  6 active torsions:
REMARK  status: ('A' for Active; 'I' for Inactive)
REMARK    1  A    between atoms: N_1  and  C_2
REMARK    2  A    between atoms: C_5  and  C_6
REMARK    3  A    between atoms: C_6  and  C_8
REMARK    4  A    between atoms: C_9  and  C_10
REMARK    5  A    between atoms: C_13  and  C_14
REMARK    6  A    between atoms: C_22  and  O_23
REMARK                            x       y       z     vdW  Elec       q    Type
REMARK                         _______ _______ _______ _____ _____    ______ ____
ROOT
ATOM      1  C   UNL     1       7.213   7.997  17.401  0.00  0.00    +0.000 C 
ATOM      2  C   UNL     1       8.311   8.267  18.122  0.00  0.00    +0.000 C 
ENDROOT
BRANCH   2   3
ATOM      3  C   UNL     1       8.687   9.646  18.426  0.00  0.00    +0.000 A 
ATOM      4  C   UNL     1       9.378   9.935  19.603  0.00  0.00    +0.000 A 
ATOM      5  C   UNL     1       9.736  11.254  19.905  0.00  0.00    +0.000 A 
ATOM      6  C   UNL     1       9.431  12.321  19.039  0.00  0.00    +0.000 A 
ATOM      7  C   UNL     1       8.718  12.006  17.866  0.00  0.00    +0.000 A 
ATOM      8  C   UNL     1       8.345  10.688  17.564  0.00  0.00    +0.000 A 
BRANCH   6   9
ATOM      9  C   UNL     1       9.853  13.710  19.351  0.00  0.00    +0.000 A 
ATOM     10  C   UNL     1       9.586  14.771  18.463  0.00  0.00    +0.000 A 
ATOM     11  C   UNL     1       9.991  16.081  18.741  0.00  0.00    +0.000 A 
ATOM     12  C   UNL     1      10.658  16.367  19.926  0.00  0.00    +0.000 A 
ATOM     13  C   UNL     1      10.924  15.344  20.830  0.00  0.00    +0.000 A 
ATOM     14  C   UNL     1      10.530  14.030  20.541  0.00  0.00    +0.000 A 
ENDBRANCH   6   9
ENDBRANCH   2   3
BRANCH   1  15
ATOM     15  C   UNL     1       6.815   6.584  17.172  0.00  0.00    +0.000 C 
ATOM     16  O   UNL     1       7.557   5.805  16.575  0.00  0.00    +0.000 OA
BRANCH  15  20
ATOM     17  C   UNL     1       3.051   5.110  18.726  0.00  0.00    +0.000 A 
ATOM     18  C   UNL     1       3.097   6.312  18.019  0.00  0.00    +0.000 A 
ATOM     19  C   UNL     1       4.307   6.814  17.522  0.00  0.00    +0.000 A 
ATOM     20  C   UNL     1       5.498   6.091  17.678  0.00  0.00    +0.000 A 
ATOM     21  C   UNL     1       5.436   4.859  18.351  0.00  0.00    +0.000 A 
ATOM     22  C   UNL     1       4.225   4.367  18.846  0.00  0.00    +0.000 A 
BRANCH  17  23
ATOM     23  N   UNL     1       1.820   4.560  19.095  0.00  0.00    +0.000 N 
ATOM     24  H   UNL     1       1.101   4.625  18.381  0.00  0.00    +0.000 HD
ATOM     25  H   UNL     1       1.489   4.867  20.005  0.00  0.00    +0.000 HD
ENDBRANCH  17  23
BRANCH  21  26
ATOM     26  O   UNL     1       6.531   4.061  18.567  0.00  0.00    +0.000 OA
ATOM     27  H   UNL     1       6.212   3.141  18.713  0.00  0.00    +0.000 HD
ENDBRANCH  21  26
ENDBRANCH  15  20
ENDBRANCH   1  15
TORSDOF 6
ENDMDL
MODEL 9
REMARK VINA RESULT:      -7.6      6.866      7.919
REMARK  Name = 
REMARK  6 active torsions:
REMARK  status: ('A' for Active; 'I' for Inactive)
REMARK    1  A    between atoms: N_1  and  C_2
REMARK    2  A    between atoms: C_5  and  C_6
REMARK    3  A    between atoms: C_6  and  C_8
REMARK    4  A    between atoms: C_9  and  C_10
REMARK    5  A    between atoms: C_13  and  C_14
REMARK    6  A    between atoms: C_22  and  O_23
REMARK                            x       y       z     vdW  Elec       q    Type
REMARK                         _______ _______ _______ _____ _____    ______ ____
ROOT
ATOM      1  C   UNL     1       7.140   8.194  17.518  0.00  0.00    +0.000 C 
ATOM      2  C   UNL     1       8.365   8.440  18.004  0.00  0.00    +0.000 C 
ENDROOT
BRANCH   2   3
ATOM      3  C   UNL     1       8.732   9.776  18.467  0.00  0.00    +0.000 A 
ATOM      4  C   UNL     1       9.253   9.948  19.751  0.00  0.00    +0.000 A 
ATOM      5  C   UNL     1       9.601  11.225  20.205  0.00  0.00    +0.000 A 
ATOM      6  C   UNL     1       9.455  12.365  19.394  0.00  0.00    +0.000 A 
ATOM      7  C   UNL     1       8.912  12.168  18.109  0.00  0.00    +0.000 A 
ATOM      8  C   UNL     1       8.549  10.893  17.652  0.00  0.00    +0.000 A 
BRANCH   6   9
ATOM      9  C   UNL     1       9.867  13.709  19.872  0.00  0.00    +0.000 A 
ATOM     10  C   UNL     1      10.074  13.965  21.242  0.00  0.00    +0.000 A 
ATOM     11  C   UNL     1      10.451  15.231  21.705  0.00  0.00    +0.000 A 
ATOM     12  C   UNL     1      10.648  16.271  20.804  0.00  0.00    +0.000 A 
ATOM     13  C   UNL     1      10.465  16.047  19.444  0.00  0.00    +0.000 A 
ATOM     14  C   UNL     1      10.075  14.781  18.986  0.00  0.00    +0.000 A 
ENDBRANCH   6   9
ENDBRANCH   2   3
BRANCH   1  15
ATOM     15  C   UNL     1       6.771   6.809  17.124  0.00  0.00    +0.000 C 
ATOM     16  O   UNL     1       7.506   6.139  16.400  0.00  0.00    +0.000 OA
BRANCH  15  20
ATOM     17  C   UNL     1       3.127   5.027  18.640  0.00  0.00    +0.000 A 
ATOM     18  C   UNL     1       3.091   6.271  18.009  0.00  0.00    +0.000 A 
ATOM     19  C   UNL     1       4.261   6.871  17.526  0.00  0.00    +0.000 A 
ATOM     20  C   UNL     1       5.494   6.211  17.619  0.00  0.00    +0.000 A 
ATOM     21  C   UNL     1       5.515   4.938  18.215  0.00  0.00    +0.000 A 
ATOM     22  C   UNL     1       4.343   4.347  18.696  0.00  0.00    +0.000 A 
BRANCH  17  23
ATOM     23  N   UNL     1       1.936   4.384  18.993  0.00  0.00    +0.000 N 
ATOM     24  H   UNL     1       1.958   3.375  18.888  0.00  0.00    +0.000 HD
ATOM     25  H   UNL     1       1.107   4.797  18.574  0.00  0.00    +0.000 HD
ENDBRANCH  17  23
BRANCH  21  26
ATOM     26  O   UNL     1       6.658   4.193  18.363  0.00  0.00    +0.000 OA
ATOM     27  H   UNL     1       6.903   4.200  19.316  0.00  0.00    +0.000 HD
ENDBRANCH  21  26
ENDBRANCH  15  20
ENDBRANCH   1  15
TORSDOF 6
ENDMDL
