MODEL 1
REMARK VINA RESULT:      -9.1      0.000      0.000
REMARK  Name = 
REMARK  6 active torsions:
REMARK  status: ('A' for Active; 'I' for Inactive)
REMARK    1  A    between atoms: C_1  and  O_2
REMARK    2  A    between atoms: O_2  and  C_3
REMARK    3  A    between atoms: C_10  and  C_11
REMARK    4  A    between atoms: N_13  and  C_14
REMARK    5  A    between atoms: N_17  and  C_18
REMARK    6  A    between atoms: C_18  and  C_19
REMARK                            x       y       z     vdW  Elec       q    Type
REMARK                         _______ _______ _______ _____ _____    ______ ____
ROOT
ATOM      1  C   UNL     1       1.588   5.539  20.922  0.00  0.00    +0.000 C 
ATOM      2  C   UNL     1       2.680   4.485  20.991  0.00  0.00    +0.000 C 
ATOM      3  N   UNL     1       2.247   3.509  20.025  0.00  0.00    +0.000 N 
ATOM      4  C   UNL     1       0.880   3.621  19.886  0.00  0.00    +0.000 C 
ATOM      5  O   UNL     1       0.113   2.856  19.331  0.00  0.00    +0.000 OA
ATOM      6  O   UNL     1       0.444   4.778  20.481  0.00  0.00    +0.000 OA
ENDROOT
BRANCH   1  14
ATOM      7  C   UNL     1       0.084   9.448  21.584  0.00  0.00    +0.000 A 
ATOM      8  C   UNL     1       0.240  10.482  20.686  0.00  0.00    +0.000 A 
ATOM      9  C   UNL     1       0.978  10.236  19.537  0.00  0.00    +0.000 A 
ATOM     10  C   UNL     1       1.542   8.992  19.313  0.00  0.00    +0.000 A 
ATOM     11  N   UNL     1       2.281   8.831  18.203  0.00  0.00    +0.000 NA
ATOM     12  C   UNL     1       2.826   7.621  17.994  0.00  0.00    +0.000 A 
ATOM     13  C   UNL     1       2.650   6.552  18.846  0.00  0.00    +0.000 A 
ATOM     14  C   UNL     1       1.872   6.719  20.003  0.00  0.00    +0.000 A 
ATOM     15  C   UNL     1       1.304   7.977  20.271  0.00  0.00    +0.000 A 
ATOM     16  N   UNL     1       0.574   8.201  21.394  0.00  0.00    +0.000 NA
BRANCH   7  18
ATOM     17  C   UNL     1      -0.986  11.124  22.833  0.00  0.00    +0.000 C 
ATOM     18  O   UNL     1      -0.584   9.766  22.749  0.00  0.00    +0.000 OA
ENDBRANCH   7  18
ENDBRANCH   1  14
BRANCH   3  19
ATOM     19  C   UNL     1       3.126   2.382  19.650  0.00  0.00    +0.000 C 
ATOM     20  C   UNL     1       4.556   2.609  20.156  0.00  0.00    +0.000 C 
ATOM     21  C   UNL     1       5.222   3.743  19.382  0.00  0.00    +0.000 C 
ATOM     22  N   UNL     1       5.290   3.488  17.932  0.00  0.00    +0.000 NA
ATOM     23  C   UNL     1       3.980   3.112  17.363  0.00  0.00    +0.000 C 
ATOM     24  C   UNL     1       3.228   2.047  18.160  0.00  0.00    +0.000 C 
BRANCH  22  25
ATOM     25  C   UNL     1       5.779   4.726  17.289  0.00  0.00    +0.000 C 
BRANCH  25  26
ATOM     26  C   UNL     1       6.221   4.523  15.883  0.00  0.00    +0.000 A 
ATOM     27  C   UNL     1       5.795   3.632  14.919  0.00  0.00    +0.000 A 
ATOM     28  C   UNL     1       6.434   3.979  13.699  0.00  0.00    +0.000 A 
ATOM     29  C   UNL     1       6.342   3.505  12.377  0.00  0.00    +0.000 A 
ATOM     30  C   UNL     1       7.067   4.151  11.370  0.00  0.00    +0.000 A 
ATOM     31  C   UNL     1       7.891   5.235  11.670  0.00  0.00    +0.000 A 
ATOM     32  C   UNL     1       8.033   5.694  12.982  0.00  0.00    +0.000 A 
ATOM     33  C   UNL     1       7.287   5.050  13.972  0.00  0.00    +0.000 A 
ATOM     34  N   UNL     1       7.207   5.293  15.322  0.00  0.00    +0.000 N 
ATOM     35  H   UNL     1       7.754   5.976  15.827  0.00  0.00    +0.000 HD
ENDBRANCH  25  26
ENDBRANCH  22  25
ENDBRANCH   3  19
TORSDOF 5
ENDMDL
MODEL 2
REMARK VINA RESULT:      -8.3      0.748      1.158
REMARK  Name = 
REMARK  6 active torsions:
REMARK  status: ('A' for Active; 'I' for Inactive)
REMARK    1  A    between atoms: C_1  and  O_2
REMARK    2  A    between atoms: O_2  and  C_3
REMARK    3  A    between atoms: C_10  and  C_11
REMARK    4  A    between atoms: N_13  and  C_14
REMARK    5  A    between atoms: N_17  and  C_18
REMARK    6  A    between atoms: C_18  and  C_19
REMARK                            x       y       z     vdW  Elec       q    Type
REMARK                         _______ _______ _______ _____ _____    ______ ____
ROOT
ATOM      1  C   UNL     1       1.568   5.593  20.937  0.00  0.00    +0.000 C 
ATOM      2  C   UNL     1       2.735   4.625  21.046  0.00  0.00    +0.000 C 
ATOM      3  N   UNL     1       2.405   3.615  20.075  0.00  0.00    +0.000 N 
ATOM      4  C   UNL     1       1.039   3.622  19.895  0.00  0.00    +0.000 C 
ATOM      5  O   UNL     1       0.349   2.798  19.323  0.00  0.00    +0.000 OA
ATOM      6  O   UNL     1       0.499   4.745  20.469  0.00  0.00    +0.000 OA
ENDROOT
BRANCH   1  14
ATOM      7  C   UNL     1       0.343   9.542  21.879  0.00  0.00    +0.000 A 
ATOM      8  C   UNL     1       0.434  10.595  20.993  0.00  0.00    +0.000 A 
ATOM      9  C   UNL     1       1.010  10.351  19.755  0.00  0.00    +0.000 A 
ATOM     10  C   UNL     1       1.483   9.092  19.431  0.00  0.00    +0.000 A 
ATOM     11  N   UNL     1       2.068   8.932  18.233  0.00  0.00    +0.000 NA
ATOM     12  C   UNL     1       2.525   7.707  17.927  0.00  0.00    +0.000 A 
ATOM     13  C   UNL     1       2.408   6.621  18.768  0.00  0.00    +0.000 A 
ATOM     14  C   UNL     1       1.789   6.786  20.018  0.00  0.00    +0.000 A 
ATOM     15  C   UNL     1       1.319   8.059  20.386  0.00  0.00    +0.000 A 
ATOM     16  N   UNL     1       0.747   8.281  21.598  0.00  0.00    +0.000 NA
BRANCH   7  18
ATOM     17  C   UNL     1      -1.194  10.822  23.108  0.00  0.00    +0.000 C 
ATOM     18  O   UNL     1      -0.158   9.854  23.126  0.00  0.00    +0.000 OA
ENDBRANCH   7  18
ENDBRANCH   1  14
BRANCH   3  19
ATOM     19  C   UNL     1       3.378   2.556  19.734  0.00  0.00    +0.000 C 
ATOM     20  C   UNL     1       4.799   2.963  20.143  0.00  0.00    +0.000 C 
ATOM     21  C   UNL     1       5.306   4.095  19.254  0.00  0.00    +0.000 C 
ATOM     22  N   UNL     1       5.332   3.737  17.825  0.00  0.00    +0.000 NA
ATOM     23  C   UNL     1       4.042   3.189  17.357  0.00  0.00    +0.000 C 
ATOM     24  C   UNL     1       3.443   2.118  18.269  0.00  0.00    +0.000 C 
BRANCH  22  25
ATOM     25  C   UNL     1       5.659   4.964  17.068  0.00  0.00    +0.000 C 
BRANCH  25  26
ATOM     26  C   UNL     1       5.899   4.716  15.621  0.00  0.00    +0.000 A 
ATOM     27  C   UNL     1       7.048   4.818  14.863  0.00  0.00    +0.000 A 
ATOM     28  C   UNL     1       6.759   4.305  13.571  0.00  0.00    +0.000 A 
ATOM     29  C   UNL     1       7.529   4.071  12.416  0.00  0.00    +0.000 A 
ATOM     30  C   UNL     1       6.932   3.450  11.314  0.00  0.00    +0.000 A 
ATOM     31  C   UNL     1       5.586   3.088  11.343  0.00  0.00    +0.000 A 
ATOM     32  C   UNL     1       4.791   3.351  12.463  0.00  0.00    +0.000 A 
ATOM     33  C   UNL     1       5.408   3.953  13.561  0.00  0.00    +0.000 A 
ATOM     34  N   UNL     1       4.893   4.304  14.786  0.00  0.00    +0.000 N 
ATOM     35  H   UNL     1       3.923   4.223  15.058  0.00  0.00    +0.000 HD
ENDBRANCH  25  26
ENDBRANCH  22  25
ENDBRANCH   3  19
TORSDOF 5
ENDMDL
MODEL 3
REMARK VINA RESULT:      -8.3      2.186      8.783
REMARK  Name = 
REMARK  6 active torsions:
REMARK  status: ('A' for Active; 'I' for Inactive)
REMARK    1  A    between atoms: C_1  and  O_2
REMARK    2  A    between atoms: O_2  and  C_3
REMARK    3  A    between atoms: C_10  and  C_11
REMARK    4  A    between atoms: N_13  and  C_14
REMARK    5  A    between atoms: N_17  and  C_18
REMARK    6  A    between atoms: C_18  and  C_19
REMARK                            x       y       z     vdW  Elec       q    Type
REMARK                         _______ _______ _______ _____ _____    ______ ____
ROOT
ATOM      1  C   UNL     1       5.027   2.628  18.244  0.00  0.00    +0.000 C 
ATOM      2  C   UNL     1       3.546   2.712  17.910  0.00  0.00    +0.000 C 
ATOM      3  N   UNL     1       2.947   3.012  19.185  0.00  0.00    +0.000 N 
ATOM      4  C   UNL     1       3.793   2.559  20.174  0.00  0.00    +0.000 C 
ATOM      5  O   UNL     1       3.565   2.436  21.364  0.00  0.00    +0.000 OA
ATOM      6  O   UNL     1       5.014   2.243  19.634  0.00  0.00    +0.000 OA
ENDROOT
BRANCH   1  14
ATOM      7  C   UNL     1       6.247   3.982  14.416  0.00  0.00    +0.000 A 
ATOM      8  C   UNL     1       7.073   5.070  14.225  0.00  0.00    +0.000 A 
ATOM      9  C   UNL     1       7.471   5.785  15.345  0.00  0.00    +0.000 A 
ATOM     10  C   UNL     1       7.043   5.416  16.608  0.00  0.00    +0.000 A 
ATOM     11  N   UNL     1       7.428   6.175  17.646  0.00  0.00    +0.000 NA
ATOM     12  C   UNL     1       7.007   5.811  18.868  0.00  0.00    +0.000 A 
ATOM     13  C   UNL     1       6.221   4.702  19.101  0.00  0.00    +0.000 A 
ATOM     14  C   UNL     1       5.824   3.905  18.016  0.00  0.00    +0.000 A 
ATOM     15  C   UNL     1       6.224   4.266  16.717  0.00  0.00    +0.000 A 
ATOM     16  N   UNL     1       5.835   3.550  15.631  0.00  0.00    +0.000 NA
BRANCH   7  18
ATOM     17  C   UNL     1       6.640   3.577  12.137  0.00  0.00    +0.000 C 
ATOM     18  O   UNL     1       5.811   3.356  13.266  0.00  0.00    +0.000 OA
ENDBRANCH   7  18
ENDBRANCH   1  14
BRANCH   3  19
ATOM     19  C   UNL     1       1.511   3.349  19.278  0.00  0.00    +0.000 C 
ATOM     20  C   UNL     1       1.106   4.336  18.176  0.00  0.00    +0.000 C 
ATOM     21  C   UNL     1       1.725   5.707  18.434  0.00  0.00    +0.000 C 
ATOM     22  N   UNL     1       1.325   6.285  19.729  0.00  0.00    +0.000 NA
ATOM     23  C   UNL     1       1.537   5.351  20.854  0.00  0.00    +0.000 C 
ATOM     24  C   UNL     1       1.020   3.934  20.604  0.00  0.00    +0.000 C 
BRANCH  22  25
ATOM     25  C   UNL     1       2.129   7.508  19.935  0.00  0.00    +0.000 C 
BRANCH  25  26
ATOM     26  C   UNL     1       1.340   8.647  20.474  0.00  0.00    +0.000 A 
ATOM     27  C   UNL     1       0.789   9.746  19.845  0.00  0.00    +0.000 A 
ATOM     28  C   UNL     1      -0.004  10.435  20.799  0.00  0.00    +0.000 A 
ATOM     29  C   UNL     1      -0.859  11.553  20.738  0.00  0.00    +0.000 A 
ATOM     30  C   UNL     1      -1.579  11.922  21.878  0.00  0.00    +0.000 A 
ATOM     31  C   UNL     1      -1.439  11.213  23.070  0.00  0.00    +0.000 A 
ATOM     32  C   UNL     1      -0.563  10.128  23.167  0.00  0.00    +0.000 A 
ATOM     33  C   UNL     1       0.133   9.761  22.014  0.00  0.00    +0.000 A 
ATOM     34  N   UNL     1       1.030   8.740  21.806  0.00  0.00    +0.000 N 
ATOM     35  H   UNL     1       1.375   8.110  22.517  0.00  0.00    +0.000 HD
ENDBRANCH  25  26
ENDBRANCH  22  25
ENDBRANCH   3  19
TORSDOF 5
ENDMDL
MODEL 4
REMARK VINA RESULT:      -8.2      2.635      8.736
REMARK  Name = 
REMARK  6 active torsions:
REMARK  status: ('A' for Active; 'I' for Inactive)
REMARK    1  A    between atoms: C_1  and  O_2
REMARK    2  A    between atoms: O_2  and  C_3
REMARK    3  A    between atoms: C_10  and  C_11
REMARK    4  A    between atoms: N_13  and  C_14
REMARK    5  A    between atoms: N_17  and  C_18
REMARK    6  A    between atoms: C_18  and  C_19
REMARK                            x       y       z     vdW  Elec       q    Type
REMARK                         _______ _______ _______ _____ _____    ______ ____
ROOT
ATOM      1  C   UNL     1       3.428   3.175  16.786  0.00  0.00    +0.000 C 
ATOM      2  C   UNL     1       2.237   3.391  17.705  0.00  0.00    +0.000 C 
ATOM      3  N   UNL     1       2.606   2.656  18.886  0.00  0.00    +0.000 N 
ATOM      4  C   UNL     1       3.507   1.679  18.520  0.00  0.00    +0.000 C 
ATOM      5  O   UNL     1       3.899   0.730  19.175  0.00  0.00    +0.000 OA
ATOM      6  O   UNL     1       3.954   1.912  17.244  0.00  0.00    +0.000 OA
ENDROOT
BRANCH   1  14
ATOM      7  C   UNL     1       6.177   3.865  13.632  0.00  0.00    +0.000 A 
ATOM      8  C   UNL     1       7.209   4.776  13.712  0.00  0.00    +0.000 A 
ATOM      9  C   UNL     1       7.308   5.542  14.864  0.00  0.00    +0.000 A 
ATOM     10  C   UNL     1       6.393   5.395  15.892  0.00  0.00    +0.000 A 
ATOM     11  N   UNL     1       6.519   6.196  16.962  0.00  0.00    +0.000 NA
ATOM     12  C   UNL     1       5.626   6.048  17.954  0.00  0.00    +0.000 A 
ATOM     13  C   UNL     1       4.611   5.114  17.928  0.00  0.00    +0.000 A 
ATOM     14  C   UNL     1       4.483   4.272  16.812  0.00  0.00    +0.000 A 
ATOM     15  C   UNL     1       5.384   4.412  15.741  0.00  0.00    +0.000 A 
ATOM     16  N   UNL     1       5.281   3.648  14.624  0.00  0.00    +0.000 NA
BRANCH   7  18
ATOM     17  C   UNL     1       4.781   3.257  11.844  0.00  0.00    +0.000 C 
ATOM     18  O   UNL     1       6.070   3.190  12.433  0.00  0.00    +0.000 OA
ENDBRANCH   7  18
ENDBRANCH   1  14
BRANCH   3  19
ATOM     19  C   UNL     1       1.786   2.745  20.113  0.00  0.00    +0.000 C 
ATOM     20  C   UNL     1       0.530   3.593  19.874  0.00  0.00    +0.000 C 
ATOM     21  C   UNL     1       0.906   5.061  19.689  0.00  0.00    +0.000 C 
ATOM     22  N   UNL     1       1.617   5.623  20.851  0.00  0.00    +0.000 NA
ATOM     23  C   UNL     1       2.770   4.795  21.261  0.00  0.00    +0.000 C 
ATOM     24  C   UNL     1       2.468   3.301  21.365  0.00  0.00    +0.000 C 
BRANCH  22  25
ATOM     25  C   UNL     1       2.081   6.975  20.473  0.00  0.00    +0.000 C 
BRANCH  25  26
ATOM     26  C   UNL     1       1.188   8.061  20.958  0.00  0.00    +0.000 A 
ATOM     27  C   UNL     1       0.451   8.177  22.119  0.00  0.00    +0.000 A 
ATOM     28  C   UNL     1      -0.090   9.489  22.156  0.00  0.00    +0.000 A 
ATOM     29  C   UNL     1      -0.840  10.212  23.103  0.00  0.00    +0.000 A 
ATOM     30  C   UNL     1      -1.139  11.556  22.853  0.00  0.00    +0.000 A 
ATOM     31  C   UNL     1      -0.724  12.170  21.673  0.00  0.00    +0.000 A 
ATOM     32  C   UNL     1      -0.017  11.459  20.698  0.00  0.00    +0.000 A 
ATOM     33  C   UNL     1       0.290  10.125  20.973  0.00  0.00    +0.000 A 
ATOM     34  N   UNL     1       0.981   9.201  20.226  0.00  0.00    +0.000 N 
ATOM     35  H   UNL     1       1.336   9.352  19.291  0.00  0.00    +0.000 HD
ENDBRANCH  25  26
ENDBRANCH  22  25
ENDBRANCH   3  19
TORSDOF 5
ENDMDL
MODEL 5
REMARK VINA RESULT:      -8.1      1.959      2.819
REMARK  Name = 
REMARK  6 active torsions:
REMARK  status: ('A' for Active; 'I' for Inactive)
REMARK    1  A    between atoms: C_1  and  O_2
REMARK    2  A    between atoms: O_2  and  C_3
REMARK    3  A    between atoms: C_10  and  C_11
REMARK    4  A    between atoms: N_13  and  C_14
REMARK    5  A    between atoms: N_17  and  C_18
REMARK    6  A    between atoms: C_18  and  C_19
REMARK                            x       y       z     vdW  Elec       q    Type
REMARK                         _______ _______ _______ _____ _____    ______ ____
ROOT
ATOM      1  C   UNL     1       1.753   5.694  20.907  0.00  0.00    +0.000 C 
ATOM      2  C   UNL     1       2.740   4.544  21.028  0.00  0.00    +0.000 C 
ATOM      3  N   UNL     1       2.152   3.528  20.194  0.00  0.00    +0.000 N 
ATOM      4  C   UNL     1       0.797   3.766  20.118  0.00  0.00    +0.000 C 
ATOM      5  O   UNL     1      -0.076   3.033  19.688  0.00  0.00    +0.000 OA
ATOM      6  O   UNL     1       0.514   5.015  20.612  0.00  0.00    +0.000 OA
ENDROOT
BRANCH   1  14
ATOM      7  C   UNL     1       0.197   9.638  20.938  0.00  0.00    +0.000 A 
ATOM      8  C   UNL     1       0.407  10.543  19.918  0.00  0.00    +0.000 A 
ATOM      9  C   UNL     1       1.217  10.152  18.862  0.00  0.00    +0.000 A 
ATOM     10  C   UNL     1       1.798   8.896  18.844  0.00  0.00    +0.000 A 
ATOM     11  N   UNL     1       2.606   8.595  17.815  0.00  0.00    +0.000 NA
ATOM     12  C   UNL     1       3.167   7.374  17.806  0.00  0.00    +0.000 A 
ATOM     13  C   UNL     1       2.941   6.428  18.783  0.00  0.00    +0.000 A 
ATOM     14  C   UNL     1       2.090   6.741  19.856  0.00  0.00    +0.000 A 
ATOM     15  C   UNL     1       1.503   8.017  19.915  0.00  0.00    +0.000 A 
ATOM     16  N   UNL     1       0.703   8.382  20.949  0.00  0.00    +0.000 NA
BRANCH   7  18
ATOM     17  C   UNL     1      -0.148   9.575  23.259  0.00  0.00    +0.000 C 
ATOM     18  O   UNL     1      -0.544  10.103  22.004  0.00  0.00    +0.000 OA
ENDBRANCH   7  18
ENDBRANCH   1  14
BRANCH   3  19
ATOM     19  C   UNL     1       2.892   2.284  19.891  0.00  0.00    +0.000 C 
ATOM     20  C   UNL     1       4.404   2.539  19.859  0.00  0.00    +0.000 C 
ATOM     21  C   UNL     1       4.776   3.380  18.641  0.00  0.00    +0.000 C 
ATOM     22  N   UNL     1       4.396   2.747  17.366  0.00  0.00    +0.000 NA
ATOM     23  C   UNL     1       2.981   2.324  17.346  0.00  0.00    +0.000 C 
ATOM     24  C   UNL     1       2.532   1.561  18.592  0.00  0.00    +0.000 C 
BRANCH  22  25
ATOM     25  C   UNL     1       4.639   3.734  16.293  0.00  0.00    +0.000 C 
BRANCH  25  26
ATOM     26  C   UNL     1       5.611   4.793  16.676  0.00  0.00    +0.000 A 
ATOM     27  C   UNL     1       5.781   6.080  16.206  0.00  0.00    +0.000 A 
ATOM     28  C   UNL     1       6.743   6.717  17.033  0.00  0.00    +0.000 A 
ATOM     29  C   UNL     1       7.259   8.024  17.105  0.00  0.00    +0.000 A 
ATOM     30  C   UNL     1       8.155   8.347  18.130  0.00  0.00    +0.000 A 
ATOM     31  C   UNL     1       8.553   7.385  19.057  0.00  0.00    +0.000 A 
ATOM     32  C   UNL     1       8.088   6.070  18.978  0.00  0.00    +0.000 A 
ATOM     33  C   UNL     1       7.180   5.769  17.961  0.00  0.00    +0.000 A 
ATOM     34  N   UNL     1       6.547   4.588  17.656  0.00  0.00    +0.000 N 
ATOM     35  H   UNL     1       6.704   3.704  18.119  0.00  0.00    +0.000 HD
ENDBRANCH  25  26
ENDBRANCH  22  25
ENDBRANCH   3  19
TORSDOF 5
ENDMDL
MODEL 6
REMARK VINA RESULT:      -8.1      2.632      8.776
REMARK  Name = 
REMARK  6 active torsions:
REMARK  status: ('A' for Active; 'I' for Inactive)
REMARK    1  A    between atoms: C_1  and  O_2
REMARK    2  A    between atoms: O_2  and  C_3
REMARK    3  A    between atoms: C_10  and  C_11
REMARK    4  A    between atoms: N_13  and  C_14
REMARK    5  A    between atoms: N_17  and  C_18
REMARK    6  A    between atoms: C_18  and  C_19
REMARK                            x       y       z     vdW  Elec       q    Type
REMARK                         _______ _______ _______ _____ _____    ______ ____
ROOT
ATOM      1  C   UNL     1       3.532   3.057  16.664  0.00  0.00    +0.000 C 
ATOM      2  C   UNL     1       2.299   3.332  17.509  0.00  0.00    +0.000 C 
ATOM      3  N   UNL     1       2.603   2.663  18.747  0.00  0.00    +0.000 N 
ATOM      4  C   UNL     1       3.512   1.662  18.482  0.00  0.00    +0.000 C 
ATOM      5  O   UNL     1       3.863   0.749  19.208  0.00  0.00    +0.000 OA
ATOM      6  O   UNL     1       4.023   1.818  17.218  0.00  0.00    +0.000 OA
ENDROOT
BRANCH   1  14
ATOM      7  C   UNL     1       6.164   3.814  13.428  0.00  0.00    +0.000 A 
ATOM      8  C   UNL     1       7.205   4.717  13.493  0.00  0.00    +0.000 A 
ATOM      9  C   UNL     1       7.353   5.451  14.661  0.00  0.00    +0.000 A 
ATOM     10  C   UNL     1       6.476   5.282  15.717  0.00  0.00    +0.000 A 
ATOM     11  N   UNL     1       6.647   6.053  16.803  0.00  0.00    +0.000 NA
ATOM     12  C   UNL     1       5.791   5.884  17.824  0.00  0.00    +0.000 A 
ATOM     13  C   UNL     1       4.770   4.957  17.811  0.00  0.00    +0.000 A 
ATOM     14  C   UNL     1       4.595   4.146  16.679  0.00  0.00    +0.000 A 
ATOM     15  C   UNL     1       5.456   4.309  15.579  0.00  0.00    +0.000 A 
ATOM     16  N   UNL     1       5.306   3.576  14.446  0.00  0.00    +0.000 NA
BRANCH   7  18
ATOM     17  C   UNL     1       4.670   3.140  11.747  0.00  0.00    +0.000 C 
ATOM     18  O   UNL     1       6.008   3.173  12.216  0.00  0.00    +0.000 OA
ENDBRANCH   7  18
ENDBRANCH   1  14
BRANCH   3  19
ATOM     19  C   UNL     1       1.726   2.828  19.925  0.00  0.00    +0.000 C 
ATOM     20  C   UNL     1       0.566   3.784  19.617  0.00  0.00    +0.000 C 
ATOM     21  C   UNL     1       1.081   5.212  19.458  0.00  0.00    +0.000 C 
ATOM     22  N   UNL     1       1.772   5.712  20.660  0.00  0.00    +0.000 NA
ATOM     23  C   UNL     1       2.820   4.786  21.134  0.00  0.00    +0.000 C 
ATOM     24  C   UNL     1       2.382   3.324  21.216  0.00  0.00    +0.000 C 
BRANCH  22  25
ATOM     25  C   UNL     1       2.375   7.016  20.312  0.00  0.00    +0.000 C 
BRANCH  25  26
ATOM     26  C   UNL     1       1.560   8.178  20.757  0.00  0.00    +0.000 A 
ATOM     27  C   UNL     1       0.920   9.166  20.036  0.00  0.00    +0.000 A 
ATOM     28  C   UNL     1       0.147   9.932  20.946  0.00  0.00    +0.000 A 
ATOM     29  C   UNL     1      -0.765  10.995  20.803  0.00  0.00    +0.000 A 
ATOM     30  C   UNL     1      -1.439  11.471  21.933  0.00  0.00    +0.000 A 
ATOM     31  C   UNL     1      -1.197  10.921  23.191  0.00  0.00    +0.000 A 
ATOM     32  C   UNL     1      -0.263   9.896  23.364  0.00  0.00    +0.000 A 
ATOM     33  C   UNL     1       0.386   9.420  22.223  0.00  0.00    +0.000 A 
ATOM     34  N   UNL     1       1.321   8.421  22.085  0.00  0.00    +0.000 N 
ATOM     35  H   UNL     1       1.736   7.900  22.845  0.00  0.00    +0.000 HD
ENDBRANCH  25  26
ENDBRANCH  22  25
ENDBRANCH   3  19
TORSDOF 5
ENDMDL
MODEL 7
REMARK VINA RESULT:      -7.9      2.230      8.749
REMARK  Name = 
REMARK  6 active torsions:
REMARK  status: ('A' for Active; 'I' for Inactive)
REMARK    1  A    between atoms: C_1  and  O_2
REMARK    2  A    between atoms: O_2  and  C_3
REMARK    3  A    between atoms: C_10  and  C_11
REMARK    4  A    between atoms: N_13  and  C_14
REMARK    5  A    between atoms: N_17  and  C_18
REMARK    6  A    between atoms: C_18  and  C_19
REMARK                            x       y       z     vdW  Elec       q    Type
REMARK                         _______ _______ _______ _____ _____    ______ ____
ROOT
ATOM      1  C   UNL     1       5.090   2.694  18.279  0.00  0.00    +0.000 C 
ATOM      2  C   UNL     1       3.625   2.734  17.878  0.00  0.00    +0.000 C 
ATOM      3  N   UNL     1       2.964   3.073  19.111  0.00  0.00    +0.000 N 
ATOM      4  C   UNL     1       3.773   2.679  20.154  0.00  0.00    +0.000 C 
ATOM      5  O   UNL     1       3.496   2.600  21.338  0.00  0.00    +0.000 OA
ATOM      6  O   UNL     1       5.023   2.366  19.682  0.00  0.00    +0.000 OA
ENDROOT
BRANCH   1  14
ATOM      7  C   UNL     1       6.276   4.018  14.430  0.00  0.00    +0.000 A 
ATOM      8  C   UNL     1       7.090   5.112  14.222  0.00  0.00    +0.000 A 
ATOM      9  C   UNL     1       7.487   5.843  15.333  0.00  0.00    +0.000 A 
ATOM     10  C   UNL     1       7.069   5.484  16.602  0.00  0.00    +0.000 A 
ATOM     11  N   UNL     1       7.453   6.258  17.630  0.00  0.00    +0.000 NA
ATOM     12  C   UNL     1       7.042   5.903  18.858  0.00  0.00    +0.000 A 
ATOM     13  C   UNL     1       6.269   4.789  19.107  0.00  0.00    +0.000 A 
ATOM     14  C   UNL     1       5.873   3.975  18.033  0.00  0.00    +0.000 A 
ATOM     15  C   UNL     1       6.262   4.327  16.728  0.00  0.00    +0.000 A 
ATOM     16  N   UNL     1       5.875   3.596  15.652  0.00  0.00    +0.000 NA
BRANCH   7  18
ATOM     17  C   UNL     1       6.680   3.563  12.162  0.00  0.00    +0.000 C 
ATOM     18  O   UNL     1       5.840   3.376  13.289  0.00  0.00    +0.000 OA
ENDBRANCH   7  18
ENDBRANCH   1  14
BRANCH   3  19
ATOM     19  C   UNL     1       1.519   3.386  19.128  0.00  0.00    +0.000 C 
ATOM     20  C   UNL     1       1.173   4.439  18.068  0.00  0.00    +0.000 C 
ATOM     21  C   UNL     1       1.750   5.797  18.458  0.00  0.00    +0.000 C 
ATOM     22  N   UNL     1       1.252   6.282  19.758  0.00  0.00    +0.000 NA
ATOM     23  C   UNL     1       1.404   5.277  20.830  0.00  0.00    +0.000 C 
ATOM     24  C   UNL     1       0.929   3.874  20.453  0.00  0.00    +0.000 C 
BRANCH  22  25
ATOM     25  C   UNL     1       2.020   7.498  20.099  0.00  0.00    +0.000 C 
BRANCH  25  26
ATOM     26  C   UNL     1       1.175   8.593  20.646  0.00  0.00    +0.000 A 
ATOM     27  C   UNL     1       0.535   8.723  21.863  0.00  0.00    +0.000 A 
ATOM     28  C   UNL     1       0.006  10.038  21.933  0.00  0.00    +0.000 A 
ATOM     29  C   UNL     1      -0.661  10.772  22.932  0.00  0.00    +0.000 A 
ATOM     30  C   UNL     1      -0.972  12.116  22.696  0.00  0.00    +0.000 A 
ATOM     31  C   UNL     1      -0.650  12.718  21.481  0.00  0.00    +0.000 A 
ATOM     32  C   UNL     1      -0.029  11.996  20.458  0.00  0.00    +0.000 A 
ATOM     33  C   UNL     1       0.292  10.662  20.718  0.00  0.00    +0.000 A 
ATOM     34  N   UNL     1       0.916   9.729  19.924  0.00  0.00    +0.000 N 
ATOM     35  H   UNL     1       1.194   9.871  18.963  0.00  0.00    +0.000 HD
ENDBRANCH  25  26
ENDBRANCH  22  25
ENDBRANCH   3  19
TORSDOF 5
ENDMDL
MODEL 8
REMARK VINA RESULT:      -7.7      4.081      9.665
REMARK  Name = 
REMARK  6 active torsions:
REMARK  status: ('A' for Active; 'I' for Inactive)
REMARK    1  A    between atoms: C_1  and  O_2
REMARK    2  A    between atoms: O_2  and  C_3
REMARK    3  A    between atoms: C_10  and  C_11
REMARK    4  A    between atoms: N_13  and  C_14
REMARK    5  A    between atoms: N_17  and  C_18
REMARK    6  A    between atoms: C_18  and  C_19
REMARK                            x       y       z     vdW  Elec       q    Type
REMARK                         _______ _______ _______ _____ _____    ______ ____
ROOT
ATOM      1  C   UNL     1       2.709   7.314  19.762  0.00  0.00    +0.000 C 
ATOM      2  C   UNL     1       1.723   8.208  20.496  0.00  0.00    +0.000 C 
ATOM      3  N   UNL     1       0.931   8.758  19.427  0.00  0.00    +0.000 N 
ATOM      4  C   UNL     1       1.685   8.724  18.274  0.00  0.00    +0.000 C 
ATOM      5  O   UNL     1       1.462   9.274  17.210  0.00  0.00    +0.000 OA
ATOM      6  O   UNL     1       2.794   7.940  18.465  0.00  0.00    +0.000 OA
ENDROOT
BRANCH   1  14
ATOM      7  C   UNL     1       4.469   4.595  17.026  0.00  0.00    +0.000 A 
ATOM      8  C   UNL     1       4.024   3.301  16.850  0.00  0.00    +0.000 A 
ATOM      9  C   UNL     1       2.984   2.860  17.656  0.00  0.00    +0.000 A 
ATOM     10  C   UNL     1       2.424   3.694  18.608  0.00  0.00    +0.000 A 
ATOM     11  N   UNL     1       1.451   3.193  19.385  0.00  0.00    +0.000 NA
ATOM     12  C   UNL     1       0.914   4.008  20.307  0.00  0.00    +0.000 A 
ATOM     13  C   UNL     1       1.301   5.321  20.476  0.00  0.00    +0.000 A 
ATOM     14  C   UNL     1       2.314   5.848  19.659  0.00  0.00    +0.000 A 
ATOM     15  C   UNL     1       2.919   5.018  18.698  0.00  0.00    +0.000 A 
ATOM     16  N   UNL     1       3.928   5.467  17.908  0.00  0.00    +0.000 NA
BRANCH   7  18
ATOM     17  C   UNL     1       5.570   4.390  14.962  0.00  0.00    +0.000 C 
ATOM     18  O   UNL     1       5.559   4.959  16.261  0.00  0.00    +0.000 OA
ENDBRANCH   7  18
ENDBRANCH   1  14
BRANCH   3  19
ATOM     19  C   UNL     1      -0.274   9.563  19.722  0.00  0.00    +0.000 C 
ATOM     20  C   UNL     1      -0.431  10.706  18.712  0.00  0.00    +0.000 C 
ATOM     21  C   UNL     1       0.656  11.756  18.922  0.00  0.00    +0.000 C 
ATOM     22  N   UNL     1       0.637  12.341  20.274  0.00  0.00    +0.000 NA
ATOM     23  C   UNL     1       0.637  11.313  21.334  0.00  0.00    +0.000 C 
ATOM     24  C   UNL     1      -0.370  10.183  21.118  0.00  0.00    +0.000 C 
BRANCH  22  25
ATOM     25  C   UNL     1       1.838  13.194  20.403  0.00  0.00    +0.000 C 
BRANCH  25  26
ATOM     26  C   UNL     1       1.734  14.475  19.656  0.00  0.00    +0.000 A 
ATOM     27  C   UNL     1       2.644  15.134  18.855  0.00  0.00    +0.000 A 
ATOM     28  C   UNL     1       1.974  16.231  18.253  0.00  0.00    +0.000 A 
ATOM     29  C   UNL     1       2.341  17.197  17.297  0.00  0.00    +0.000 A 
ATOM     30  C   UNL     1       1.379  18.107  16.845  0.00  0.00    +0.000 A 
ATOM     31  C   UNL     1       0.080  18.079  17.349  0.00  0.00    +0.000 A 
ATOM     32  C   UNL     1      -0.295  17.158  18.331  0.00  0.00    +0.000 A 
ATOM     33  C   UNL     1       0.672  16.244  18.756  0.00  0.00    +0.000 A 
ATOM     34  N   UNL     1       0.587  15.227  19.676  0.00  0.00    +0.000 N 
ATOM     35  H   UNL     1      -0.219  15.022  20.250  0.00  0.00    +0.000 HD
ENDBRANCH  25  26
ENDBRANCH  22  25
ENDBRANCH   3  19
TORSDOF 5
ENDMDL
MODEL 9
REMARK VINA RESULT:      -7.6      1.963      3.030
REMARK  Name = 
REMARK  6 active torsions:
REMARK  status: ('A' for Active; 'I' for Inactive)
REMARK    1  A    between atoms: C_1  and  O_2
REMARK    2  A    between atoms: O_2  and  C_3
REMARK    3  A    between atoms: C_10  and  C_11
REMARK    4  A    between atoms: N_13  and  C_14
REMARK    5  A    between atoms: N_17  and  C_18
REMARK    6  A    between atoms: C_18  and  C_19
REMARK                            x       y       z     vdW  Elec       q    Type
REMARK                         _______ _______ _______ _____ _____    ______ ____
ROOT
ATOM      1  C   UNL     1       2.188   5.906  20.698  0.00  0.00    +0.000 C 
ATOM      2  C   UNL     1       3.184   4.781  20.473  0.00  0.00    +0.000 C 
ATOM      3  N   UNL     1       2.401   3.793  19.777  0.00  0.00    +0.000 N 
ATOM      4  C   UNL     1       1.075   3.996  20.095  0.00  0.00    +0.000 C 
ATOM      5  O   UNL     1       0.127   3.261  19.882  0.00  0.00    +0.000 OA
ATOM      6  O   UNL     1       0.926   5.208  20.719  0.00  0.00    +0.000 OA
ENDROOT
BRANCH   1  14
ATOM      7  C   UNL     1       0.350   9.685  21.263  0.00  0.00    +0.000 A 
ATOM      8  C   UNL     1       0.261  10.640  20.272  0.00  0.00    +0.000 A 
ATOM      9  C   UNL     1       0.858  10.363  19.050  0.00  0.00    +0.000 A 
ATOM     10  C   UNL     1       1.525   9.168  18.845  0.00  0.00    +0.000 A 
ATOM     11  N   UNL     1       2.118   8.979  17.655  0.00  0.00    +0.000 NA
ATOM     12  C   UNL     1       2.764   7.817  17.464  0.00  0.00    +0.000 A 
ATOM     13  C   UNL     1       2.831   6.821  18.415  0.00  0.00    +0.000 A 
ATOM     14  C   UNL     1       2.205   7.016  19.657  0.00  0.00    +0.000 A 
ATOM     15  C   UNL     1       1.539   8.229  19.905  0.00  0.00    +0.000 A 
ATOM     16  N   UNL     1       0.950   8.482  21.102  0.00  0.00    +0.000 NA
BRANCH   7  18
ATOM     17  C   UNL     1      -0.692  11.366  22.528  0.00  0.00    +0.000 C 
ATOM     18  O   UNL     1      -0.184  10.043  22.484  0.00  0.00    +0.000 OA
ENDBRANCH   7  18
ENDBRANCH   1  14
BRANCH   3  19
ATOM     19  C   UNL     1       3.043   2.589  19.210  0.00  0.00    +0.000 C 
ATOM     20  C   UNL     1       4.571   2.690  19.294  0.00  0.00    +0.000 C 
ATOM     21  C   UNL     1       5.088   3.754  18.329  0.00  0.00    +0.000 C 
ATOM     22  N   UNL     1       4.728   3.483  16.926  0.00  0.00    +0.000 NA
ATOM     23  C   UNL     1       3.285   3.221  16.754  0.00  0.00    +0.000 C 
ATOM     24  C   UNL     1       2.697   2.234  17.762  0.00  0.00    +0.000 C 
BRANCH  22  25
ATOM     25  C   UNL     1       5.121   4.666  16.133  0.00  0.00    +0.000 C 
BRANCH  25  26
ATOM     26  C   UNL     1       5.935   5.646  16.901  0.00  0.00    +0.000 A 
ATOM     27  C   UNL     1       6.848   5.465  17.920  0.00  0.00    +0.000 A 
ATOM     28  C   UNL     1       7.459   6.720  18.179  0.00  0.00    +0.000 A 
ATOM     29  C   UNL     1       8.499   7.146  19.026  0.00  0.00    +0.000 A 
ATOM     30  C   UNL     1       8.925   8.477  18.965  0.00  0.00    +0.000 A 
ATOM     31  C   UNL     1       8.315   9.381  18.097  0.00  0.00    +0.000 A 
ATOM     32  C   UNL     1       7.251   8.992  17.279  0.00  0.00    +0.000 A 
ATOM     33  C   UNL     1       6.851   7.655  17.338  0.00  0.00    +0.000 A 
ATOM     34  N   UNL     1       5.866   6.991  16.646  0.00  0.00    +0.000 N 
ATOM     35  H   UNL     1       5.216   7.418  16.000  0.00  0.00    +0.000 HD
ENDBRANCH  25  26
ENDBRANCH  22  25
ENDBRANCH   3  19
TORSDOF 5
ENDMDL
