MODEL 1
REMARK VINA RESULT:      -8.9      0.000      0.000
REMARK  Name = 
REMARK  2 active torsions:
REMARK  status: ('A' for Active; 'I' for Inactive)
REMARK    1  A    between atoms: C_8  and  C_9
REMARK    2  A    between atoms: C_13  and  N_14
REMARK                            x       y       z     vdW  Elec       q    Type
REMARK                         _______ _______ _______ _____ _____    ______ ____
ROOT
ATOM      1  N   UNL     1       7.468   5.508  13.653  0.00  0.00    +0.000 N 
ATOM      2  C   UNL     1       6.778   4.860  14.642  0.00  0.00    +0.000 C 
ATOM      3  O   UNL     1       6.681   3.646  14.583  0.00  0.00    +0.000 OA
ATOM      4  N   UNL     1       6.250   5.730  15.554  0.00  0.00    +0.000 N 
ATOM      5  C   UNL     1       5.460   5.335  16.645  0.00  0.00    +0.000 A 
ATOM      6  C   UNL     1       4.647   6.306  17.226  0.00  0.00    +0.000 A 
ATOM      7  C   UNL     1       3.766   5.880  18.232  0.00  0.00    +0.000 A 
ATOM      8  C   UNL     1       2.711   6.457  19.006  0.00  0.00    +0.000 A 
ATOM      9  N   UNL     1       2.168   5.539  19.835  0.00  0.00    +0.000 NA
ATOM     10  N   UNL     1       2.861   4.419  19.593  0.00  0.00    +0.000 N 
ATOM     11  C   UNL     1       3.809   4.549  18.625  0.00  0.00    +0.000 A 
ATOM     12  C   UNL     1       4.678   3.638  18.058  0.00  0.00    +0.000 A 
ATOM     13  N   UNL     1       5.488   4.056  17.063  0.00  0.00    +0.000 NA
ATOM     14  H   UNL     1       7.924   4.854  13.029  0.00  0.00    +0.000 HD
ATOM     15  H   UNL     1       8.032   6.301  13.919  0.00  0.00    +0.000 HD
ATOM     16  H   UNL     1       6.199   6.692  15.266  0.00  0.00    +0.000 HD
ATOM     17  H   UNL     1       2.613   3.583  20.111  0.00  0.00    +0.000 HD
ENDROOT
BRANCH   8  18
ATOM     18  C   UNL     1       2.179   7.824  18.942  0.00  0.00    +0.000 A 
ATOM     19  C   UNL     1       2.470   8.619  17.841  0.00  0.00    +0.000 A 
ATOM     20  C   UNL     1       1.922   9.882  17.770  0.00  0.00    +0.000 A 
ATOM     21  C   UNL     1       1.075  10.295  18.791  0.00  0.00    +0.000 A 
ATOM     22  C   UNL     1       0.816   9.457  19.881  0.00  0.00    +0.000 A 
ATOM     23  N   UNL     1       1.400   8.245  19.977  0.00  0.00    +0.000 NA
BRANCH  22  24
ATOM     24  N   UNL     1      -0.022   9.884  20.873  0.00  0.00    +0.000 N 
ATOM     25  C   UNL     1      -0.415   9.010  21.972  0.00  0.00    +0.000 C 
ATOM     26  C   UNL     1      -0.174   9.772  23.301  0.00  0.00    +0.000 C 
ATOM     27  N   UNL     1      -0.835  11.097  23.365  0.00  0.00    +0.000 NA
ATOM     28  C   UNL     1      -0.462  11.906  22.186  0.00  0.00    +0.000 C 
ATOM     29  C   UNL     1      -0.696  11.183  20.844  0.00  0.00    +0.000 C 
ATOM     30  H   UNL     1      -0.525  11.581  24.206  0.00  0.00    +0.000 HD
ENDBRANCH  22  24
ENDBRANCH   8  18
TORSDOF 2
ENDMDL
MODEL 2
REMARK VINA RESULT:      -8.9      0.515      1.104
REMARK  Name = 
REMARK  2 active torsions:
REMARK  status: ('A' for Active; 'I' for Inactive)
REMARK    1  A    between atoms: C_8  and  C_9
REMARK    2  A    between atoms: C_13  and  N_14
REMARK                            x       y       z     vdW  Elec       q    Type
REMARK                         _______ _______ _______ _____ _____    ______ ____
ROOT
ATOM      1  N   UNL     1       7.530   5.504  13.928  0.00  0.00    +0.000 N 
ATOM      2  C   UNL     1       6.808   4.860  14.895  0.00  0.00    +0.000 C 
ATOM      3  O   UNL     1       6.706   3.646  14.833  0.00  0.00    +0.000 OA
ATOM      4  N   UNL     1       6.258   5.732  15.792  0.00  0.00    +0.000 N 
ATOM      5  C   UNL     1       5.434   5.341  16.858  0.00  0.00    +0.000 A 
ATOM      6  C   UNL     1       4.610   6.317  17.416  0.00  0.00    +0.000 A 
ATOM      7  C   UNL     1       3.697   5.895  18.396  0.00  0.00    +0.000 A 
ATOM      8  C   UNL     1       2.623   6.478  19.138  0.00  0.00    +0.000 A 
ATOM      9  N   UNL     1       2.051   5.563  19.950  0.00  0.00    +0.000 NA
ATOM     10  N   UNL     1       2.744   4.439  19.728  0.00  0.00    +0.000 N 
ATOM     11  C   UNL     1       3.722   4.564  18.789  0.00  0.00    +0.000 A 
ATOM     12  C   UNL     1       4.601   3.648  18.247  0.00  0.00    +0.000 A 
ATOM     13  N   UNL     1       5.442   4.062  17.277  0.00  0.00    +0.000 NA
ATOM     14  H   UNL     1       8.001   4.848  13.317  0.00  0.00    +0.000 HD
ATOM     15  H   UNL     1       8.091   6.294  14.210  0.00  0.00    +0.000 HD
ATOM     16  H   UNL     1       6.221   6.694  15.503  0.00  0.00    +0.000 HD
ATOM     17  H   UNL     1       2.476   3.604  20.238  0.00  0.00    +0.000 HD
ENDROOT
BRANCH   8  18
ATOM     18  C   UNL     1       2.101   7.848  19.060  0.00  0.00    +0.000 A 
ATOM     19  C   UNL     1       2.003   8.471  17.822  0.00  0.00    +0.000 A 
ATOM     20  C   UNL     1       1.463   9.739  17.758  0.00  0.00    +0.000 A 
ATOM     21  C   UNL     1       1.012  10.327  18.932  0.00  0.00    +0.000 A 
ATOM     22  C   UNL     1       1.137   9.659  20.155  0.00  0.00    +0.000 A 
ATOM     23  N   UNL     1       1.719   8.444  20.223  0.00  0.00    +0.000 NA
BRANCH  22  24
ATOM     24  N   UNL     1       0.685  10.257  21.298  0.00  0.00    +0.000 N 
ATOM     25  C   UNL     1       0.315  11.667  21.328  0.00  0.00    +0.000 C 
ATOM     26  C   UNL     1      -1.091  11.780  21.976  0.00  0.00    +0.000 C 
ATOM     27  N   UNL     1      -1.195  11.136  23.306  0.00  0.00    +0.000 NA
ATOM     28  C   UNL     1      -0.730   9.735  23.229  0.00  0.00    +0.000 C 
ATOM     29  C   UNL     1       0.669   9.585  22.597  0.00  0.00    +0.000 C 
ATOM     30  H   UNL     1      -2.170  11.143  23.601  0.00  0.00    +0.000 HD
ENDBRANCH  22  24
ENDBRANCH   8  18
TORSDOF 2
ENDMDL
MODEL 3
REMARK VINA RESULT:      -8.4      1.871      3.473
REMARK  Name = 
REMARK  2 active torsions:
REMARK  status: ('A' for Active; 'I' for Inactive)
REMARK    1  A    between atoms: C_8  and  C_9
REMARK    2  A    between atoms: C_13  and  N_14
REMARK                            x       y       z     vdW  Elec       q    Type
REMARK                         _______ _______ _______ _____ _____    ______ ____
ROOT
ATOM      1  N   UNL     1       4.647   3.531  11.809  0.00  0.00    +0.000 N 
ATOM      2  C   UNL     1       5.530   3.627  12.850  0.00  0.00    +0.000 C 
ATOM      3  O   UNL     1       6.614   3.079  12.745  0.00  0.00    +0.000 OA
ATOM      4  N   UNL     1       5.005   4.319  13.905  0.00  0.00    +0.000 N 
ATOM      5  C   UNL     1       5.682   4.526  15.118  0.00  0.00    +0.000 A 
ATOM      6  C   UNL     1       4.908   4.851  16.230  0.00  0.00    +0.000 A 
ATOM      7  C   UNL     1       5.570   4.932  17.465  0.00  0.00    +0.000 A 
ATOM      8  C   UNL     1       5.202   5.115  18.834  0.00  0.00    +0.000 A 
ATOM      9  N   UNL     1       6.291   5.076  19.632  0.00  0.00    +0.000 NA
ATOM     10  N   UNL     1       7.314   4.878  18.791  0.00  0.00    +0.000 N 
ATOM     11  C   UNL     1       6.947   4.753  17.486  0.00  0.00    +0.000 A 
ATOM     12  C   UNL     1       7.677   4.493  16.344  0.00  0.00    +0.000 A 
ATOM     13  N   UNL     1       7.018   4.376  15.173  0.00  0.00    +0.000 NA
ATOM     14  H   UNL     1       5.070   3.090  11.002  0.00  0.00    +0.000 HD
ATOM     15  H   UNL     1       4.082   4.340  11.598  0.00  0.00    +0.000 HD
ATOM     16  H   UNL     1       4.007   4.433  13.903  0.00  0.00    +0.000 HD
ATOM     17  H   UNL     1       8.248   4.809  19.183  0.00  0.00    +0.000 HD
ENDROOT
BRANCH   8  18
ATOM     18  C   UNL     1       3.857   5.271  19.402  0.00  0.00    +0.000 A 
ATOM     19  C   UNL     1       3.169   4.149  19.848  0.00  0.00    +0.000 A 
ATOM     20  C   UNL     1       1.928   4.318  20.425  0.00  0.00    +0.000 A 
ATOM     21  C   UNL     1       1.431   5.607  20.564  0.00  0.00    +0.000 A 
ATOM     22  C   UNL     1       2.161   6.704  20.095  0.00  0.00    +0.000 A 
ATOM     23  N   UNL     1       3.348   6.532  19.478  0.00  0.00    +0.000 NA
BRANCH  22  24
ATOM     24  N   UNL     1       1.652   7.964  20.244  0.00  0.00    +0.000 N 
ATOM     25  C   UNL     1       1.712   8.945  19.167  0.00  0.00    +0.000 C 
ATOM     26  C   UNL     1       0.290   9.538  18.980  0.00  0.00    +0.000 C 
ATOM     27  N   UNL     1      -0.299  10.092  20.221  0.00  0.00    +0.000 NA
ATOM     28  C   UNL     1      -0.258   9.079  21.297  0.00  0.00    +0.000 C 
ATOM     29  C   UNL     1       1.142   8.472  21.517  0.00  0.00    +0.000 C 
ATOM     30  H   UNL     1      -1.271  10.341  20.042  0.00  0.00    +0.000 HD
ENDBRANCH  22  24
ENDBRANCH   8  18
TORSDOF 2
ENDMDL
MODEL 4
REMARK VINA RESULT:      -8.0      3.396      8.743
REMARK  Name = 
REMARK  2 active torsions:
REMARK  status: ('A' for Active; 'I' for Inactive)
REMARK    1  A    between atoms: C_8  and  C_9
REMARK    2  A    between atoms: C_13  and  N_14
REMARK                            x       y       z     vdW  Elec       q    Type
REMARK                         _______ _______ _______ _____ _____    ______ ____
ROOT
ATOM      1  N   UNL     1      -2.525  11.866  23.650  0.00  0.00    +0.000 N 
ATOM      2  C   UNL     1      -1.995  11.958  22.392  0.00  0.00    +0.000 C 
ATOM      3  O   UNL     1      -2.521  12.716  21.594  0.00  0.00    +0.000 OA
ATOM      4  N   UNL     1      -0.938  11.111  22.217  0.00  0.00    +0.000 N 
ATOM      5  C   UNL     1      -0.239  10.971  21.007  0.00  0.00    +0.000 A 
ATOM      6  C   UNL     1       0.504   9.805  20.832  0.00  0.00    +0.000 A 
ATOM      7  C   UNL     1       1.096   9.611  19.576  0.00  0.00    +0.000 A 
ATOM      8  C   UNL     1       1.822   8.570  18.916  0.00  0.00    +0.000 A 
ATOM      9  N   UNL     1       2.132   8.930  17.652  0.00  0.00    +0.000 NA
ATOM     10  N   UNL     1       1.621  10.160  17.519  0.00  0.00    +0.000 N 
ATOM     11  C   UNL     1       0.964  10.612  18.623  0.00  0.00    +0.000 A 
ATOM     12  C   UNL     1       0.267  11.778  18.867  0.00  0.00    +0.000 A 
ATOM     13  N   UNL     1      -0.332  11.929  20.067  0.00  0.00    +0.000 NA
ATOM     14  H   UNL     1      -3.253  12.554  23.798  0.00  0.00    +0.000 HD
ATOM     15  H   UNL     1      -1.883  11.760  24.421  0.00  0.00    +0.000 HD
ATOM     16  H   UNL     1      -0.850  10.373  22.894  0.00  0.00    +0.000 HD
ATOM     17  H   UNL     1       1.733  10.631  16.628  0.00  0.00    +0.000 HD
ENDROOT
BRANCH   8  18
ATOM     18  C   UNL     1       2.178   7.242  19.431  0.00  0.00    +0.000 A 
ATOM     19  C   UNL     1       1.416   6.677  20.446  0.00  0.00    +0.000 A 
ATOM     20  C   UNL     1       1.731   5.408  20.884  0.00  0.00    +0.000 A 
ATOM     21  C   UNL     1       2.779   4.735  20.270  0.00  0.00    +0.000 A 
ATOM     22  C   UNL     1       3.518   5.350  19.253  0.00  0.00    +0.000 A 
ATOM     23  N   UNL     1       3.246   6.613  18.866  0.00  0.00    +0.000 NA
BRANCH  22  24
ATOM     24  N   UNL     1       4.545   4.668  18.661  0.00  0.00    +0.000 N 
ATOM     25  C   UNL     1       4.303   3.663  17.633  0.00  0.00    +0.000 C 
ATOM     26  C   UNL     1       5.224   3.981  16.426  0.00  0.00    +0.000 C 
ATOM     27  N   UNL     1       6.659   4.101  16.778  0.00  0.00    +0.000 NA
ATOM     28  C   UNL     1       6.831   5.073  17.877  0.00  0.00    +0.000 C 
ATOM     29  C   UNL     1       5.935   4.784  19.100  0.00  0.00    +0.000 C 
ATOM     30  H   UNL     1       7.172   4.434  15.962  0.00  0.00    +0.000 HD
ENDBRANCH  22  24
ENDBRANCH   8  18
TORSDOF 2
ENDMDL
MODEL 5
REMARK VINA RESULT:      -8.0      1.162      1.552
REMARK  Name = 
REMARK  2 active torsions:
REMARK  status: ('A' for Active; 'I' for Inactive)
REMARK    1  A    between atoms: C_8  and  C_9
REMARK    2  A    between atoms: C_13  and  N_14
REMARK                            x       y       z     vdW  Elec       q    Type
REMARK                         _______ _______ _______ _____ _____    ______ ____
ROOT
ATOM      1  N   UNL     1       6.775   5.110  14.410  0.00  0.00    +0.000 N 
ATOM      2  C   UNL     1       6.174   4.649  15.550  0.00  0.00    +0.000 C 
ATOM      3  O   UNL     1       6.139   3.445  15.742  0.00  0.00    +0.000 OA
ATOM      4  N   UNL     1       5.648   5.663  16.299  0.00  0.00    +0.000 N 
ATOM      5  C   UNL     1       4.939   5.466  17.494  0.00  0.00    +0.000 A 
ATOM      6  C   UNL     1       4.107   6.500  17.918  0.00  0.00    +0.000 A 
ATOM      7  C   UNL     1       3.304   6.251  19.042  0.00  0.00    +0.000 A 
ATOM      8  C   UNL     1       2.261   6.929  19.748  0.00  0.00    +0.000 A 
ATOM      9  N   UNL     1       1.813   6.177  20.777  0.00  0.00    +0.000 NA
ATOM     10  N   UNL     1       2.551   5.062  20.722  0.00  0.00    +0.000 N 
ATOM     11  C   UNL     1       3.440   5.031  19.691  0.00  0.00    +0.000 A 
ATOM     12  C   UNL     1       4.325   4.061  19.266  0.00  0.00    +0.000 A 
ATOM     13  N   UNL     1       5.058   4.301  18.159  0.00  0.00    +0.000 NA
ATOM     14  H   UNL     1       7.233   4.362  13.903  0.00  0.00    +0.000 HD
ATOM     15  H   UNL     1       7.309   5.963  14.475  0.00  0.00    +0.000 HD
ATOM     16  H   UNL     1       5.531   6.543  15.827  0.00  0.00    +0.000 HD
ATOM     17  H   UNL     1       2.376   4.339  21.412  0.00  0.00    +0.000 HD
ENDROOT
BRANCH   8  18
ATOM     18  C   UNL     1       1.654   8.230  19.444  0.00  0.00    +0.000 A 
ATOM     19  C   UNL     1       1.405   8.576  18.122  0.00  0.00    +0.000 A 
ATOM     20  C   UNL     1       0.787   9.779  17.855  0.00  0.00    +0.000 A 
ATOM     21  C   UNL     1       0.413  10.584  18.923  0.00  0.00    +0.000 A 
ATOM     22  C   UNL     1       0.690  10.192  20.237  0.00  0.00    +0.000 A 
ATOM     23  N   UNL     1       1.346   9.042  20.494  0.00  0.00    +0.000 NA
BRANCH  22  24
ATOM     24  N   UNL     1       0.311  10.999  21.274  0.00  0.00    +0.000 N 
ATOM     25  C   UNL     1       0.546  12.438  21.249  0.00  0.00    +0.000 C 
ATOM     26  C   UNL     1      -0.788  13.148  21.600  0.00  0.00    +0.000 C 
ATOM     27  N   UNL     1      -1.395  12.694  22.872  0.00  0.00    +0.000 NA
ATOM     28  C   UNL     1      -1.535  11.223  22.870  0.00  0.00    +0.000 C 
ATOM     29  C   UNL     1      -0.225  10.482  22.533  0.00  0.00    +0.000 C 
ATOM     30  H   UNL     1      -2.321  13.111  22.964  0.00  0.00    +0.000 HD
ENDBRANCH  22  24
ENDBRANCH   8  18
TORSDOF 2
ENDMDL
MODEL 6
REMARK VINA RESULT:      -7.9      1.960      3.413
REMARK  Name = 
REMARK  2 active torsions:
REMARK  status: ('A' for Active; 'I' for Inactive)
REMARK    1  A    between atoms: C_8  and  C_9
REMARK    2  A    between atoms: C_13  and  N_14
REMARK                            x       y       z     vdW  Elec       q    Type
REMARK                         _______ _______ _______ _____ _____    ______ ____
ROOT
ATOM      1  N   UNL     1       4.692   3.493  11.909  0.00  0.00    +0.000 N 
ATOM      2  C   UNL     1       5.553   3.587  12.969  0.00  0.00    +0.000 C 
ATOM      3  O   UNL     1       6.604   2.970  12.920  0.00  0.00    +0.000 OA
ATOM      4  N   UNL     1       5.046   4.361  13.974  0.00  0.00    +0.000 N 
ATOM      5  C   UNL     1       5.703   4.587  15.194  0.00  0.00    +0.000 A 
ATOM      6  C   UNL     1       4.923   5.013  16.268  0.00  0.00    +0.000 A 
ATOM      7  C   UNL     1       5.559   5.115  17.515  0.00  0.00    +0.000 A 
ATOM      8  C   UNL     1       5.169   5.388  18.863  0.00  0.00    +0.000 A 
ATOM      9  N   UNL     1       6.233   5.324  19.692  0.00  0.00    +0.000 NA
ATOM     10  N   UNL     1       7.263   5.023  18.890  0.00  0.00    +0.000 N 
ATOM     11  C   UNL     1       6.921   4.856  17.583  0.00  0.00    +0.000 A 
ATOM     12  C   UNL     1       7.662   4.495  16.476  0.00  0.00    +0.000 A 
ATOM     13  N   UNL     1       7.026   4.360  15.293  0.00  0.00    +0.000 NA
ATOM     14  H   UNL     1       5.108   2.987  11.137  0.00  0.00    +0.000 HD
ATOM     15  H   UNL     1       4.184   4.323  11.644  0.00  0.00    +0.000 HD
ATOM     16  H   UNL     1       4.057   4.535  13.939  0.00  0.00    +0.000 HD
ATOM     17  H   UNL     1       8.180   4.917  19.310  0.00  0.00    +0.000 HD
ENDROOT
BRANCH   8  18
ATOM     18  C   UNL     1       3.822   5.653  19.384  0.00  0.00    +0.000 A 
ATOM     19  C   UNL     1       3.201   4.703  20.186  0.00  0.00    +0.000 A 
ATOM     20  C   UNL     1       1.958   4.988  20.710  0.00  0.00    +0.000 A 
ATOM     21  C   UNL     1       1.392   6.226  20.439  0.00  0.00    +0.000 A 
ATOM     22  C   UNL     1       2.057   7.148  19.623  0.00  0.00    +0.000 A 
ATOM     23  N   UNL     1       3.246   6.844  19.063  0.00  0.00    +0.000 NA
BRANCH  22  24
ATOM     24  N   UNL     1       1.481   8.362  19.371  0.00  0.00    +0.000 N 
ATOM     25  C   UNL     1       0.711   9.069  20.388  0.00  0.00    +0.000 C 
ATOM     26  C   UNL     1       1.241  10.525  20.464  0.00  0.00    +0.000 C 
ATOM     27  N   UNL     1       1.249  11.233  19.162  0.00  0.00    +0.000 NA
ATOM     28  C   UNL     1       1.973  10.431  18.154  0.00  0.00    +0.000 C 
ATOM     29  C   UNL     1       1.467   8.978  18.045  0.00  0.00    +0.000 C 
ATOM     30  H   UNL     1       1.726  12.126  19.275  0.00  0.00    +0.000 HD
ENDBRANCH  22  24
ENDBRANCH   8  18
TORSDOF 2
ENDMDL
MODEL 7
REMARK VINA RESULT:      -7.8      2.960      7.608
REMARK  Name = 
REMARK  2 active torsions:
REMARK  status: ('A' for Active; 'I' for Inactive)
REMARK    1  A    between atoms: C_8  and  C_9
REMARK    2  A    between atoms: C_13  and  N_14
REMARK                            x       y       z     vdW  Elec       q    Type
REMARK                         _______ _______ _______ _____ _____    ______ ____
ROOT
ATOM      1  N   UNL     1       2.549  12.854  17.058  0.00  0.00    +0.000 N 
ATOM      2  C   UNL     1       2.231  12.152  18.189  0.00  0.00    +0.000 C 
ATOM      3  O   UNL     1       2.228  12.740  19.257  0.00  0.00    +0.000 OA
ATOM      4  N   UNL     1       2.000  10.831  17.924  0.00  0.00    +0.000 N 
ATOM      5  C   UNL     1       1.698   9.878  18.909  0.00  0.00    +0.000 A 
ATOM      6  C   UNL     1       1.909   8.539  18.585  0.00  0.00    +0.000 A 
ATOM      7  C   UNL     1       1.728   7.600  19.612  0.00  0.00    +0.000 A 
ATOM      8  C   UNL     1       1.927   6.194  19.784  0.00  0.00    +0.000 A 
ATOM      9  N   UNL     1       1.601   5.815  21.039  0.00  0.00    +0.000 NA
ATOM     10  N   UNL     1       1.208   6.945  21.638  0.00  0.00    +0.000 N 
ATOM     11  C   UNL     1       1.288   8.052  20.848  0.00  0.00    +0.000 A 
ATOM     12  C   UNL     1       1.034   9.384  21.101  0.00  0.00    +0.000 A 
ATOM     13  N   UNL     1       1.254  10.279  20.115  0.00  0.00    +0.000 NA
ATOM     14  H   UNL     1       2.638  13.844  17.249  0.00  0.00    +0.000 HD
ATOM     15  H   UNL     1       2.047  12.631  16.212  0.00  0.00    +0.000 HD
ATOM     16  H   UNL     1       2.334  10.495  17.038  0.00  0.00    +0.000 HD
ATOM     17  H   UNL     1       0.919   6.896  22.609  0.00  0.00    +0.000 HD
ENDROOT
BRANCH   8  18
ATOM     18  C   UNL     1       2.458   5.225  18.817  0.00  0.00    +0.000 A 
ATOM     19  C   UNL     1       1.629   4.222  18.329  0.00  0.00    +0.000 A 
ATOM     20  C   UNL     1       2.127   3.351  17.383  0.00  0.00    +0.000 A 
ATOM     21  C   UNL     1       3.429   3.532  16.936  0.00  0.00    +0.000 A 
ATOM     22  C   UNL     1       4.224   4.555  17.461  0.00  0.00    +0.000 A 
ATOM     23  N   UNL     1       3.755   5.370  18.429  0.00  0.00    +0.000 NA
BRANCH  22  24
ATOM     24  N   UNL     1       5.503   4.715  17.004  0.00  0.00    +0.000 N 
ATOM     25  C   UNL     1       5.998   3.984  15.844  0.00  0.00    +0.000 C 
ATOM     26  C   UNL     1       6.653   5.005  14.877  0.00  0.00    +0.000 C 
ATOM     27  N   UNL     1       7.698   5.846  15.506  0.00  0.00    +0.000 NA
ATOM     28  C   UNL     1       7.161   6.497  16.719  0.00  0.00    +0.000 C 
ATOM     29  C   UNL     1       6.508   5.511  17.709  0.00  0.00    +0.000 C 
ATOM     30  H   UNL     1       7.983   6.568  14.846  0.00  0.00    +0.000 HD
ENDBRANCH  22  24
ENDBRANCH   8  18
TORSDOF 2
ENDMDL
MODEL 8
REMARK VINA RESULT:      -7.8      3.024      7.682
REMARK  Name = 
REMARK  2 active torsions:
REMARK  status: ('A' for Active; 'I' for Inactive)
REMARK    1  A    between atoms: C_8  and  C_9
REMARK    2  A    between atoms: C_13  and  N_14
REMARK                            x       y       z     vdW  Elec       q    Type
REMARK                         _______ _______ _______ _____ _____    ______ ____
ROOT
ATOM      1  N   UNL     1       2.452  13.148  17.218  0.00  0.00    +0.000 N 
ATOM      2  C   UNL     1       2.137  12.419  18.333  0.00  0.00    +0.000 C 
ATOM      3  O   UNL     1       2.130  12.985  19.414  0.00  0.00    +0.000 OA
ATOM      4  N   UNL     1       1.913  11.104  18.040  0.00  0.00    +0.000 N 
ATOM      5  C   UNL     1       1.616  10.128  19.004  0.00  0.00    +0.000 A 
ATOM      6  C   UNL     1       1.836   8.797  18.652  0.00  0.00    +0.000 A 
ATOM      7  C   UNL     1       1.659   7.835  19.657  0.00  0.00    +0.000 A 
ATOM      8  C   UNL     1       1.866   6.427  19.799  0.00  0.00    +0.000 A 
ATOM      9  N   UNL     1       1.543   6.019  21.046  0.00  0.00    +0.000 NA
ATOM     10  N   UNL     1       1.142   7.135  21.669  0.00  0.00    +0.000 N 
ATOM     11  C   UNL     1       1.217   8.258  20.903  0.00  0.00    +0.000 A 
ATOM     12  C   UNL     1       0.954   9.583  21.184  0.00  0.00    +0.000 A 
ATOM     13  N   UNL     1       1.170  10.500  20.218  0.00  0.00    +0.000 NA
ATOM     14  H   UNL     1       2.535  14.134  17.430  0.00  0.00    +0.000 HD
ATOM     15  H   UNL     1       1.951  12.941  16.367  0.00  0.00    +0.000 HD
ATOM     16  H   UNL     1       2.250  10.789  17.147  0.00  0.00    +0.000 HD
ATOM     17  H   UNL     1       0.853   7.062  22.638  0.00  0.00    +0.000 HD
ENDROOT
BRANCH   8  18
ATOM     18  C   UNL     1       2.404   5.482  18.813  0.00  0.00    +0.000 A 
ATOM     19  C   UNL     1       1.770   4.261  18.621  0.00  0.00    +0.000 A 
ATOM     20  C   UNL     1       2.256   3.405  17.655  0.00  0.00    +0.000 A 
ATOM     21  C   UNL     1       3.341   3.815  16.892  0.00  0.00    +0.000 A 
ATOM     22  C   UNL     1       3.946   5.054  17.126  0.00  0.00    +0.000 A 
ATOM     23  N   UNL     1       3.507   5.864  18.111  0.00  0.00    +0.000 NA
BRANCH  22  24
ATOM     24  N   UNL     1       5.013   5.437  16.361  0.00  0.00    +0.000 N 
ATOM     25  C   UNL     1       5.861   6.561  16.740  0.00  0.00    +0.000 C 
ATOM     26  C   UNL     1       7.338   6.089  16.677  0.00  0.00    +0.000 C 
ATOM     27  N   UNL     1       7.727   5.497  15.375  0.00  0.00    +0.000 NA
ATOM     28  C   UNL     1       6.784   4.420  15.008  0.00  0.00    +0.000 C 
ATOM     29  C   UNL     1       5.305   4.855  15.052  0.00  0.00    +0.000 C 
ATOM     30  H   UNL     1       8.662   5.101  15.459  0.00  0.00    +0.000 HD
ENDBRANCH  22  24
ENDBRANCH   8  18
TORSDOF 2
ENDMDL
MODEL 9
REMARK VINA RESULT:      -7.6      2.918      5.020
REMARK  Name = 
REMARK  2 active torsions:
REMARK  status: ('A' for Active; 'I' for Inactive)
REMARK    1  A    between atoms: C_8  and  C_9
REMARK    2  A    between atoms: C_13  and  N_14
REMARK                            x       y       z     vdW  Elec       q    Type
REMARK                         _______ _______ _______ _____ _____    ______ ____
ROOT
ATOM      1  N   UNL     1       1.780   2.165  22.296  0.00  0.00    +0.000 N 
ATOM      2  C   UNL     1       2.351   2.924  21.311  0.00  0.00    +0.000 C 
ATOM      3  O   UNL     1       3.428   2.574  20.858  0.00  0.00    +0.000 OA
ATOM      4  N   UNL     1       1.603   4.028  21.014  0.00  0.00    +0.000 N 
ATOM      5  C   UNL     1       1.980   4.999  20.074  0.00  0.00    +0.000 A 
ATOM      6  C   UNL     1       1.376   6.251  20.174  0.00  0.00    +0.000 A 
ATOM      7  C   UNL     1       1.846   7.255  19.314  0.00  0.00    +0.000 A 
ATOM      8  C   UNL     1       1.628   8.657  19.132  0.00  0.00    +0.000 A 
ATOM      9  N   UNL     1       2.404   9.137  18.136  0.00  0.00    +0.000 NA
ATOM     10  N   UNL     1       3.088   8.071  17.703  0.00  0.00    +0.000 N 
ATOM     11  C   UNL     1       2.823   6.923  18.385  0.00  0.00    +0.000 A 
ATOM     12  C   UNL     1       3.346   5.650  18.286  0.00  0.00    +0.000 A 
ATOM     13  N   UNL     1       2.913   4.707  19.148  0.00  0.00    +0.000 NA
ATOM     14  H   UNL     1       2.297   1.308  22.451  0.00  0.00    +0.000 HD
ATOM     15  H   UNL     1       0.777   2.054  22.279  0.00  0.00    +0.000 HD
ATOM     16  H   UNL     1       0.907   4.284  21.694  0.00  0.00    +0.000 HD
ATOM     17  H   UNL     1       3.750   8.204  16.946  0.00  0.00    +0.000 HD
ENDROOT
BRANCH   8  18
ATOM     18  C   UNL     1       0.752   9.549  19.902  0.00  0.00    +0.000 A 
ATOM     19  C   UNL     1       0.994   9.741  21.257  0.00  0.00    +0.000 A 
ATOM     20  C   UNL     1       0.194  10.621  21.955  0.00  0.00    +0.000 A 
ATOM     21  C   UNL     1      -0.802  11.301  21.267  0.00  0.00    +0.000 A 
ATOM     22  C   UNL     1      -1.008  11.069  19.903  0.00  0.00    +0.000 A 
ATOM     23  N   UNL     1      -0.263  10.165  19.234  0.00  0.00    +0.000 NA
BRANCH  22  24
ATOM     24  N   UNL     1      -1.994  11.751  19.246  0.00  0.00    +0.000 N 
ATOM     25  C   UNL     1      -2.111  11.716  17.793  0.00  0.00    +0.000 C 
ATOM     26  C   UNL     1      -3.580  11.366  17.439  0.00  0.00    +0.000 C 
ATOM     27  N   UNL     1      -4.581  12.260  18.068  0.00  0.00    +0.000 NA
ATOM     28  C   UNL     1      -4.361  12.318  19.528  0.00  0.00    +0.000 C 
ATOM     29  C   UNL     1      -2.911  12.671  19.918  0.00  0.00    +0.000 C 
ATOM     30  H   UNL     1      -5.513  11.889  17.891  0.00  0.00    +0.000 HD
ENDBRANCH  22  24
ENDBRANCH   8  18
TORSDOF 2
ENDMDL
