MODEL 1
REMARK VINA RESULT:      -7.6      0.000      0.000
REMARK  Name = 
REMARK  9 active torsions:
REMARK  status: ('A' for Active; 'I' for Inactive)
REMARK    1  A    between atoms: C_1  and  C_2
REMARK    2  A    between atoms: C_5  and  S_6
REMARK    3  A    between atoms: S_6  and  N_9
REMARK    4  A    between atoms: C_13  and  C_15
REMARK    5  A    between atoms: C_15  and  N_16
REMARK    6  A    between atoms: C_18  and  C_19
REMARK    7  A    between atoms: C_20  and  N_21
REMARK    8  A    between atoms: C_24  and  C_25
REMARK    9  A    between atoms: C_28  and  C_29
REMARK                            x       y       z     vdW  Elec       q    Type
REMARK                         _______ _______ _______ _____ _____    ______ ____
ROOT
ATOM      1  N   UNL     1      -0.964  10.612  19.333  0.00  0.00    +0.000 NA
ATOM      2  C   UNL     1      -0.506   9.919  18.109  0.00  0.00    +0.000 C 
ATOM      3  C   UNL     1       1.011   9.785  18.129  0.00  0.00    +0.000 C 
ATOM      4  N   UNL     1       1.383   8.929  19.253  0.00  0.00    +0.000 N 
ATOM      5  C   UNL     1       2.212   7.851  19.006  0.00  0.00    +0.000 C 
ATOM      6  O   UNL     1       2.710   7.676  17.886  0.00  0.00    +0.000 OA
ATOM      7  C   UNL     1       0.982   9.466  20.564  0.00  0.00    +0.000 C 
ATOM      8  C   UNL     1      -0.456  10.046  20.616  0.00  0.00    +0.000 C 
ENDROOT
BRANCH   1   9
ATOM      9  S   UNL     1      -1.289  12.268  19.193  0.00  0.00    +0.000 S 
ATOM     10  O   UNL     1      -1.229  12.590  17.782  0.00  0.00    +0.000 OA
ATOM     11  O   UNL     1      -0.504  13.006  20.160  0.00  0.00    +0.000 OA
BRANCH   9  16
ATOM     12  C   UNL     1      -7.093  12.851  21.017  0.00  0.00    +0.000 C 
ATOM     13  C   UNL     1      -5.665  12.654  20.595  0.00  0.00    +0.000 A 
ATOM     14  C   UNL     1      -4.601  13.019  21.427  0.00  0.00    +0.000 A 
ATOM     15  C   UNL     1      -3.282  12.858  20.997  0.00  0.00    +0.000 A 
ATOM     16  C   UNL     1      -3.006  12.332  19.724  0.00  0.00    +0.000 A 
ATOM     17  C   UNL     1      -4.061  11.928  18.881  0.00  0.00    +0.000 A 
ATOM     18  C   UNL     1      -3.897  11.325  17.515  0.00  0.00    +0.000 C 
ATOM     19  C   UNL     1      -5.381  12.102  19.339  0.00  0.00    +0.000 A 
ENDBRANCH   9  16
ENDBRANCH   1   9
BRANCH   5  20
ATOM     20  C   UNL     1       2.514   6.844  20.085  0.00  0.00    +0.000 C 
BRANCH  20  21
ATOM     21  N   UNL     1       2.568   5.464  19.619  0.00  0.00    +0.000 N 
ATOM     22  N   UNL     1       1.397   4.798  19.552  0.00  0.00    +0.000 NA
ATOM     23  C   UNL     1       1.733   3.534  19.273  0.00  0.00    +0.000 A 
ATOM     24  C   UNL     1       0.666   2.506  19.165  0.00  0.00    +0.000 C 
ATOM     25  C   UNL     1       3.136   3.391  19.129  0.00  0.00    +0.000 A 
ATOM     26  C   UNL     1       3.661   4.661  19.355  0.00  0.00    +0.000 A 
ATOM     27  C   UNL     1       5.072   5.139  19.373  0.00  0.00    +0.000 C 
BRANCH  25  28
ATOM     28  N   UNL     1       3.853   2.176  18.830  0.00  0.00    +0.000 N 
ATOM     29  O   UNL     1       4.557   1.699  19.728  0.00  0.00    +0.000 OA
ATOM     30  O   UNL     1       3.716   1.688  17.701  0.00  0.00    +0.000 OA
ENDBRANCH  25  28
ENDBRANCH  20  21
ENDBRANCH   5  20
TORSDOF 5
ENDMDL
MODEL 2
REMARK VINA RESULT:      -7.5      0.888      1.673
REMARK  Name = 
REMARK  9 active torsions:
REMARK  status: ('A' for Active; 'I' for Inactive)
REMARK    1  A    between atoms: C_1  and  C_2
REMARK    2  A    between atoms: C_5  and  S_6
REMARK    3  A    between atoms: S_6  and  N_9
REMARK    4  A    between atoms: C_13  and  C_15
REMARK    5  A    between atoms: C_15  and  N_16
REMARK    6  A    between atoms: C_18  and  C_19
REMARK    7  A    between atoms: C_20  and  N_21
REMARK    8  A    between atoms: C_24  and  C_25
REMARK    9  A    between atoms: C_28  and  C_29
REMARK                            x       y       z     vdW  Elec       q    Type
REMARK                         _______ _______ _______ _____ _____    ______ ____
ROOT
ATOM      1  N   UNL     1      -1.007  10.588  19.220  0.00  0.00    +0.000 NA
ATOM      2  C   UNL     1      -0.449  10.017  17.975  0.00  0.00    +0.000 C 
ATOM      3  C   UNL     1       1.067   9.914  18.089  0.00  0.00    +0.000 C 
ATOM      4  N   UNL     1       1.385   8.970  19.157  0.00  0.00    +0.000 N 
ATOM      5  C   UNL     1       2.258   7.936  18.875  0.00  0.00    +0.000 C 
ATOM      6  O   UNL     1       2.836   7.872  17.782  0.00  0.00    +0.000 OA
ATOM      7  C   UNL     1       0.882   9.379  20.479  0.00  0.00    +0.000 C 
ATOM      8  C   UNL     1      -0.572   9.921  20.481  0.00  0.00    +0.000 C 
ENDROOT
BRANCH   1   9
ATOM      9  S   UNL     1      -1.367  12.242  19.203  0.00  0.00    +0.000 S 
ATOM     10  O   UNL     1      -1.126  12.711  17.854  0.00  0.00    +0.000 OA
ATOM     11  O   UNL     1      -0.748  12.892  20.339  0.00  0.00    +0.000 OA
BRANCH   9  16
ATOM     12  C   UNL     1      -7.388  12.517  20.216  0.00  0.00    +0.000 C 
ATOM     13  C   UNL     1      -5.909  12.396  19.993  0.00  0.00    +0.000 A 
ATOM     14  C   UNL     1      -4.988  12.796  20.966  0.00  0.00    +0.000 A 
ATOM     15  C   UNL     1      -3.616  12.706  20.721  0.00  0.00    +0.000 A 
ATOM     16  C   UNL     1      -3.142  12.215  19.492  0.00  0.00    +0.000 A 
ATOM     17  C   UNL     1      -4.050  11.776  18.508  0.00  0.00    +0.000 A 
ATOM     18  C   UNL     1      -3.671  11.206  17.171  0.00  0.00    +0.000 C 
ATOM     19  C   UNL     1      -5.427  11.880  18.782  0.00  0.00    +0.000 A 
ENDBRANCH   9  16
ENDBRANCH   1   9
BRANCH   5  20
ATOM     20  C   UNL     1       2.514   6.843  19.882  0.00  0.00    +0.000 C 
BRANCH  20  21
ATOM     21  N   UNL     1       2.977   5.590  19.300  0.00  0.00    +0.000 N 
ATOM     22  N   UNL     1       4.084   5.648  18.530  0.00  0.00    +0.000 NA
ATOM     23  C   UNL     1       4.194   4.431  17.988  0.00  0.00    +0.000 A 
ATOM     24  C   UNL     1       5.303   4.156  17.039  0.00  0.00    +0.000 C 
ATOM     25  C   UNL     1       3.161   3.569  18.437  0.00  0.00    +0.000 A 
ATOM     26  C   UNL     1       2.382   4.343  19.293  0.00  0.00    +0.000 A 
ATOM     27  C   UNL     1       1.141   4.007  20.048  0.00  0.00    +0.000 C 
BRANCH  25  28
ATOM     28  N   UNL     1       2.964   2.191  18.061  0.00  0.00    +0.000 N 
ATOM     29  O   UNL     1       2.100   1.955  17.210  0.00  0.00    +0.000 OA
ATOM     30  O   UNL     1       3.671   1.336  18.611  0.00  0.00    +0.000 OA
ENDBRANCH  25  28
ENDBRANCH  20  21
ENDBRANCH   5  20
TORSDOF 5
ENDMDL
MODEL 3
REMARK VINA RESULT:      -7.4      0.368      1.436
REMARK  Name = 
REMARK  9 active torsions:
REMARK  status: ('A' for Active; 'I' for Inactive)
REMARK    1  A    between atoms: C_1  and  C_2
REMARK    2  A    between atoms: C_5  and  S_6
REMARK    3  A    between atoms: S_6  and  N_9
REMARK    4  A    between atoms: C_13  and  C_15
REMARK    5  A    between atoms: C_15  and  N_16
REMARK    6  A    between atoms: C_18  and  C_19
REMARK    7  A    between atoms: C_20  and  N_21
REMARK    8  A    between atoms: C_24  and  C_25
REMARK    9  A    between atoms: C_28  and  C_29
REMARK                            x       y       z     vdW  Elec       q    Type
REMARK                         _______ _______ _______ _____ _____    ______ ____
ROOT
ATOM      1  N   UNL     1      -1.003  10.634  19.268  0.00  0.00    +0.000 NA
ATOM      2  C   UNL     1      -0.534   9.902  18.070  0.00  0.00    +0.000 C 
ATOM      3  C   UNL     1       0.983   9.764  18.112  0.00  0.00    +0.000 C 
ATOM      4  N   UNL     1       1.339   8.942  19.266  0.00  0.00    +0.000 N 
ATOM      5  C   UNL     1       2.167   7.854  19.061  0.00  0.00    +0.000 C 
ATOM      6  O   UNL     1       2.677   7.644  17.953  0.00  0.00    +0.000 OA
ATOM      7  C   UNL     1       0.925   9.520  20.555  0.00  0.00    +0.000 C 
ATOM      8  C   UNL     1      -0.512  10.105  20.573  0.00  0.00    +0.000 C 
ENDROOT
BRANCH   1   9
ATOM      9  S   UNL     1      -1.321  12.285  19.074  0.00  0.00    +0.000 S 
ATOM     10  O   UNL     1      -1.408  12.532  17.649  0.00  0.00    +0.000 OA
ATOM     11  O   UNL     1      -0.428  13.059  19.911  0.00  0.00    +0.000 OA
BRANCH   9  16
ATOM     12  C   UNL     1      -6.968  12.342  21.411  0.00  0.00    +0.000 C 
ATOM     13  C   UNL     1      -5.588  12.384  20.820  0.00  0.00    +0.000 A 
ATOM     14  C   UNL     1      -5.361  12.073  19.475  0.00  0.00    +0.000 A 
ATOM     15  C   UNL     1      -4.064  12.086  18.957  0.00  0.00    +0.000 A 
ATOM     16  C   UNL     1      -2.970  12.408  19.779  0.00  0.00    +0.000 A 
ATOM     17  C   UNL     1      -3.178  12.756  21.129  0.00  0.00    +0.000 A 
ATOM     18  C   UNL     1      -2.101  13.146  22.100  0.00  0.00    +0.000 C 
ATOM     19  C   UNL     1      -4.496  12.733  21.625  0.00  0.00    +0.000 A 
ENDBRANCH   9  16
ENDBRANCH   1   9
BRANCH   5  20
ATOM     20  C   UNL     1       2.453   6.879  20.174  0.00  0.00    +0.000 C 
BRANCH  20  21
ATOM     21  N   UNL     1       2.548   5.490  19.744  0.00  0.00    +0.000 N 
ATOM     22  N   UNL     1       1.401   4.779  19.727  0.00  0.00    +0.000 NA
ATOM     23  C   UNL     1       1.777   3.521  19.472  0.00  0.00    +0.000 A 
ATOM     24  C   UNL     1       0.747   2.451  19.422  0.00  0.00    +0.000 C 
ATOM     25  C   UNL     1       3.181   3.427  19.295  0.00  0.00    +0.000 A 
ATOM     26  C   UNL     1       3.662   4.721  19.473  0.00  0.00    +0.000 A 
ATOM     27  C   UNL     1       5.055   5.252  19.440  0.00  0.00    +0.000 C 
BRANCH  25  28
ATOM     28  N   UNL     1       3.935   2.231  19.010  0.00  0.00    +0.000 N 
ATOM     29  O   UNL     1       3.760   1.702  17.906  0.00  0.00    +0.000 OA
ATOM     30  O   UNL     1       4.708   1.814  19.883  0.00  0.00    +0.000 OA
ENDBRANCH  25  28
ENDBRANCH  20  21
ENDBRANCH   5  20
TORSDOF 5
ENDMDL
MODEL 4
REMARK VINA RESULT:      -7.3      3.339     10.372
REMARK  Name = 
REMARK  9 active torsions:
REMARK  status: ('A' for Active; 'I' for Inactive)
REMARK    1  A    between atoms: C_1  and  C_2
REMARK    2  A    between atoms: C_5  and  S_6
REMARK    3  A    between atoms: S_6  and  N_9
REMARK    4  A    between atoms: C_13  and  C_15
REMARK    5  A    between atoms: C_15  and  N_16
REMARK    6  A    between atoms: C_18  and  C_19
REMARK    7  A    between atoms: C_20  and  N_21
REMARK    8  A    between atoms: C_24  and  C_25
REMARK    9  A    between atoms: C_28  and  C_29
REMARK                            x       y       z     vdW  Elec       q    Type
REMARK                         _______ _______ _______ _____ _____    ______ ____
ROOT
ATOM      1  N   UNL     1       4.226   5.399  18.875  0.00  0.00    +0.000 NA
ATOM      2  C   UNL     1       4.256   6.527  17.919  0.00  0.00    +0.000 C 
ATOM      3  C   UNL     1       2.835   6.979  17.610  0.00  0.00    +0.000 C 
ATOM      4  N   UNL     1       2.237   7.494  18.840  0.00  0.00    +0.000 N 
ATOM      5  C   UNL     1       1.661   8.750  18.810  0.00  0.00    +0.000 C 
ATOM      6  O   UNL     1       1.558   9.377  17.747  0.00  0.00    +0.000 OA
ATOM      7  C   UNL     1       2.145   6.494  19.917  0.00  0.00    +0.000 C 
ATOM      8  C   UNL     1       3.417   5.626  20.107  0.00  0.00    +0.000 C 
ENDROOT
BRANCH   1   9
ATOM      9  S   UNL     1       4.379   3.844  18.221  0.00  0.00    +0.000 S 
ATOM     10  O   UNL     1       3.065   3.454  17.755  0.00  0.00    +0.000 OA
ATOM     11  O   UNL     1       5.128   3.001  19.129  0.00  0.00    +0.000 OA
BRANCH   9  16
ATOM     12  C   UNL     1       7.690   5.210  13.269  0.00  0.00    +0.000 C 
ATOM     13  C   UNL     1       6.895   4.818  14.481  0.00  0.00    +0.000 A 
ATOM     14  C   UNL     1       5.594   4.317  14.371  0.00  0.00    +0.000 A 
ATOM     15  C   UNL     1       4.863   3.993  15.516  0.00  0.00    +0.000 A 
ATOM     16  C   UNL     1       5.422   4.168  16.793  0.00  0.00    +0.000 A 
ATOM     17  C   UNL     1       6.743   4.642  16.928  0.00  0.00    +0.000 A 
ATOM     18  C   UNL     1       7.462   4.844  18.231  0.00  0.00    +0.000 C 
ATOM     19  C   UNL     1       7.457   4.962  15.757  0.00  0.00    +0.000 A 
ENDBRANCH   9  16
ENDBRANCH   1   9
BRANCH   5  20
ATOM     20  C   UNL     1       1.161   9.403  20.073  0.00  0.00    +0.000 C 
BRANCH  20  21
ATOM     21  N   UNL     1       0.267  10.532  19.850  0.00  0.00    +0.000 N 
ATOM     22  N   UNL     1      -0.929  10.259  19.289  0.00  0.00    +0.000 NA
ATOM     23  C   UNL     1      -1.473  11.454  19.036  0.00  0.00    +0.000 A 
ATOM     24  C   UNL     1      -2.801  11.522  18.371  0.00  0.00    +0.000 C 
ATOM     25  C   UNL     1      -0.629  12.509  19.466  0.00  0.00    +0.000 A 
ATOM     26  C   UNL     1       0.497  11.886  19.997  0.00  0.00    +0.000 A 
ATOM     27  C   UNL     1       1.743  12.463  20.577  0.00  0.00    +0.000 C 
BRANCH  25  28
ATOM     28  N   UNL     1      -0.890  13.923  19.353  0.00  0.00    +0.000 N 
ATOM     29  O   UNL     1      -0.356  14.523  18.414  0.00  0.00    +0.000 OA
ATOM     30  O   UNL     1      -1.631  14.442  20.199  0.00  0.00    +0.000 OA
ENDBRANCH  25  28
ENDBRANCH  20  21
ENDBRANCH   5  20
TORSDOF 5
ENDMDL
MODEL 5
REMARK VINA RESULT:      -7.3      3.430     10.228
REMARK  Name = 
REMARK  9 active torsions:
REMARK  status: ('A' for Active; 'I' for Inactive)
REMARK    1  A    between atoms: C_1  and  C_2
REMARK    2  A    between atoms: C_5  and  S_6
REMARK    3  A    between atoms: S_6  and  N_9
REMARK    4  A    between atoms: C_13  and  C_15
REMARK    5  A    between atoms: C_15  and  N_16
REMARK    6  A    between atoms: C_18  and  C_19
REMARK    7  A    between atoms: C_20  and  N_21
REMARK    8  A    between atoms: C_24  and  C_25
REMARK    9  A    between atoms: C_28  and  C_29
REMARK                            x       y       z     vdW  Elec       q    Type
REMARK                         _______ _______ _______ _____ _____    ______ ____
ROOT
ATOM      1  N   UNL     1       3.206   4.977  17.888  0.00  0.00    +0.000 NA
ATOM      2  C   UNL     1       2.082   4.954  18.849  0.00  0.00    +0.000 C 
ATOM      3  C   UNL     1       2.342   5.951  19.971  0.00  0.00    +0.000 C 
ATOM      4  N   UNL     1       2.369   7.294  19.397  0.00  0.00    +0.000 N 
ATOM      5  C   UNL     1       1.566   8.264  19.968  0.00  0.00    +0.000 C 
ATOM      6  O   UNL     1       0.923   8.030  21.000  0.00  0.00    +0.000 OA
ATOM      7  C   UNL     1       3.431   7.489  18.395  0.00  0.00    +0.000 C 
ATOM      8  C   UNL     1       3.584   6.327  17.378  0.00  0.00    +0.000 C 
ENDROOT
BRANCH   1   9
ATOM      9  S   UNL     1       4.374   3.763  18.055  0.00  0.00    +0.000 S 
ATOM     10  O   UNL     1       3.707   2.502  17.806  0.00  0.00    +0.000 OA
ATOM     11  O   UNL     1       5.135   3.978  19.268  0.00  0.00    +0.000 OA
BRANCH   9  16
ATOM     12  C   UNL     1       7.780   5.212  13.191  0.00  0.00    +0.000 C 
ATOM     13  C   UNL     1       6.971   4.803  14.388  0.00  0.00    +0.000 A 
ATOM     14  C   UNL     1       5.767   4.103  14.251  0.00  0.00    +0.000 A 
ATOM     15  C   UNL     1       5.015   3.765  15.378  0.00  0.00    +0.000 A 
ATOM     16  C   UNL     1       5.454   4.126  16.663  0.00  0.00    +0.000 A 
ATOM     17  C   UNL     1       6.679   4.803  16.829  0.00  0.00    +0.000 A 
ATOM     18  C   UNL     1       7.270   5.216  18.146  0.00  0.00    +0.000 C 
ATOM     19  C   UNL     1       7.417   5.132  15.675  0.00  0.00    +0.000 A 
ENDBRANCH   9  16
ENDBRANCH   1   9
BRANCH   5  20
ATOM     20  C   UNL     1       1.431   9.626  19.337  0.00  0.00    +0.000 C 
BRANCH  20  21
ATOM     21  N   UNL     1       0.064   9.993  18.991  0.00  0.00    +0.000 N 
ATOM     22  N   UNL     1      -0.370   9.635  17.764  0.00  0.00    +0.000 NA
ATOM     23  C   UNL     1      -1.561  10.226  17.632  0.00  0.00    +0.000 A 
ATOM     24  C   UNL     1      -2.313  10.070  16.359  0.00  0.00    +0.000 C 
ATOM     25  C   UNL     1      -1.912  10.951  18.799  0.00  0.00    +0.000 A 
ATOM     26  C   UNL     1      -0.841  10.782  19.673  0.00  0.00    +0.000 A 
ATOM     27  C   UNL     1      -0.610  11.325  21.041  0.00  0.00    +0.000 C 
BRANCH  25  28
ATOM     28  N   UNL     1      -3.119  11.711  19.012  0.00  0.00    +0.000 N 
ATOM     29  O   UNL     1      -3.008  12.800  19.586  0.00  0.00    +0.000 OA
ATOM     30  O   UNL     1      -4.184  11.229  18.605  0.00  0.00    +0.000 OA
ENDBRANCH  25  28
ENDBRANCH  20  21
ENDBRANCH   5  20
TORSDOF 5
ENDMDL
MODEL 6
REMARK VINA RESULT:      -7.3      3.393     10.109
REMARK  Name = 
REMARK  9 active torsions:
REMARK  status: ('A' for Active; 'I' for Inactive)
REMARK    1  A    between atoms: C_1  and  C_2
REMARK    2  A    between atoms: C_5  and  S_6
REMARK    3  A    between atoms: S_6  and  N_9
REMARK    4  A    between atoms: C_13  and  C_15
REMARK    5  A    between atoms: C_15  and  N_16
REMARK    6  A    between atoms: C_18  and  C_19
REMARK    7  A    between atoms: C_20  and  N_21
REMARK    8  A    between atoms: C_24  and  C_25
REMARK    9  A    between atoms: C_28  and  C_29
REMARK                            x       y       z     vdW  Elec       q    Type
REMARK                         _______ _______ _______ _____ _____    ______ ____
ROOT
ATOM      1  N   UNL     1       3.205   5.748  18.312  0.00  0.00    +0.000 NA
ATOM      2  C   UNL     1       2.083   5.783  19.276  0.00  0.00    +0.000 C 
ATOM      3  C   UNL     1       2.155   7.059  20.105  0.00  0.00    +0.000 C 
ATOM      4  N   UNL     1       1.969   8.200  19.212  0.00  0.00    +0.000 N 
ATOM      5  C   UNL     1       1.007   9.136  19.540  0.00  0.00    +0.000 C 
ATOM      6  O   UNL     1       0.393   9.066  20.614  0.00  0.00    +0.000 OA
ATOM      7  C   UNL     1       3.001   8.308  18.167  0.00  0.00    +0.000 C 
ATOM      8  C   UNL     1       3.363   6.969  17.471  0.00  0.00    +0.000 C 
ENDROOT
BRANCH   1   9
ATOM      9  S   UNL     1       4.554   4.825  18.750  0.00  0.00    +0.000 S 
ATOM     10  O   UNL     1       4.074   3.489  19.037  0.00  0.00    +0.000 OA
ATOM     11  O   UNL     1       5.356   5.552  19.712  0.00  0.00    +0.000 OA
BRANCH   9  16
ATOM     12  C   UNL     1       7.369   4.859  13.325  0.00  0.00    +0.000 C 
ATOM     13  C   UNL     1       6.707   4.801  14.671  0.00  0.00    +0.000 A 
ATOM     14  C   UNL     1       5.523   4.083  14.872  0.00  0.00    +0.000 A 
ATOM     15  C   UNL     1       4.908   4.073  16.125  0.00  0.00    +0.000 A 
ATOM     16  C   UNL     1       5.466   4.785  17.200  0.00  0.00    +0.000 A 
ATOM     17  C   UNL     1       6.676   5.489  17.031  0.00  0.00    +0.000 A 
ATOM     18  C   UNL     1       7.387   6.262  18.104  0.00  0.00    +0.000 C 
ATOM     19  C   UNL     1       7.274   5.484  15.756  0.00  0.00    +0.000 A 
ENDBRANCH   9  16
ENDBRANCH   1   9
BRANCH   5  20
ATOM     20  C   UNL     1       0.659  10.254  18.591  0.00  0.00    +0.000 C 
BRANCH  20  21
ATOM     21  N   UNL     1      -0.739  10.278  18.181  0.00  0.00    +0.000 N 
ATOM     22  N   UNL     1      -1.046   9.648  17.028  0.00  0.00    +0.000 NA
ATOM     23  C   UNL     1      -2.324   9.959  16.792  0.00  0.00    +0.000 A 
ATOM     24  C   UNL     1      -2.980   9.453  15.559  0.00  0.00    +0.000 C 
ATOM     25  C   UNL     1      -2.856  10.777  17.821  0.00  0.00    +0.000 A 
ATOM     26  C   UNL     1      -1.808  10.969  18.717  0.00  0.00    +0.000 A 
ATOM     27  C   UNL     1      -1.741  11.761  19.979  0.00  0.00    +0.000 C 
BRANCH  25  28
ATOM     28  N   UNL     1      -4.197  11.304  17.898  0.00  0.00    +0.000 N 
ATOM     29  O   UNL     1      -4.503  12.189  17.091  0.00  0.00    +0.000 OA
ATOM     30  O   UNL     1      -4.952  10.838  18.761  0.00  0.00    +0.000 OA
ENDBRANCH  25  28
ENDBRANCH  20  21
ENDBRANCH   5  20
TORSDOF 5
ENDMDL
MODEL 7
REMARK VINA RESULT:      -7.3      1.059      2.200
REMARK  Name = 
REMARK  9 active torsions:
REMARK  status: ('A' for Active; 'I' for Inactive)
REMARK    1  A    between atoms: C_1  and  C_2
REMARK    2  A    between atoms: C_5  and  S_6
REMARK    3  A    between atoms: S_6  and  N_9
REMARK    4  A    between atoms: C_13  and  C_15
REMARK    5  A    between atoms: C_15  and  N_16
REMARK    6  A    between atoms: C_18  and  C_19
REMARK    7  A    between atoms: C_20  and  N_21
REMARK    8  A    between atoms: C_24  and  C_25
REMARK    9  A    between atoms: C_28  and  C_29
REMARK                            x       y       z     vdW  Elec       q    Type
REMARK                         _______ _______ _______ _____ _____    ______ ____
ROOT
ATOM      1  N   UNL     1      -0.929  10.818  20.191  0.00  0.00    +0.000 NA
ATOM      2  C   UNL     1      -0.704  10.149  18.890  0.00  0.00    +0.000 C 
ATOM      3  C   UNL     1       0.786   9.909  18.685  0.00  0.00    +0.000 C 
ATOM      4  N   UNL     1       1.249   8.980  19.713  0.00  0.00    +0.000 N 
ATOM      5  C   UNL     1       1.950   7.859  19.312  0.00  0.00    +0.000 C 
ATOM      6  O   UNL     1       2.270   7.699  18.126  0.00  0.00    +0.000 OA
ATOM      7  C   UNL     1       1.081   9.486  21.086  0.00  0.00    +0.000 C 
ATOM      8  C   UNL     1      -0.287  10.161  21.366  0.00  0.00    +0.000 C 
ENDROOT
BRANCH   1   9
ATOM      9  S   UNL     1      -1.145  12.496  20.155  0.00  0.00    +0.000 S 
ATOM     10  O   UNL     1      -1.092  12.897  18.765  0.00  0.00    +0.000 OA
ATOM     11  O   UNL     1      -0.292  13.123  21.144  0.00  0.00    +0.000 OA
BRANCH   9  16
ATOM     12  C   UNL     1      -6.981  12.660  21.962  0.00  0.00    +0.000 C 
ATOM     13  C   UNL     1      -5.548  12.679  21.514  0.00  0.00    +0.000 A 
ATOM     14  C   UNL     1      -5.206  12.664  20.158  0.00  0.00    +0.000 A 
ATOM     15  C   UNL     1      -3.866  12.647  19.768  0.00  0.00    +0.000 A 
ATOM     16  C   UNL     1      -2.842  12.641  20.731  0.00  0.00    +0.000 A 
ATOM     17  C   UNL     1      -3.161  12.689  22.103  0.00  0.00    +0.000 A 
ATOM     18  C   UNL     1      -2.163  12.718  23.225  0.00  0.00    +0.000 C 
ATOM     19  C   UNL     1      -4.521  12.705  22.468  0.00  0.00    +0.000 A 
ENDBRANCH   9  16
ENDBRANCH   1   9
BRANCH   5  20
ATOM     20  C   UNL     1       2.327   6.787  20.302  0.00  0.00    +0.000 C 
BRANCH  20  21
ATOM     21  N   UNL     1       2.865   5.575  19.696  0.00  0.00    +0.000 N 
ATOM     22  N   UNL     1       4.071   5.678  19.098  0.00  0.00    +0.000 NA
ATOM     23  C   UNL     1       4.254   4.504  18.485  0.00  0.00    +0.000 A 
ATOM     24  C   UNL     1       5.487   4.288  17.684  0.00  0.00    +0.000 C 
ATOM     25  C   UNL     1       3.166   3.624  18.715  0.00  0.00    +0.000 A 
ATOM     26  C   UNL     1       2.275   4.341  19.509  0.00  0.00    +0.000 A 
ATOM     27  C   UNL     1       0.938   3.964  20.051  0.00  0.00    +0.000 C 
BRANCH  25  28
ATOM     28  N   UNL     1       3.022   2.281  18.209  0.00  0.00    +0.000 N 
ATOM     29  O   UNL     1       3.713   1.401  18.736  0.00  0.00    +0.000 OA
ATOM     30  O   UNL     1       2.218   2.095  17.287  0.00  0.00    +0.000 OA
ENDBRANCH  25  28
ENDBRANCH  20  21
ENDBRANCH   5  20
TORSDOF 5
ENDMDL
MODEL 8
REMARK VINA RESULT:      -7.2      3.316     10.325
REMARK  Name = 
REMARK  9 active torsions:
REMARK  status: ('A' for Active; 'I' for Inactive)
REMARK    1  A    between atoms: C_1  and  C_2
REMARK    2  A    between atoms: C_5  and  S_6
REMARK    3  A    between atoms: S_6  and  N_9
REMARK    4  A    between atoms: C_13  and  C_15
REMARK    5  A    between atoms: C_15  and  N_16
REMARK    6  A    between atoms: C_18  and  C_19
REMARK    7  A    between atoms: C_20  and  N_21
REMARK    8  A    between atoms: C_24  and  C_25
REMARK    9  A    between atoms: C_28  and  C_29
REMARK                            x       y       z     vdW  Elec       q    Type
REMARK                         _______ _______ _______ _____ _____    ______ ____
ROOT
ATOM      1  N   UNL     1       4.277   5.478  18.842  0.00  0.00    +0.000 NA
ATOM      2  C   UNL     1       4.395   6.588  17.870  0.00  0.00    +0.000 C 
ATOM      3  C   UNL     1       3.007   7.069  17.466  0.00  0.00    +0.000 C 
ATOM      4  N   UNL     1       2.349   7.621  18.647  0.00  0.00    +0.000 N 
ATOM      5  C   UNL     1       1.808   8.890  18.559  0.00  0.00    +0.000 C 
ATOM      6  O   UNL     1       1.787   9.499  17.482  0.00  0.00    +0.000 OA
ATOM      7  C   UNL     1       2.165   6.644  19.734  0.00  0.00    +0.000 C 
ATOM      8  C   UNL     1       3.400   5.749  20.017  0.00  0.00    +0.000 C 
ENDROOT
BRANCH   1   9
ATOM      9  S   UNL     1       4.430   3.909  18.226  0.00  0.00    +0.000 S 
ATOM     10  O   UNL     1       3.112   3.502  17.783  0.00  0.00    +0.000 OA
ATOM     11  O   UNL     1       5.193   3.092  19.146  0.00  0.00    +0.000 OA
BRANCH   9  16
ATOM     12  C   UNL     1       7.691   5.175  13.214  0.00  0.00    +0.000 C 
ATOM     13  C   UNL     1       6.907   4.807  14.440  0.00  0.00    +0.000 A 
ATOM     14  C   UNL     1       5.587   4.351  14.354  0.00  0.00    +0.000 A 
ATOM     15  C   UNL     1       4.868   4.048  15.512  0.00  0.00    +0.000 A 
ATOM     16  C   UNL     1       5.456   4.201  16.779  0.00  0.00    +0.000 A 
ATOM     17  C   UNL     1       6.794   4.630  16.890  0.00  0.00    +0.000 A 
ATOM     18  C   UNL     1       7.545   4.804  18.179  0.00  0.00    +0.000 C 
ATOM     19  C   UNL     1       7.496   4.929  15.706  0.00  0.00    +0.000 A 
ENDBRANCH   9  16
ENDBRANCH   1   9
BRANCH   5  20
ATOM     20  C   UNL     1       1.248   9.579  19.778  0.00  0.00    +0.000 C 
BRANCH  20  21
ATOM     21  N   UNL     1      -0.007  10.281  19.545  0.00  0.00    +0.000 N 
ATOM     22  N   UNL     1      -0.540  10.182  18.309  0.00  0.00    +0.000 NA
ATOM     23  C   UNL     1      -1.568  11.036  18.306  0.00  0.00    +0.000 A 
ATOM     24  C   UNL     1      -2.365  11.208  17.063  0.00  0.00    +0.000 C 
ATOM     25  C   UNL     1      -1.717  11.672  19.564  0.00  0.00    +0.000 A 
ATOM     26  C   UNL     1      -0.693  11.163  20.358  0.00  0.00    +0.000 A 
ATOM     27  C   UNL     1      -0.312  11.469  21.766  0.00  0.00    +0.000 C 
BRANCH  25  28
ATOM     28  N   UNL     1      -2.714  12.651  19.923  0.00  0.00    +0.000 N 
ATOM     29  O   UNL     1      -2.316  13.788  20.200  0.00  0.00    +0.000 OA
ATOM     30  O   UNL     1      -3.899  12.293  19.928  0.00  0.00    +0.000 OA
ENDBRANCH  25  28
ENDBRANCH  20  21
ENDBRANCH   5  20
TORSDOF 5
ENDMDL
MODEL 9
REMARK VINA RESULT:      -7.2      3.401     10.397
REMARK  Name = 
REMARK  9 active torsions:
REMARK  status: ('A' for Active; 'I' for Inactive)
REMARK    1  A    between atoms: C_1  and  C_2
REMARK    2  A    between atoms: C_5  and  S_6
REMARK    3  A    between atoms: S_6  and  N_9
REMARK    4  A    between atoms: C_13  and  C_15
REMARK    5  A    between atoms: C_15  and  N_16
REMARK    6  A    between atoms: C_18  and  C_19
REMARK    7  A    between atoms: C_20  and  N_21
REMARK    8  A    between atoms: C_24  and  C_25
REMARK    9  A    between atoms: C_28  and  C_29
REMARK                            x       y       z     vdW  Elec       q    Type
REMARK                         _______ _______ _______ _____ _____    ______ ____
ROOT
ATOM      1  N   UNL     1       3.331   5.198  17.939  0.00  0.00    +0.000 NA
ATOM      2  C   UNL     1       2.239   5.226  18.937  0.00  0.00    +0.000 C 
ATOM      3  C   UNL     1       2.441   6.396  19.891  0.00  0.00    +0.000 C 
ATOM      4  N   UNL     1       2.335   7.637  19.127  0.00  0.00    +0.000 N 
ATOM      5  C   UNL     1       1.466   8.610  19.582  0.00  0.00    +0.000 C 
ATOM      6  O   UNL     1       0.874   8.480  20.661  0.00  0.00    +0.000 OA
ATOM      7  C   UNL     1       3.348   7.767  18.066  0.00  0.00    +0.000 C 
ATOM      8  C   UNL     1       3.575   6.484  17.224  0.00  0.00    +0.000 C 
ENDROOT
BRANCH   1   9
ATOM      9  S   UNL     1       4.604   4.123  18.235  0.00  0.00    +0.000 S 
ATOM     10  O   UNL     1       4.039   2.790  18.227  0.00  0.00    +0.000 OA
ATOM     11  O   UNL     1       5.393   4.592  19.356  0.00  0.00    +0.000 OA
BRANCH   9  16
ATOM     12  C   UNL     1       7.696   5.063  13.047  0.00  0.00    +0.000 C 
ATOM     13  C   UNL     1       6.962   4.779  14.326  0.00  0.00    +0.000 A 
ATOM     14  C   UNL     1       5.733   4.111  14.330  0.00  0.00    +0.000 A 
ATOM     15  C   UNL     1       5.054   3.889  15.529  0.00  0.00    +0.000 A 
ATOM     16  C   UNL     1       5.592   4.337  16.748  0.00  0.00    +0.000 A 
ATOM     17  C   UNL     1       6.844   4.984  16.773  0.00  0.00    +0.000 A 
ATOM     18  C   UNL     1       7.539   5.481  18.008  0.00  0.00    +0.000 C 
ATOM     19  C   UNL     1       7.507   5.195  15.548  0.00  0.00    +0.000 A 
ENDBRANCH   9  16
ENDBRANCH   1   9
BRANCH   5  20
ATOM     20  C   UNL     1       1.195   9.848  18.765  0.00  0.00    +0.000 C 
BRANCH  20  21
ATOM     21  N   UNL     1      -0.045  10.532  19.108  0.00  0.00    +0.000 N 
ATOM     22  N   UNL     1      -1.108  10.303  18.308  0.00  0.00    +0.000 NA
ATOM     23  C   UNL     1      -2.045  11.162  18.723  0.00  0.00    +0.000 A 
ATOM     24  C   UNL     1      -3.353  11.204  18.020  0.00  0.00    +0.000 C 
ATOM     25  C   UNL     1      -1.590  11.933  19.822  0.00  0.00    +0.000 A 
ATOM     26  C   UNL     1      -0.287  11.505  20.059  0.00  0.00    +0.000 A 
ATOM     27  C   UNL     1       0.719  11.960  21.061  0.00  0.00    +0.000 C 
BRANCH  25  28
ATOM     28  N   UNL     1      -2.329  12.955  20.523  0.00  0.00    +0.000 N 
ATOM     29  O   UNL     1      -2.030  14.131  20.287  0.00  0.00    +0.000 OA
ATOM     30  O   UNL     1      -3.212  12.591  21.310  0.00  0.00    +0.000 OA
ENDBRANCH  25  28
ENDBRANCH  20  21
ENDBRANCH   5  20
TORSDOF 5
ENDMDL
