MODEL 1
REMARK VINA RESULT:      -8.5      0.000      0.000
REMARK  Name = 
REMARK  6 active torsions:
REMARK  status: ('A' for Active; 'I' for Inactive)
REMARK    1  A    between atoms: C_1  and  O_2
REMARK    2  A    between atoms: O_2  and  C_3
REMARK    3  A    between atoms: C_7  and  N_8
REMARK    4  A    between atoms: C_9  and  C_11
REMARK    5  A    between atoms: C_11  and  C_12
REMARK    6  A    between atoms: C_12  and  N_13
REMARK                            x       y       z     vdW  Elec       q    Type
REMARK                         _______ _______ _______ _____ _____    ______ ____
ROOT
ATOM      1  C   UNL     1       6.364   5.337  18.276  0.00  0.00    +0.000 C 
ENDROOT
BRANCH   1   3
ATOM      2  N   UNL     1       6.161   5.085  15.853  0.00  0.00    +0.000 N 
ATOM      3  C   UNL     1       6.956   4.848  16.957  0.00  0.00    +0.000 C 
ATOM      4  O   UNL     1       8.035   4.265  16.939  0.00  0.00    +0.000 OA
ATOM      5  H   UNL     1       5.212   5.399  16.014  0.00  0.00    +0.000 HD
BRANCH   2  10
ATOM      6  C   UNL     1       6.071   3.522  12.489  0.00  0.00    +0.000 A 
ATOM      7  C   UNL     1       7.169   4.121  11.869  0.00  0.00    +0.000 A 
ATOM      8  C   UNL     1       7.928   5.068  12.547  0.00  0.00    +0.000 A 
ATOM      9  C   UNL     1       7.604   5.406  13.862  0.00  0.00    +0.000 A 
ATOM     10  C   UNL     1       6.520   4.803  14.510  0.00  0.00    +0.000 A 
ATOM     11  C   UNL     1       5.739   3.877  13.802  0.00  0.00    +0.000 A 
BRANCH   6  13
ATOM     12  C   UNL     1       4.145   2.974  11.205  0.00  0.00    +0.000 C 
ATOM     13  O   UNL     1       5.419   2.603  11.712  0.00  0.00    +0.000 OA
ENDBRANCH   6  13
ENDBRANCH   2  10
ENDBRANCH   1   3
BRANCH   1  14
ATOM     14  C   UNL     1       4.990   5.917  17.950  0.00  0.00    +0.000 C 
BRANCH  14  15
ATOM     15  N   UNL     1       3.836   5.160  18.397  0.00  0.00    +0.000 N 
ATOM     16  C   UNL     1       2.938   5.641  19.304  0.00  0.00    +0.000 C 
ATOM     17  O   UNL     1       3.113   6.587  20.057  0.00  0.00    +0.000 OA
ATOM     18  C   UNL     1       1.644   4.868  19.175  0.00  0.00    +0.000 C 
ATOM     19  C   UNL     1       1.091   4.430  20.528  0.00  0.00    +0.000 C 
ATOM     20  C   UNL     1       1.065   2.959  20.774  0.00  0.00    +0.000 C 
ATOM     21  C   UNL     1       1.293   2.036  19.835  0.00  0.00    +0.000 C 
ATOM     22  C   UNL     1       1.607   2.351  18.411  0.00  0.00    +0.000 C 
ATOM     23  C   UNL     1       1.950   3.806  18.118  0.00  0.00    +0.000 C 
ATOM     24  C   UNL     1       3.410   4.017  17.785  0.00  0.00    +0.000 C 
ATOM     25  O   UNL     1       4.065   3.324  17.020  0.00  0.00    +0.000 OA
ENDBRANCH  14  15
ENDBRANCH   1  14
TORSDOF 5
ENDMDL
MODEL 2
REMARK VINA RESULT:      -8.4      1.401      1.589
REMARK  Name = 
REMARK  6 active torsions:
REMARK  status: ('A' for Active; 'I' for Inactive)
REMARK    1  A    between atoms: C_1  and  O_2
REMARK    2  A    between atoms: O_2  and  C_3
REMARK    3  A    between atoms: C_7  and  N_8
REMARK    4  A    between atoms: C_9  and  C_11
REMARK    5  A    between atoms: C_11  and  C_12
REMARK    6  A    between atoms: C_12  and  N_13
REMARK                            x       y       z     vdW  Elec       q    Type
REMARK                         _______ _______ _______ _____ _____    ______ ____
ROOT
ATOM      1  C   UNL     1       7.097   5.378  18.345  0.00  0.00    +0.000 C 
ENDROOT
BRANCH   1   3
ATOM      2  N   UNL     1       7.346   4.619  16.034  0.00  0.00    +0.000 N 
ATOM      3  C   UNL     1       6.924   5.648  16.853  0.00  0.00    +0.000 C 
ATOM      4  O   UNL     1       6.476   6.722  16.464  0.00  0.00    +0.000 OA
ATOM      5  H   UNL     1       7.872   3.865  16.458  0.00  0.00    +0.000 HD
BRANCH   2  10
ATOM      6  C   UNL     1       6.168   3.573  12.675  0.00  0.00    +0.000 A 
ATOM      7  C   UNL     1       6.917   4.404  11.840  0.00  0.00    +0.000 A 
ATOM      8  C   UNL     1       7.794   5.337  12.382  0.00  0.00    +0.000 A 
ATOM      9  C   UNL     1       7.943   5.429  13.767  0.00  0.00    +0.000 A 
ATOM     10  C   UNL     1       7.217   4.591  14.622  0.00  0.00    +0.000 A 
ATOM     11  C   UNL     1       6.307   3.680  14.064  0.00  0.00    +0.000 A 
BRANCH   6  13
ATOM     12  C   UNL     1       4.201   3.239  11.379  0.00  0.00    +0.000 C 
ATOM     13  O   UNL     1       5.352   2.697  12.011  0.00  0.00    +0.000 OA
ENDBRANCH   6  13
ENDBRANCH   2  10
ENDBRANCH   1   3
BRANCH   1  14
ATOM     14  C   UNL     1       5.772   5.743  19.011  0.00  0.00    +0.000 C 
BRANCH  14  15
ATOM     15  N   UNL     1       4.640   4.881  18.734  0.00  0.00    +0.000 N 
ATOM     16  C   UNL     1       3.576   5.272  17.974  0.00  0.00    +0.000 C 
ATOM     17  O   UNL     1       3.285   6.423  17.683  0.00  0.00    +0.000 OA
ATOM     18  C   UNL     1       2.851   4.045  17.470  0.00  0.00    +0.000 C 
ATOM     19  C   UNL     1       1.339   4.149  17.648  0.00  0.00    +0.000 C 
ATOM     20  C   UNL     1       0.730   3.186  18.611  0.00  0.00    +0.000 C 
ATOM     21  C   UNL     1       1.377   2.145  19.143  0.00  0.00    +0.000 C 
ATOM     22  C   UNL     1       2.800   1.805  18.849  0.00  0.00    +0.000 C 
ATOM     23  C   UNL     1       3.597   2.879  18.121  0.00  0.00    +0.000 C 
ATOM     24  C   UNL     1       4.639   3.542  18.995  0.00  0.00    +0.000 C 
ATOM     25  O   UNL     1       5.409   2.954  19.740  0.00  0.00    +0.000 OA
ENDBRANCH  14  15
ENDBRANCH   1  14
TORSDOF 5
ENDMDL
MODEL 3
REMARK VINA RESULT:      -8.1      3.010      6.115
REMARK  Name = 
REMARK  6 active torsions:
REMARK  status: ('A' for Active; 'I' for Inactive)
REMARK    1  A    between atoms: C_1  and  O_2
REMARK    2  A    between atoms: O_2  and  C_3
REMARK    3  A    between atoms: C_7  and  N_8
REMARK    4  A    between atoms: C_9  and  C_11
REMARK    5  A    between atoms: C_11  and  C_12
REMARK    6  A    between atoms: C_12  and  N_13
REMARK                            x       y       z     vdW  Elec       q    Type
REMARK                         _______ _______ _______ _____ _____    ______ ____
ROOT
ATOM      1  C   UNL     1       4.877   5.183  16.139  0.00  0.00    +0.000 C 
ENDROOT
BRANCH   1   3
ATOM      2  N   UNL     1       3.116   6.309  17.407  0.00  0.00    +0.000 N 
ATOM      3  C   UNL     1       4.478   6.180  17.223  0.00  0.00    +0.000 C 
ATOM      4  O   UNL     1       5.337   6.817  17.826  0.00  0.00    +0.000 OA
ATOM      5  H   UNL     1       2.505   5.877  16.724  0.00  0.00    +0.000 HD
BRANCH   2  10
ATOM      6  C   UNL     1       1.438   9.220  18.980  0.00  0.00    +0.000 A 
ATOM      7  C   UNL     1       1.307   8.791  20.302  0.00  0.00    +0.000 A 
ATOM      8  C   UNL     1       1.743   7.526  20.676  0.00  0.00    +0.000 A 
ATOM      9  C   UNL     1       2.336   6.687  19.730  0.00  0.00    +0.000 A 
ATOM     10  C   UNL     1       2.496   7.105  18.404  0.00  0.00    +0.000 A 
ATOM     11  C   UNL     1       2.017   8.370  18.031  0.00  0.00    +0.000 A 
BRANCH   6  13
ATOM     12  C   UNL     1      -0.296  10.819  19.293  0.00  0.00    +0.000 C 
ATOM     13  O   UNL     1       0.975  10.488  18.751  0.00  0.00    +0.000 OA
ENDBRANCH   6  13
ENDBRANCH   2  10
ENDBRANCH   1   3
BRANCH   1  14
ATOM     14  C   UNL     1       5.111   3.846  16.840  0.00  0.00    +0.000 C 
BRANCH  14  15
ATOM     15  N   UNL     1       4.138   3.450  17.838  0.00  0.00    +0.000 N 
ATOM     16  C   UNL     1       2.875   3.042  17.524  0.00  0.00    +0.000 C 
ATOM     17  O   UNL     1       2.305   3.223  16.457  0.00  0.00    +0.000 OA
ATOM     18  C   UNL     1       2.310   2.247  18.680  0.00  0.00    +0.000 C 
ATOM     19  C   UNL     1       0.887   2.669  19.035  0.00  0.00    +0.000 C 
ATOM     20  C   UNL     1       0.713   3.306  20.373  0.00  0.00    +0.000 C 
ATOM     21  C   UNL     1       1.655   3.335  21.319  0.00  0.00    +0.000 C 
ATOM     22  C   UNL     1       3.013   2.736  21.168  0.00  0.00    +0.000 C 
ATOM     23  C   UNL     1       3.398   2.327  19.752  0.00  0.00    +0.000 C 
ATOM     24  C   UNL     1       4.459   3.217  19.143  0.00  0.00    +0.000 C 
ATOM     25  O   UNL     1       5.478   3.585  19.710  0.00  0.00    +0.000 OA
ENDBRANCH  14  15
ENDBRANCH   1  14
TORSDOF 5
ENDMDL
MODEL 4
REMARK VINA RESULT:      -8.0      0.892      2.026
REMARK  Name = 
REMARK  6 active torsions:
REMARK  status: ('A' for Active; 'I' for Inactive)
REMARK    1  A    between atoms: C_1  and  O_2
REMARK    2  A    between atoms: O_2  and  C_3
REMARK    3  A    between atoms: C_7  and  N_8
REMARK    4  A    between atoms: C_9  and  C_11
REMARK    5  A    between atoms: C_11  and  C_12
REMARK    6  A    between atoms: C_12  and  N_13
REMARK                            x       y       z     vdW  Elec       q    Type
REMARK                         _______ _______ _______ _____ _____    ______ ____
ROOT
ATOM      1  C   UNL     1       6.090   6.306  17.671  0.00  0.00    +0.000 C 
ENDROOT
BRANCH   1   3
ATOM      2  N   UNL     1       5.987   5.580  15.339  0.00  0.00    +0.000 N 
ATOM      3  C   UNL     1       6.703   5.517  16.518  0.00  0.00    +0.000 C 
ATOM      4  O   UNL     1       7.729   4.866  16.688  0.00  0.00    +0.000 OA
ATOM      5  H   UNL     1       5.061   5.988  15.371  0.00  0.00    +0.000 HD
BRANCH   2  10
ATOM      6  C   UNL     1       5.990   3.308  12.406  0.00  0.00    +0.000 A 
ATOM      7  C   UNL     1       7.116   3.747  11.709  0.00  0.00    +0.000 A 
ATOM      8  C   UNL     1       7.865   4.817  12.186  0.00  0.00    +0.000 A 
ATOM      9  C   UNL     1       7.501   5.442  13.380  0.00  0.00    +0.000 A 
ATOM     10  C   UNL     1       6.388   5.004  14.107  0.00  0.00    +0.000 A 
ATOM     11  C   UNL     1       5.619   3.948  13.594  0.00  0.00    +0.000 A 
BRANCH   6  13
ATOM     12  C   UNL     1       6.167   1.274  11.185  0.00  0.00    +0.000 C 
ATOM     13  O   UNL     1       5.352   2.243  11.830  0.00  0.00    +0.000 OA
ENDBRANCH   6  13
ENDBRANCH   2  10
ENDBRANCH   1   3
BRANCH   1  14
ATOM     14  C   UNL     1       4.581   6.323  17.436  0.00  0.00    +0.000 C 
BRANCH  14  15
ATOM     15  N   UNL     1       3.793   5.343  18.157  0.00  0.00    +0.000 N 
ATOM     16  C   UNL     1       3.820   4.010  17.869  0.00  0.00    +0.000 C 
ATOM     17  O   UNL     1       4.243   3.506  16.839  0.00  0.00    +0.000 OA
ATOM     18  C   UNL     1       3.319   3.235  19.067  0.00  0.00    +0.000 C 
ATOM     19  C   UNL     1       2.304   2.163  18.682  0.00  0.00    +0.000 C 
ATOM     20  C   UNL     1       0.915   2.372  19.187  0.00  0.00    +0.000 C 
ATOM     21  C   UNL     1       0.576   3.294  20.091  0.00  0.00    +0.000 C 
ATOM     22  C   UNL     1       1.538   4.245  20.720  0.00  0.00    +0.000 C 
ATOM     23  C   UNL     1       2.912   4.319  20.067  0.00  0.00    +0.000 C 
ATOM     24  C   UNL     1       3.150   5.618  19.328  0.00  0.00    +0.000 C 
ATOM     25  O   UNL     1       2.888   6.731  19.761  0.00  0.00    +0.000 OA
ENDBRANCH  14  15
ENDBRANCH   1  14
TORSDOF 5
ENDMDL
MODEL 5
REMARK VINA RESULT:      -7.9      2.696      7.445
REMARK  Name = 
REMARK  6 active torsions:
REMARK  status: ('A' for Active; 'I' for Inactive)
REMARK    1  A    between atoms: C_1  and  O_2
REMARK    2  A    between atoms: O_2  and  C_3
REMARK    3  A    between atoms: C_7  and  N_8
REMARK    4  A    between atoms: C_9  and  C_11
REMARK    5  A    between atoms: C_11  and  C_12
REMARK    6  A    between atoms: C_12  and  N_13
REMARK                            x       y       z     vdW  Elec       q    Type
REMARK                         _______ _______ _______ _____ _____    ______ ____
ROOT
ATOM      1  C   UNL     1       2.519   3.315  20.949  0.00  0.00    +0.000 C 
ENDROOT
BRANCH   1   3
ATOM      2  N   UNL     1       2.521   5.725  20.539  0.00  0.00    +0.000 N 
ATOM      3  C   UNL     1       1.781   4.561  20.467  0.00  0.00    +0.000 C 
ATOM      4  O   UNL     1       0.615   4.485  20.092  0.00  0.00    +0.000 OA
ATOM      5  H   UNL     1       3.399   5.696  21.041  0.00  0.00    +0.000 HD
BRANCH   2  10
ATOM      6  C   UNL     1       0.894   9.060  20.557  0.00  0.00    +0.000 A 
ATOM      7  C   UNL     1       1.144   9.504  19.257  0.00  0.00    +0.000 A 
ATOM      8  C   UNL     1       1.878   8.718  18.375  0.00  0.00    +0.000 A 
ATOM      9  C   UNL     1       2.349   7.470  18.785  0.00  0.00    +0.000 A 
ATOM     10  C   UNL     1       2.093   6.996  20.076  0.00  0.00    +0.000 A 
ATOM     11  C   UNL     1       1.383   7.814  20.968  0.00  0.00    +0.000 A 
BRANCH   6  13
ATOM     12  C   UNL     1      -0.037   9.589  22.681  0.00  0.00    +0.000 C 
ATOM     13  O   UNL     1       0.153   9.927  21.314  0.00  0.00    +0.000 OA
ENDBRANCH   6  13
ENDBRANCH   2  10
ENDBRANCH   1   3
BRANCH   1  14
ATOM     14  C   UNL     1       2.926   2.537  19.699  0.00  0.00    +0.000 C 
BRANCH  14  15
ATOM     15  N   UNL     1       3.791   3.219  18.756  0.00  0.00    +0.000 N 
ATOM     16  C   UNL     1       3.387   3.579  17.504  0.00  0.00    +0.000 C 
ATOM     17  O   UNL     1       2.408   3.149  16.912  0.00  0.00    +0.000 OA
ATOM     18  C   UNL     1       4.298   4.670  16.986  0.00  0.00    +0.000 C 
ATOM     19  C   UNL     1       4.758   4.412  15.554  0.00  0.00    +0.000 C 
ATOM     20  C   UNL     1       6.217   4.155  15.377  0.00  0.00    +0.000 C 
ATOM     21  C   UNL     1       7.133   4.337  16.332  0.00  0.00    +0.000 C 
ATOM     22  C   UNL     1       6.823   4.822  17.709  0.00  0.00    +0.000 C 
ATOM     23  C   UNL     1       5.347   4.831  18.087  0.00  0.00    +0.000 C 
ATOM     24  C   UNL     1       4.988   3.772  19.105  0.00  0.00    +0.000 C 
ATOM     25  O   UNL     1       5.626   3.526  20.118  0.00  0.00    +0.000 OA
ENDBRANCH  14  15
ENDBRANCH   1  14
TORSDOF 5
ENDMDL
MODEL 6
REMARK VINA RESULT:      -7.7      1.394      1.529
REMARK  Name = 
REMARK  6 active torsions:
REMARK  status: ('A' for Active; 'I' for Inactive)
REMARK    1  A    between atoms: C_1  and  O_2
REMARK    2  A    between atoms: O_2  and  C_3
REMARK    3  A    between atoms: C_7  and  N_8
REMARK    4  A    between atoms: C_9  and  C_11
REMARK    5  A    between atoms: C_11  and  C_12
REMARK    6  A    between atoms: C_12  and  N_13
REMARK                            x       y       z     vdW  Elec       q    Type
REMARK                         _______ _______ _______ _____ _____    ______ ____
ROOT
ATOM      1  C   UNL     1       6.201   5.781  17.785  0.00  0.00    +0.000 C 
ENDROOT
BRANCH   1   3
ATOM      2  N   UNL     1       6.041   5.240  15.406  0.00  0.00    +0.000 N 
ATOM      3  C   UNL     1       6.808   5.124  16.548  0.00  0.00    +0.000 C 
ATOM      4  O   UNL     1       7.875   4.521  16.626  0.00  0.00    +0.000 OA
ATOM      5  H   UNL     1       5.097   5.590  15.506  0.00  0.00    +0.000 HD
BRANCH   2  10
ATOM      6  C   UNL     1       6.038   3.222  12.292  0.00  0.00    +0.000 A 
ATOM      7  C   UNL     1       7.116   3.774  11.597  0.00  0.00    +0.000 A 
ATOM      8  C   UNL     1       7.831   4.836  12.137  0.00  0.00    +0.000 A 
ATOM      9  C   UNL     1       7.485   5.340  13.392  0.00  0.00    +0.000 A 
ATOM     10  C   UNL     1       6.421   4.789  14.116  0.00  0.00    +0.000 A 
ATOM     11  C   UNL     1       5.683   3.742  13.543  0.00  0.00    +0.000 A 
BRANCH   6  13
ATOM     12  C   UNL     1       6.271   1.153  11.142  0.00  0.00    +0.000 C 
ATOM     13  O   UNL     1       5.429   2.178  11.650  0.00  0.00    +0.000 OA
ENDBRANCH   6  13
ENDBRANCH   2  10
ENDBRANCH   1   3
BRANCH   1  14
ATOM     14  C   UNL     1       4.687   5.773  17.585  0.00  0.00    +0.000 C 
BRANCH  14  15
ATOM     15  N   UNL     1       3.922   4.862  18.414  0.00  0.00    +0.000 N 
ATOM     16  C   UNL     1       2.565   4.749  18.336  0.00  0.00    +0.000 C 
ATOM     17  O   UNL     1       1.805   5.552  17.815  0.00  0.00    +0.000 OA
ATOM     18  C   UNL     1       2.145   3.421  18.925  0.00  0.00    +0.000 C 
ATOM     19  C   UNL     1       0.964   3.556  19.881  0.00  0.00    +0.000 C 
ATOM     20  C   UNL     1       1.247   3.243  21.312  0.00  0.00    +0.000 C 
ATOM     21  C   UNL     1       2.375   2.674  21.748  0.00  0.00    +0.000 C 
ATOM     22  C   UNL     1       3.507   2.275  20.862  0.00  0.00    +0.000 C 
ATOM     23  C   UNL     1       3.451   2.813  19.438  0.00  0.00    +0.000 C 
ATOM     24  C   UNL     1       4.493   3.875  19.163  0.00  0.00    +0.000 C 
ATOM     25  O   UNL     1       5.670   3.805  19.483  0.00  0.00    +0.000 OA
ENDBRANCH  14  15
ENDBRANCH   1  14
TORSDOF 5
ENDMDL
MODEL 7
REMARK VINA RESULT:      -7.7      2.944      7.060
REMARK  Name = 
REMARK  6 active torsions:
REMARK  status: ('A' for Active; 'I' for Inactive)
REMARK    1  A    between atoms: C_1  and  O_2
REMARK    2  A    between atoms: O_2  and  C_3
REMARK    3  A    between atoms: C_7  and  N_8
REMARK    4  A    between atoms: C_9  and  C_11
REMARK    5  A    between atoms: C_11  and  C_12
REMARK    6  A    between atoms: C_12  and  N_13
REMARK                            x       y       z     vdW  Elec       q    Type
REMARK                         _______ _______ _______ _____ _____    ______ ____
ROOT
ATOM      1  C   UNL     1       2.896   3.511  20.971  0.00  0.00    +0.000 C 
ENDROOT
BRANCH   1   3
ATOM      2  N   UNL     1       2.827   5.855  20.282  0.00  0.00    +0.000 N 
ATOM      3  C   UNL     1       2.123   4.669  20.346  0.00  0.00    +0.000 C 
ATOM      4  O   UNL     1       0.962   4.514  19.981  0.00  0.00    +0.000 OA
ATOM      5  H   UNL     1       3.703   5.912  20.786  0.00  0.00    +0.000 HD
BRANCH   2  10
ATOM      6  C   UNL     1       1.084   9.109  19.902  0.00  0.00    +0.000 A 
ATOM      7  C   UNL     1       1.341   9.413  18.564  0.00  0.00    +0.000 A 
ATOM      8  C   UNL     1       2.118   8.562  17.787  0.00  0.00    +0.000 A 
ATOM      9  C   UNL     1       2.625   7.385  18.340  0.00  0.00    +0.000 A 
ATOM     10  C   UNL     1       2.363   7.050  19.674  0.00  0.00    +0.000 A 
ATOM     11  C   UNL     1       1.609   7.936  20.458  0.00  0.00    +0.000 A 
BRANCH   6  13
ATOM     12  C   UNL     1       0.865  11.310  20.777  0.00  0.00    +0.000 C 
ATOM     13  O   UNL     1       0.300  10.027  20.547  0.00  0.00    +0.000 OA
ENDBRANCH   6  13
ENDBRANCH   2  10
ENDBRANCH   1   3
BRANCH   1  14
ATOM     14  C   UNL     1       3.592   2.780  19.824  0.00  0.00    +0.000 C 
BRANCH  14  15
ATOM     15  N   UNL     1       4.289   3.600  18.852  0.00  0.00    +0.000 N 
ATOM     16  C   UNL     1       5.473   4.222  19.118  0.00  0.00    +0.000 C 
ATOM     17  O   UNL     1       5.946   4.425  20.227  0.00  0.00    +0.000 OA
ATOM     18  C   UNL     1       6.162   4.552  17.813  0.00  0.00    +0.000 C 
ATOM     19  C   UNL     1       6.696   5.981  17.782  0.00  0.00    +0.000 C 
ATOM     20  C   UNL     1       6.047   6.896  16.798  0.00  0.00    +0.000 C 
ATOM     21  C   UNL     1       5.207   6.494  15.840  0.00  0.00    +0.000 C 
ATOM     22  C   UNL     1       4.799   5.075  15.624  0.00  0.00    +0.000 C 
ATOM     23  C   UNL     1       5.163   4.108  16.743  0.00  0.00    +0.000 C 
ATOM     24  C   UNL     1       3.962   3.629  17.528  0.00  0.00    +0.000 C 
ATOM     25  O   UNL     1       2.909   3.246  17.039  0.00  0.00    +0.000 OA
ENDBRANCH  14  15
ENDBRANCH   1  14
TORSDOF 5
ENDMDL
MODEL 8
REMARK VINA RESULT:      -7.7      5.017      6.913
REMARK  Name = 
REMARK  6 active torsions:
REMARK  status: ('A' for Active; 'I' for Inactive)
REMARK    1  A    between atoms: C_1  and  O_2
REMARK    2  A    between atoms: O_2  and  C_3
REMARK    3  A    between atoms: C_7  and  N_8
REMARK    4  A    between atoms: C_9  and  C_11
REMARK    5  A    between atoms: C_11  and  C_12
REMARK    6  A    between atoms: C_12  and  N_13
REMARK                            x       y       z     vdW  Elec       q    Type
REMARK                         _______ _______ _______ _____ _____    ______ ____
ROOT
ATOM      1  C   UNL     1       6.839   7.523  17.240  0.00  0.00    +0.000 C 
ENDROOT
BRANCH   1   3
ATOM      2  N   UNL     1       8.110   9.539  17.788  0.00  0.00    +0.000 N 
ATOM      3  C   UNL     1       7.945   8.193  18.051  0.00  0.00    +0.000 C 
ATOM      4  O   UNL     1       8.627   7.536  18.831  0.00  0.00    +0.000 OA
ATOM      5  H   UNL     1       7.621   9.927  16.991  0.00  0.00    +0.000 HD
BRANCH   2  10
ATOM      6  C   UNL     1      10.623  12.218  18.313  0.00  0.00    +0.000 A 
ATOM      7  C   UNL     1      10.856  12.121  19.686  0.00  0.00    +0.000 A 
ATOM      8  C   UNL     1      10.163  11.193  20.454  0.00  0.00    +0.000 A 
ATOM      9  C   UNL     1       9.244  10.336  19.845  0.00  0.00    +0.000 A 
ATOM     10  C   UNL     1       9.009  10.401  18.466  0.00  0.00    +0.000 A 
ATOM     11  C   UNL     1       9.688  11.368  17.710  0.00  0.00    +0.000 A 
BRANCH   6  13
ATOM     12  C   UNL     1      12.333  13.863  18.467  0.00  0.00    +0.000 C 
ATOM     13  O   UNL     1      11.379  13.167  17.680  0.00  0.00    +0.000 OA
ENDBRANCH   6  13
ENDBRANCH   2  10
ENDBRANCH   1   3
BRANCH   1  14
ATOM     14  C   UNL     1       7.099   6.020  17.307  0.00  0.00    +0.000 C 
BRANCH  14  15
ATOM     15  N   UNL     1       5.984   5.179  17.695  0.00  0.00    +0.000 N 
ATOM     16  C   UNL     1       5.745   4.811  18.987  0.00  0.00    +0.000 C 
ATOM     17  O   UNL     1       6.542   4.872  19.911  0.00  0.00    +0.000 OA
ATOM     18  C   UNL     1       4.298   4.390  19.121  0.00  0.00    +0.000 C 
ATOM     19  C   UNL     1       4.142   3.083  19.891  0.00  0.00    +0.000 C 
ATOM     20  C   UNL     1       3.619   1.926  19.108  0.00  0.00    +0.000 C 
ATOM     21  C   UNL     1       3.104   2.022  17.880  0.00  0.00    +0.000 C 
ATOM     22  C   UNL     1       2.983   3.300  17.120  0.00  0.00    +0.000 C 
ATOM     23  C   UNL     1       3.751   4.483  17.696  0.00  0.00    +0.000 C 
ATOM     24  C   UNL     1       4.947   4.880  16.860  0.00  0.00    +0.000 C 
ATOM     25  O   UNL     1       4.946   5.000  15.643  0.00  0.00    +0.000 OA
ENDBRANCH  14  15
ENDBRANCH   1  14
TORSDOF 5
ENDMDL
MODEL 9
REMARK VINA RESULT:      -7.6      3.025      6.181
REMARK  Name = 
REMARK  6 active torsions:
REMARK  status: ('A' for Active; 'I' for Inactive)
REMARK    1  A    between atoms: C_1  and  O_2
REMARK    2  A    between atoms: O_2  and  C_3
REMARK    3  A    between atoms: C_7  and  N_8
REMARK    4  A    between atoms: C_9  and  C_11
REMARK    5  A    between atoms: C_11  and  C_12
REMARK    6  A    between atoms: C_12  and  N_13
REMARK                            x       y       z     vdW  Elec       q    Type
REMARK                         _______ _______ _______ _____ _____    ______ ____
ROOT
ATOM      1  C   UNL     1       4.882   5.262  16.219  0.00  0.00    +0.000 C 
ENDROOT
BRANCH   1   3
ATOM      2  N   UNL     1       3.136   6.655  17.215  0.00  0.00    +0.000 N 
ATOM      3  C   UNL     1       4.494   6.415  17.141  0.00  0.00    +0.000 C 
ATOM      4  O   UNL     1       5.360   7.067  17.717  0.00  0.00    +0.000 OA
ATOM      5  H   UNL     1       2.537   6.179  16.552  0.00  0.00    +0.000 HD
BRANCH   2  10
ATOM      6  C   UNL     1       1.657   8.143  20.275  0.00  0.00    +0.000 A 
ATOM      7  C   UNL     1       1.254   9.397  19.814  0.00  0.00    +0.000 A 
ATOM      8  C   UNL     1       1.496   9.772  18.497  0.00  0.00    +0.000 A 
ATOM      9  C   UNL     1       2.126   8.882  17.626  0.00  0.00    +0.000 A 
ATOM     10  C   UNL     1       2.519   7.611  18.061  0.00  0.00    +0.000 A 
ATOM     11  C   UNL     1       2.303   7.259  19.403  0.00  0.00    +0.000 A 
BRANCH   6  13
ATOM     12  C   UNL     1       0.562   8.876  22.256  0.00  0.00    +0.000 C 
ATOM     13  O   UNL     1       1.349   7.901  21.587  0.00  0.00    +0.000 OA
ENDBRANCH   6  13
ENDBRANCH   2  10
ENDBRANCH   1   3
BRANCH   1  14
ATOM     14  C   UNL     1       5.246   4.085  17.121  0.00  0.00    +0.000 C 
BRANCH  14  15
ATOM     15  N   UNL     1       4.221   3.616  18.033  0.00  0.00    +0.000 N 
ATOM     16  C   UNL     1       2.992   3.194  17.617  0.00  0.00    +0.000 C 
ATOM     17  O   UNL     1       2.488   3.414  16.525  0.00  0.00    +0.000 OA
ATOM     18  C   UNL     1       2.376   2.330  18.693  0.00  0.00    +0.000 C 
ATOM     19  C   UNL     1       0.922   2.699  18.974  0.00  0.00    +0.000 C 
ATOM     20  C   UNL     1       0.644   3.264  20.327  0.00  0.00    +0.000 C 
ATOM     21  C   UNL     1       1.522   3.269  21.333  0.00  0.00    +0.000 C 
ATOM     22  C   UNL     1       2.903   2.711  21.243  0.00  0.00    +0.000 C 
ATOM     23  C   UNL     1       3.390   2.382  19.838  0.00  0.00    +0.000 C 
ATOM     24  C   UNL     1       4.463   3.327  19.344  0.00  0.00    +0.000 C 
ATOM     25  O   UNL     1       5.433   3.690  19.993  0.00  0.00    +0.000 OA
ENDBRANCH  14  15
ENDBRANCH   1  14
TORSDOF 5
ENDMDL
