MODEL 1
REMARK VINA RESULT:      -8.0      0.000      0.000
REMARK  Name = 
REMARK  3 active torsions:
REMARK  status: ('A' for Active; 'I' for Inactive)
REMARK    1  A    between atoms: C_1  and  O_2
REMARK    2  A    between atoms: O_2  and  C_3
REMARK    3  A    between atoms: C_3  and  C_5
REMARK                            x       y       z     vdW  Elec       q    Type
REMARK                         _______ _______ _______ _____ _____    ______ ____
ROOT
ATOM      1  C   UNL     1       5.829   4.771  15.304  0.00  0.00    +0.000 A 
ATOM      2  C   UNL     1       5.344   5.910  15.927  0.00  0.00    +0.000 A 
ATOM      3  C   UNL     1       4.469   5.480  16.941  0.00  0.00    +0.000 A 
ATOM      4  C   UNL     1       4.468   4.107  16.906  0.00  0.00    +0.000 A 
ATOM      5  O   UNL     1       5.268   3.655  15.891  0.00  0.00    +0.000 OA
ATOM      6  C   UNL     1       3.754   3.246  17.816  0.00  0.00    +0.000 C 
ATOM      7  O   UNL     1       3.780   2.022  17.815  0.00  0.00    +0.000 OA
ATOM      8  C   UNL     1       2.936   3.987  18.842  0.00  0.00    +0.000 A 
ATOM      9  C   UNL     1       2.189   3.270  19.788  0.00  0.00    +0.000 A 
ATOM     10  C   UNL     1       1.415   3.950  20.737  0.00  0.00    +0.000 A 
ATOM     11  C   UNL     1       1.380   5.344  20.751  0.00  0.00    +0.000 A 
ATOM     12  C   UNL     1       2.124   6.068  19.822  0.00  0.00    +0.000 A 
ATOM     13  C   UNL     1       2.904   5.397  18.868  0.00  0.00    +0.000 A 
ATOM     14  C   UNL     1       3.692   6.213  17.904  0.00  0.00    +0.000 C 
ATOM     15  O   UNL     1       3.674   7.439  17.940  0.00  0.00    +0.000 OA
ENDROOT
BRANCH   1  16
ATOM     16  C   UNL     1       6.784   4.692  14.222  0.00  0.00    +0.000 C 
ATOM     17  O   UNL     1       7.758   5.430  14.112  0.00  0.00    +0.000 OA
BRANCH  16  19
ATOM     18  C   UNL     1       7.020   3.958  12.027  0.00  0.00    +0.000 C 
ATOM     19  O   UNL     1       6.454   3.725  13.319  0.00  0.00    +0.000 OA
ENDBRANCH  16  19
ENDBRANCH   1  16
TORSDOF 2
ENDMDL
MODEL 2
REMARK VINA RESULT:      -7.7      0.647      2.456
REMARK  Name = 
REMARK  3 active torsions:
REMARK  status: ('A' for Active; 'I' for Inactive)
REMARK    1  A    between atoms: C_1  and  O_2
REMARK    2  A    between atoms: O_2  and  C_3
REMARK    3  A    between atoms: C_3  and  C_5
REMARK                            x       y       z     vdW  Elec       q    Type
REMARK                         _______ _______ _______ _____ _____    ______ ____
ROOT
ATOM      1  C   UNL     1       5.960   4.708  15.309  0.00  0.00    +0.000 A 
ATOM      2  C   UNL     1       5.446   3.592  15.948  0.00  0.00    +0.000 A 
ATOM      3  C   UNL     1       4.619   4.060  16.987  0.00  0.00    +0.000 A 
ATOM      4  C   UNL     1       4.651   5.432  16.927  0.00  0.00    +0.000 A 
ATOM      5  O   UNL     1       5.491   5.847  15.929  0.00  0.00    +0.000 OA
ATOM      6  C   UNL     1       3.894   6.324  17.770  0.00  0.00    +0.000 C 
ATOM      7  O   UNL     1       3.888   7.547  17.697  0.00  0.00    +0.000 OA
ATOM      8  C   UNL     1       3.047   5.621  18.800  0.00  0.00    +0.000 A 
ATOM      9  C   UNL     1       2.262   6.372  19.687  0.00  0.00    +0.000 A 
ATOM     10  C   UNL     1       1.483   5.727  20.655  0.00  0.00    +0.000 A 
ATOM     11  C   UNL     1       1.478   4.335  20.746  0.00  0.00    +0.000 A 
ATOM     12  C   UNL     1       2.247   3.578  19.865  0.00  0.00    +0.000 A 
ATOM     13  C   UNL     1       3.031   4.214  18.890  0.00  0.00    +0.000 A 
ATOM     14  C   UNL     1       3.826   3.363  17.963  0.00  0.00    +0.000 C 
ATOM     15  O   UNL     1       3.796   2.138  18.034  0.00  0.00    +0.000 OA
ENDROOT
BRANCH   1  16
ATOM     16  C   UNL     1       6.837   4.745  14.160  0.00  0.00    +0.000 C 
ATOM     17  O   UNL     1       7.777   5.524  14.041  0.00  0.00    +0.000 OA
BRANCH  16  19
ATOM     18  C   UNL     1       7.095   4.080  11.947  0.00  0.00    +0.000 C 
ATOM     19  O   UNL     1       6.472   3.838  13.211  0.00  0.00    +0.000 OA
ENDBRANCH  16  19
ENDBRANCH   1  16
TORSDOF 2
ENDMDL
MODEL 3
REMARK VINA RESULT:      -7.3      1.413      1.419
REMARK  Name = 
REMARK  3 active torsions:
REMARK  status: ('A' for Active; 'I' for Inactive)
REMARK    1  A    between atoms: C_1  and  O_2
REMARK    2  A    between atoms: O_2  and  C_3
REMARK    3  A    between atoms: C_3  and  C_5
REMARK                            x       y       z     vdW  Elec       q    Type
REMARK                         _______ _______ _______ _____ _____    ______ ____
ROOT
ATOM      1  C   UNL     1       6.018   4.575  15.620  0.00  0.00    +0.000 A 
ATOM      2  C   UNL     1       6.261   4.999  16.917  0.00  0.00    +0.000 A 
ATOM      3  C   UNL     1       5.122   4.667  17.675  0.00  0.00    +0.000 A 
ATOM      4  C   UNL     1       4.246   4.045  16.818  0.00  0.00    +0.000 A 
ATOM      5  O   UNL     1       4.762   4.009  15.551  0.00  0.00    +0.000 OA
ATOM      6  C   UNL     1       2.972   3.481  17.188  0.00  0.00    +0.000 C 
ATOM      7  O   UNL     1       2.203   2.891  16.438  0.00  0.00    +0.000 OA
ATOM      8  C   UNL     1       2.625   3.657  18.644  0.00  0.00    +0.000 A 
ATOM      9  C   UNL     1       1.411   3.157  19.138  0.00  0.00    +0.000 A 
ATOM     10  C   UNL     1       1.076   3.327  20.487  0.00  0.00    +0.000 A 
ATOM     11  C   UNL     1       1.943   3.994  21.351  0.00  0.00    +0.000 A 
ATOM     12  C   UNL     1       3.156   4.488  20.875  0.00  0.00    +0.000 A 
ATOM     13  C   UNL     1       3.503   4.321  19.526  0.00  0.00    +0.000 A 
ATOM     14  C   UNL     1       4.815   4.855  19.067  0.00  0.00    +0.000 C 
ATOM     15  O   UNL     1       5.583   5.418  19.841  0.00  0.00    +0.000 OA
ENDROOT
BRANCH   1  16
ATOM     16  C   UNL     1       6.903   4.664  14.480  0.00  0.00    +0.000 C 
ATOM     17  O   UNL     1       7.815   5.478  14.382  0.00  0.00    +0.000 OA
BRANCH  16  19
ATOM     18  C   UNL     1       6.994   4.176  12.207  0.00  0.00    +0.000 C 
ATOM     19  O   UNL     1       6.579   3.761  13.511  0.00  0.00    +0.000 OA
ENDBRANCH  16  19
ENDBRANCH   1  16
TORSDOF 2
ENDMDL
MODEL 4
REMARK VINA RESULT:      -7.1      1.651      2.031
REMARK  Name = 
REMARK  3 active torsions:
REMARK  status: ('A' for Active; 'I' for Inactive)
REMARK    1  A    between atoms: C_1  and  O_2
REMARK    2  A    between atoms: O_2  and  C_3
REMARK    3  A    between atoms: C_3  and  C_5
REMARK                            x       y       z     vdW  Elec       q    Type
REMARK                         _______ _______ _______ _____ _____    ______ ____
ROOT
ATOM      1  C   UNL     1       6.161   5.435  17.132  0.00  0.00    +0.000 A 
ATOM      2  C   UNL     1       4.899   6.005  17.187  0.00  0.00    +0.000 A 
ATOM      3  C   UNL     1       4.140   5.231  18.085  0.00  0.00    +0.000 A 
ATOM      4  C   UNL     1       4.970   4.239  18.549  0.00  0.00    +0.000 A 
ATOM      5  O   UNL     1       6.199   4.328  17.954  0.00  0.00    +0.000 OA
ATOM      6  C   UNL     1       4.621   3.253  19.542  0.00  0.00    +0.000 C 
ATOM      7  O   UNL     1       5.367   2.390  19.989  0.00  0.00    +0.000 OA
ATOM      8  C   UNL     1       3.202   3.361  20.039  0.00  0.00    +0.000 A 
ATOM      9  C   UNL     1       2.731   2.460  21.005  0.00  0.00    +0.000 A 
ATOM     10  C   UNL     1       1.411   2.545  21.462  0.00  0.00    +0.000 A 
ATOM     11  C   UNL     1       0.552   3.524  20.964  0.00  0.00    +0.000 A 
ATOM     12  C   UNL     1       1.010   4.431  20.010  0.00  0.00    +0.000 A 
ATOM     13  C   UNL     1       2.332   4.356  19.546  0.00  0.00    +0.000 A 
ATOM     14  C   UNL     1       2.780   5.353  18.536  0.00  0.00    +0.000 C 
ATOM     15  O   UNL     1       2.025   6.227  18.121  0.00  0.00    +0.000 OA
ENDROOT
BRANCH   1  16
ATOM     16  C   UNL     1       7.305   5.888  16.373  0.00  0.00    +0.000 C 
ATOM     17  O   UNL     1       7.808   7.001  16.491  0.00  0.00    +0.000 OA
BRANCH  16  19
ATOM     18  C   UNL     1       6.803   4.726  14.422  0.00  0.00    +0.000 C 
ATOM     19  O   UNL     1       7.733   4.947  15.485  0.00  0.00    +0.000 OA
ENDBRANCH  16  19
ENDBRANCH   1  16
TORSDOF 2
ENDMDL
MODEL 5
REMARK VINA RESULT:      -7.1      1.476      2.243
REMARK  Name = 
REMARK  3 active torsions:
REMARK  status: ('A' for Active; 'I' for Inactive)
REMARK    1  A    between atoms: C_1  and  O_2
REMARK    2  A    between atoms: O_2  and  C_3
REMARK    3  A    between atoms: C_3  and  C_5
REMARK                            x       y       z     vdW  Elec       q    Type
REMARK                         _______ _______ _______ _____ _____    ______ ____
ROOT
ATOM      1  C   UNL     1       6.006   4.529  15.635  0.00  0.00    +0.000 A 
ATOM      2  C   UNL     1       4.790   3.875  15.522  0.00  0.00    +0.000 A 
ATOM      3  C   UNL     1       4.202   3.879  16.801  0.00  0.00    +0.000 A 
ATOM      4  C   UNL     1       5.071   4.545  17.631  0.00  0.00    +0.000 A 
ATOM      5  O   UNL     1       6.194   4.921  16.944  0.00  0.00    +0.000 OA
ATOM      6  C   UNL     1       4.839   4.838  19.024  0.00  0.00    +0.000 C 
ATOM      7  O   UNL     1       5.592   5.464  19.760  0.00  0.00    +0.000 OA
ATOM      8  C   UNL     1       3.530   4.309  19.550  0.00  0.00    +0.000 A 
ATOM      9  C   UNL     1       3.180   4.522  20.891  0.00  0.00    +0.000 A 
ATOM     10  C   UNL     1       1.971   4.023  21.391  0.00  0.00    +0.000 A 
ATOM     11  C   UNL     1       1.104   3.311  20.563  0.00  0.00    +0.000 A 
ATOM     12  C   UNL     1       1.436   3.100  19.226  0.00  0.00    +0.000 A 
ATOM     13  C   UNL     1       2.644   3.597  18.714  0.00  0.00    +0.000 A 
ATOM     14  C   UNL     1       2.950   3.358  17.277  0.00  0.00    +0.000 C 
ATOM     15  O   UNL     1       2.169   2.752  16.549  0.00  0.00    +0.000 OA
ENDROOT
BRANCH   1  16
ATOM     16  C   UNL     1       6.963   4.807  14.588  0.00  0.00    +0.000 C 
ATOM     17  O   UNL     1       7.878   5.617  14.693  0.00  0.00    +0.000 OA
BRANCH  16  19
ATOM     18  C   UNL     1       7.330   4.644  12.297  0.00  0.00    +0.000 C 
ATOM     19  O   UNL     1       6.704   4.091  13.457  0.00  0.00    +0.000 OA
ENDBRANCH  16  19
ENDBRANCH   1  16
TORSDOF 2
ENDMDL
MODEL 6
REMARK VINA RESULT:      -7.0      1.953      2.586
REMARK  Name = 
REMARK  3 active torsions:
REMARK  status: ('A' for Active; 'I' for Inactive)
REMARK    1  A    between atoms: C_1  and  O_2
REMARK    2  A    between atoms: O_2  and  C_3
REMARK    3  A    between atoms: C_3  and  C_5
REMARK                            x       y       z     vdW  Elec       q    Type
REMARK                         _______ _______ _______ _____ _____    ______ ____
ROOT
ATOM      1  C   UNL     1       6.036   5.138  16.949  0.00  0.00    +0.000 A 
ATOM      2  C   UNL     1       4.733   5.608  16.924  0.00  0.00    +0.000 A 
ATOM      3  C   UNL     1       4.023   4.899  17.912  0.00  0.00    +0.000 A 
ATOM      4  C   UNL     1       4.921   4.044  18.503  0.00  0.00    +0.000 A 
ATOM      5  O   UNL     1       6.148   4.151  17.907  0.00  0.00    +0.000 OA
ATOM      6  C   UNL     1       4.635   3.168  19.613  0.00  0.00    +0.000 C 
ATOM      7  O   UNL     1       5.440   2.431  20.171  0.00  0.00    +0.000 OA
ATOM      8  C   UNL     1       3.205   3.227  20.086  0.00  0.00    +0.000 A 
ATOM      9  C   UNL     1       2.792   2.423  21.159  0.00  0.00    +0.000 A 
ATOM     10  C   UNL     1       1.462   2.461  21.596  0.00  0.00    +0.000 A 
ATOM     11  C   UNL     1       0.538   3.298  20.971  0.00  0.00    +0.000 A 
ATOM     12  C   UNL     1       0.938   4.108  19.910  0.00  0.00    +0.000 A 
ATOM     13  C   UNL     1       2.268   4.079  19.466  0.00  0.00    +0.000 A 
ATOM     14  C   UNL     1       2.652   4.971  18.337  0.00  0.00    +0.000 C 
ATOM     15  O   UNL     1       1.837   5.722  17.811  0.00  0.00    +0.000 OA
ENDROOT
BRANCH   1  16
ATOM     16  C   UNL     1       7.152   5.579  16.143  0.00  0.00    +0.000 C 
ATOM     17  O   UNL     1       7.717   4.875  15.312  0.00  0.00    +0.000 OA
BRANCH  16  19
ATOM     18  C   UNL     1       7.731   7.056  17.843  0.00  0.00    +0.000 C 
ATOM     19  O   UNL     1       7.525   6.855  16.442  0.00  0.00    +0.000 OA
ENDBRANCH  16  19
ENDBRANCH   1  16
TORSDOF 2
ENDMDL
MODEL 7
REMARK VINA RESULT:      -6.9      1.752      2.978
REMARK  Name = 
REMARK  3 active torsions:
REMARK  status: ('A' for Active; 'I' for Inactive)
REMARK    1  A    between atoms: C_1  and  O_2
REMARK    2  A    between atoms: O_2  and  C_3
REMARK    3  A    between atoms: C_3  and  C_5
REMARK                            x       y       z     vdW  Elec       q    Type
REMARK                         _______ _______ _______ _____ _____    ______ ____
ROOT
ATOM      1  C   UNL     1       6.329   5.664  17.280  0.00  0.00    +0.000 A 
ATOM      2  C   UNL     1       6.384   4.502  18.033  0.00  0.00    +0.000 A 
ATOM      3  C   UNL     1       5.120   4.345  18.635  0.00  0.00    +0.000 A 
ATOM      4  C   UNL     1       4.350   5.402  18.213  0.00  0.00    +0.000 A 
ATOM      5  O   UNL     1       5.081   6.236  17.411  0.00  0.00    +0.000 OA
ATOM      6  C   UNL     1       2.960   5.606  18.538  0.00  0.00    +0.000 C 
ATOM      7  O   UNL     1       2.256   6.524  18.134  0.00  0.00    +0.000 OA
ATOM      8  C   UNL     1       2.383   4.551  19.446  0.00  0.00    +0.000 A 
ATOM      9  C   UNL     1       1.040   4.630  19.843  0.00  0.00    +0.000 A 
ATOM     10  C   UNL     1       0.500   3.661  20.697  0.00  0.00    +0.000 A 
ATOM     11  C   UNL     1       1.289   2.609  21.161  0.00  0.00    +0.000 A 
ATOM     12  C   UNL     1       2.623   2.514  20.767  0.00  0.00    +0.000 A 
ATOM     13  C   UNL     1       3.174   3.478  19.910  0.00  0.00    +0.000 A 
ATOM     14  C   UNL     1       4.599   3.329  19.507  0.00  0.00    +0.000 C 
ATOM     15  O   UNL     1       5.279   2.386  19.900  0.00  0.00    +0.000 OA
ENDROOT
BRANCH   1  16
ATOM     16  C   UNL     1       7.370   6.232  16.452  0.00  0.00    +0.000 C 
ATOM     17  O   UNL     1       7.874   7.333  16.646  0.00  0.00    +0.000 OA
BRANCH  16  19
ATOM     18  C   UNL     1       6.561   5.042  14.625  0.00  0.00    +0.000 C 
ATOM     19  O   UNL     1       7.696   5.415  15.411  0.00  0.00    +0.000 OA
ENDBRANCH  16  19
ENDBRANCH   1  16
TORSDOF 2
ENDMDL
MODEL 8
REMARK VINA RESULT:      -6.8      1.900      2.130
REMARK  Name = 
REMARK  3 active torsions:
REMARK  status: ('A' for Active; 'I' for Inactive)
REMARK    1  A    between atoms: C_1  and  O_2
REMARK    2  A    between atoms: O_2  and  C_3
REMARK    3  A    between atoms: C_3  and  C_5
REMARK                            x       y       z     vdW  Elec       q    Type
REMARK                         _______ _______ _______ _____ _____    ______ ____
ROOT
ATOM      1  C   UNL     1       5.556   4.308  16.114  0.00  0.00    +0.000 A 
ATOM      2  C   UNL     1       4.176   4.368  15.999  0.00  0.00    +0.000 A 
ATOM      3  C   UNL     1       3.645   3.954  17.236  0.00  0.00    +0.000 A 
ATOM      4  C   UNL     1       4.716   3.677  18.051  0.00  0.00    +0.000 A 
ATOM      5  O   UNL     1       5.892   3.857  17.373  0.00  0.00    +0.000 OA
ATOM      6  C   UNL     1       4.633   3.279  19.435  0.00  0.00    +0.000 C 
ATOM      7  O   UNL     1       5.584   3.068  20.178  0.00  0.00    +0.000 OA
ATOM      8  C   UNL     1       3.223   3.142  19.948  0.00  0.00    +0.000 A 
ATOM      9  C   UNL     1       2.999   2.758  21.278  0.00  0.00    +0.000 A 
ATOM     10  C   UNL     1       1.692   2.616  21.760  0.00  0.00    +0.000 A 
ATOM     11  C   UNL     1       0.602   2.856  20.924  0.00  0.00    +0.000 A 
ATOM     12  C   UNL     1       0.811   3.247  19.603  0.00  0.00    +0.000 A 
ATOM     13  C   UNL     1       2.116   3.394  19.111  0.00  0.00    +0.000 A 
ATOM     14  C   UNL     1       2.290   3.825  17.697  0.00  0.00    +0.000 C 
ATOM     15  O   UNL     1       1.324   4.058  16.976  0.00  0.00    +0.000 OA
ENDROOT
BRANCH   1  16
ATOM     16  C   UNL     1       6.543   4.667  15.120  0.00  0.00    +0.000 C 
ATOM     17  O   UNL     1       7.721   4.892  15.375  0.00  0.00    +0.000 OA
BRANCH  16  19
ATOM     18  C   UNL     1       6.298   3.629  13.053  0.00  0.00    +0.000 C 
ATOM     19  O   UNL     1       6.000   4.762  13.873  0.00  0.00    +0.000 OA
ENDBRANCH  16  19
ENDBRANCH   1  16
TORSDOF 2
ENDMDL
MODEL 9
REMARK VINA RESULT:      -6.7      2.667      3.822
REMARK  Name = 
REMARK  3 active torsions:
REMARK  status: ('A' for Active; 'I' for Inactive)
REMARK    1  A    between atoms: C_1  and  O_2
REMARK    2  A    between atoms: O_2  and  C_3
REMARK    3  A    between atoms: C_3  and  C_5
REMARK                            x       y       z     vdW  Elec       q    Type
REMARK                         _______ _______ _______ _____ _____    ______ ____
ROOT
ATOM      1  C   UNL     1       6.487   6.129  17.964  0.00  0.00    +0.000 A 
ATOM      2  C   UNL     1       6.509   4.866  18.532  0.00  0.00    +0.000 A 
ATOM      3  C   UNL     1       5.202   4.598  18.984  0.00  0.00    +0.000 A 
ATOM      4  C   UNL     1       4.442   5.695  18.660  0.00  0.00    +0.000 A 
ATOM      5  O   UNL     1       5.216   6.655  18.066  0.00  0.00    +0.000 OA
ATOM      6  C   UNL     1       3.023   5.825  18.883  0.00  0.00    +0.000 C 
ATOM      7  O   UNL     1       2.331   6.784  18.562  0.00  0.00    +0.000 OA
ATOM      8  C   UNL     1       2.399   4.633  19.562  0.00  0.00    +0.000 A 
ATOM      9  C   UNL     1       1.025   4.629  19.841  0.00  0.00    +0.000 A 
ATOM     10  C   UNL     1       0.440   3.530  20.483  0.00  0.00    +0.000 A 
ATOM     11  C   UNL     1       1.216   2.432  20.851  0.00  0.00    +0.000 A 
ATOM     12  C   UNL     1       2.581   2.420  20.572  0.00  0.00    +0.000 A 
ATOM     13  C   UNL     1       3.177   3.514  19.926  0.00  0.00    +0.000 A 
ATOM     14  C   UNL     1       4.636   3.450  19.638  0.00  0.00    +0.000 C 
ATOM     15  O   UNL     1       5.306   2.468  19.943  0.00  0.00    +0.000 OA
ENDROOT
BRANCH   1  16
ATOM     16  C   UNL     1       7.580   6.835  17.332  0.00  0.00    +0.000 C 
ATOM     17  O   UNL     1       7.902   6.687  16.158  0.00  0.00    +0.000 OA
BRANCH  16  19
ATOM     18  C   UNL     1       8.046   9.040  17.906  0.00  0.00    +0.000 C 
ATOM     19  O   UNL     1       8.231   7.654  18.206  0.00  0.00    +0.000 OA
ENDBRANCH  16  19
ENDBRANCH   1  16
TORSDOF 2
ENDMDL
