MODEL 1
REMARK VINA RESULT:      -6.8      0.000      0.000
REMARK  Name = 
REMARK  8 active torsions:
REMARK  status: ('A' for Active; 'I' for Inactive)
REMARK    1  A    between atoms: C_1  and  C_2
REMARK    2  A    between atoms: C_2  and  O_3
REMARK    3  A    between atoms: O_3  and  C_4
REMARK    4  A    between atoms: C_4  and  C_6
REMARK    5  A    between atoms: N_18  and  C_19
REMARK    6  A    between atoms: N_23  and  S_24
REMARK    7  A    between atoms: S_24  and  C_27
REMARK    8  A    between atoms: C_30  and  C_31
REMARK                            x       y       z     vdW  Elec       q    Type
REMARK                         _______ _______ _______ _____ _____    ______ ____
ROOT
ATOM      1  C   UNL     1      -0.823  13.114  22.948  0.00  0.00    +0.000 C 
ATOM      2  C   UNL     1      -2.172  13.060  23.140  0.00  0.00    +0.000 C 
ATOM      3  C   UNL     1      -2.900  13.523  21.825  0.00  0.00    +0.000 C 
ATOM      4  C   UNL     1      -2.125  12.805  20.751  0.00  0.00    +0.000 C 
ATOM      5  C   UNL     1      -2.505  12.096  19.597  0.00  0.00    +0.000 A 
ATOM      6  C   UNL     1      -1.734  11.004  19.284  0.00  0.00    +0.000 A 
ATOM      7  C   UNL     1      -2.296  10.617  17.994  0.00  0.00    +0.000 A 
ATOM      8  C   UNL     1      -1.962   9.754  16.920  0.00  0.00    +0.000 A 
ATOM      9  C   UNL     1      -2.757   9.734  15.745  0.00  0.00    +0.000 A 
ATOM     10  C   UNL     1      -3.910  10.501  15.618  0.00  0.00    +0.000 A 
ATOM     11  C   UNL     1      -4.301  11.322  16.656  0.00  0.00    +0.000 A 
ATOM     12  C   UNL     1      -3.479  11.391  17.793  0.00  0.00    +0.000 A 
ATOM     13  N   UNL     1      -3.624  12.206  18.876  0.00  0.00    +0.000 N 
ATOM     14  C   UNL     1      -4.745  13.049  19.223  0.00  0.00    +0.000 C 
ATOM     15  C   UNL     1      -0.577  10.713  20.363  0.00  0.00    +0.000 C 
ATOM     16  O   UNL     1       0.034   9.636  20.350  0.00  0.00    +0.000 OA
ATOM     17  C   UNL     1      -0.182  11.979  21.747  0.00  0.00    +0.000 C 
ATOM     18  N   UNL     1      -0.636  12.924  20.765  0.00  0.00    +0.000 NA
ENDROOT
BRANCH  18  19
ATOM     19  S   UNL     1       0.544  13.356  19.601  0.00  0.00    +0.000 S 
ATOM     20  O   UNL     1       1.865  13.203  20.144  0.00  0.00    +0.000 OA
ATOM     21  O   UNL     1       0.170  12.735  18.353  0.00  0.00    +0.000 OA
BRANCH  19  22
ATOM     22  C   UNL     1       0.341  15.179  19.448  0.00  0.00    +0.000 A 
ATOM     23  C   UNL     1      -0.941  15.756  19.443  0.00  0.00    +0.000 A 
ATOM     24  C   UNL     1      -1.160  16.936  18.718  0.00  0.00    +0.000 A 
ATOM     25  C   UNL     1      -0.094  17.570  18.067  0.00  0.00    +0.000 A 
ATOM     26  C   UNL     1      -0.327  18.626  17.022  0.00  0.00    +0.000 C 
ATOM     27  C   UNL     1       1.212  17.107  18.295  0.00  0.00    +0.000 A 
ATOM     28  C   UNL     1       1.439  15.926  19.014  0.00  0.00    +0.000 A 
ENDBRANCH  19  22
ENDBRANCH  18  19
BRANCH   1  29
ATOM     29  C   UNL     1      -0.578  14.679  22.818  0.00  0.00    +0.000 C 
ATOM     30  O   UNL     1      -1.407  15.546  22.980  0.00  0.00    +0.000 OA
BRANCH  29  31
ATOM     31  O   UNL     1       0.762  14.996  22.803  0.00  0.00    +0.000 OA
BRANCH  31  33
ATOM     32  C   UNL     1       2.579  16.617  22.768  0.00  0.00    +0.000 C 
ATOM     33  C   UNL     1       1.084  16.416  22.857  0.00  0.00    +0.000 C 
ENDBRANCH  31  33
ENDBRANCH  29  31
ENDBRANCH   1  29
TORSDOF 5
ENDMDL
MODEL 2
REMARK VINA RESULT:      -6.6      2.021      3.308
REMARK  Name = 
REMARK  8 active torsions:
REMARK  status: ('A' for Active; 'I' for Inactive)
REMARK    1  A    between atoms: C_1  and  C_2
REMARK    2  A    between atoms: C_2  and  O_3
REMARK    3  A    between atoms: O_3  and  C_4
REMARK    4  A    between atoms: C_4  and  C_6
REMARK    5  A    between atoms: N_18  and  C_19
REMARK    6  A    between atoms: N_23  and  S_24
REMARK    7  A    between atoms: S_24  and  C_27
REMARK    8  A    between atoms: C_30  and  C_31
REMARK                            x       y       z     vdW  Elec       q    Type
REMARK                         _______ _______ _______ _____ _____    ______ ____
ROOT
ATOM      1  C   UNL     1      -3.727  13.518  22.568  0.00  0.00    +0.000 C 
ATOM      2  C   UNL     1      -4.529  12.932  21.633  0.00  0.00    +0.000 C 
ATOM      3  C   UNL     1      -3.765  12.875  20.260  0.00  0.00    +0.000 C 
ATOM      4  C   UNL     1      -2.390  12.414  20.668  0.00  0.00    +0.000 C 
ATOM      5  C   UNL     1      -1.493  11.468  20.138  0.00  0.00    +0.000 A 
ATOM      6  C   UNL     1      -0.751  10.766  21.057  0.00  0.00    +0.000 A 
ATOM      7  C   UNL     1       0.148  10.017  20.185  0.00  0.00    +0.000 A 
ATOM      8  C   UNL     1       1.328   9.241  20.313  0.00  0.00    +0.000 A 
ATOM      9  C   UNL     1       1.982   8.740  19.158  0.00  0.00    +0.000 A 
ATOM     10  C   UNL     1       1.476   8.934  17.877  0.00  0.00    +0.000 A 
ATOM     11  C   UNL     1       0.305   9.644  17.707  0.00  0.00    +0.000 A 
ATOM     12  C   UNL     1      -0.309  10.195  18.844  0.00  0.00    +0.000 A 
ATOM     13  N   UNL     1      -1.402  11.008  18.888  0.00  0.00    +0.000 N 
ATOM     14  C   UNL     1      -2.315  11.345  17.821  0.00  0.00    +0.000 C 
ATOM     15  C   UNL     1      -1.122  11.126  22.580  0.00  0.00    +0.000 C 
ATOM     16  O   UNL     1      -0.720  10.409  23.507  0.00  0.00    +0.000 OA
ATOM     17  C   UNL     1      -2.266  12.608  22.991  0.00  0.00    +0.000 C 
ATOM     18  N   UNL     1      -1.709  13.143  21.780  0.00  0.00    +0.000 NA
ENDROOT
BRANCH  18  19
ATOM     19  S   UNL     1      -0.171  13.873  21.970  0.00  0.00    +0.000 S 
ATOM     20  O   UNL     1      -0.054  14.467  23.273  0.00  0.00    +0.000 OA
ATOM     21  O   UNL     1       0.815  12.939  21.481  0.00  0.00    +0.000 OA
BRANCH  19  22
ATOM     22  C   UNL     1      -0.244  15.318  20.834  0.00  0.00    +0.000 A 
ATOM     23  C   UNL     1      -0.722  15.170  19.521  0.00  0.00    +0.000 A 
ATOM     24  C   UNL     1      -0.214  15.994  18.507  0.00  0.00    +0.000 A 
ATOM     25  C   UNL     1       0.709  17.002  18.817  0.00  0.00    +0.000 A 
ATOM     26  C   UNL     1       1.522  17.679  17.747  0.00  0.00    +0.000 C 
ATOM     27  C   UNL     1       0.977  17.285  20.165  0.00  0.00    +0.000 A 
ATOM     28  C   UNL     1       0.476  16.464  21.184  0.00  0.00    +0.000 A 
ENDBRANCH  19  22
ENDBRANCH  18  19
BRANCH   1  29
ATOM     29  C   UNL     1      -3.643  15.011  22.032  0.00  0.00    +0.000 C 
ATOM     30  O   UNL     1      -4.230  15.458  21.072  0.00  0.00    +0.000 OA
BRANCH  29  31
ATOM     31  O   UNL     1      -3.069  15.862  22.949  0.00  0.00    +0.000 OA
BRANCH  31  33
ATOM     32  C   UNL     1      -2.677  15.698  25.348  0.00  0.00    +0.000 C 
ATOM     33  C   UNL     1      -3.704  15.914  24.259  0.00  0.00    +0.000 C 
ENDBRANCH  31  33
ENDBRANCH  29  31
ENDBRANCH   1  29
TORSDOF 5
ENDMDL
MODEL 3
REMARK VINA RESULT:      -6.5      2.091      3.412
REMARK  Name = 
REMARK  8 active torsions:
REMARK  status: ('A' for Active; 'I' for Inactive)
REMARK    1  A    between atoms: C_1  and  C_2
REMARK    2  A    between atoms: C_2  and  O_3
REMARK    3  A    between atoms: O_3  and  C_4
REMARK    4  A    between atoms: C_4  and  C_6
REMARK    5  A    between atoms: N_18  and  C_19
REMARK    6  A    between atoms: N_23  and  S_24
REMARK    7  A    between atoms: S_24  and  C_27
REMARK    8  A    between atoms: C_30  and  C_31
REMARK                            x       y       z     vdW  Elec       q    Type
REMARK                         _______ _______ _______ _____ _____    ______ ____
ROOT
ATOM      1  C   UNL     1      -3.589  13.798  22.451  0.00  0.00    +0.000 C 
ATOM      2  C   UNL     1      -4.390  13.267  21.483  0.00  0.00    +0.000 C 
ATOM      3  C   UNL     1      -3.576  13.161  20.141  0.00  0.00    +0.000 C 
ATOM      4  C   UNL     1      -2.253  12.610  20.603  0.00  0.00    +0.000 C 
ATOM      5  C   UNL     1      -1.399  11.607  20.107  0.00  0.00    +0.000 A 
ATOM      6  C   UNL     1      -0.743  10.857  21.053  0.00  0.00    +0.000 A 
ATOM      7  C   UNL     1       0.140  10.051  20.216  0.00  0.00    +0.000 A 
ATOM      8  C   UNL     1       1.259   9.198  20.389  0.00  0.00    +0.000 A 
ATOM      9  C   UNL     1       1.926   8.656  19.259  0.00  0.00    +0.000 A 
ATOM     10  C   UNL     1       1.486   8.883  17.960  0.00  0.00    +0.000 A 
ATOM     11  C   UNL     1       0.372   9.670  17.745  0.00  0.00    +0.000 A 
ATOM     12  C   UNL     1      -0.249  10.259  18.858  0.00  0.00    +0.000 A 
ATOM     13  N   UNL     1      -1.288  11.143  18.860  0.00  0.00    +0.000 N 
ATOM     14  C   UNL     1      -2.132  11.540  17.757  0.00  0.00    +0.000 C 
ATOM     15  C   UNL     1      -1.151  11.239  22.561  0.00  0.00    +0.000 C 
ATOM     16  O   UNL     1      -0.835  10.497  23.501  0.00  0.00    +0.000 OA
ATOM     17  C   UNL     1      -2.210  12.794  22.930  0.00  0.00    +0.000 C 
ATOM     18  N   UNL     1      -1.570  13.291  21.744  0.00  0.00    +0.000 NA
ENDROOT
BRANCH  18  19
ATOM     19  S   UNL     1       0.003  13.918  21.999  0.00  0.00    +0.000 S 
ATOM     20  O   UNL     1       0.101  14.515  23.302  0.00  0.00    +0.000 OA
ATOM     21  O   UNL     1       0.945  12.916  21.561  0.00  0.00    +0.000 OA
BRANCH  19  22
ATOM     22  C   UNL     1       0.079  15.354  20.852  0.00  0.00    +0.000 A 
ATOM     23  C   UNL     1      -0.017  16.667  21.345  0.00  0.00    +0.000 A 
ATOM     24  C   UNL     1      -0.594  17.662  20.543  0.00  0.00    +0.000 A 
ATOM     25  C   UNL     1      -1.004  17.363  19.237  0.00  0.00    +0.000 A 
ATOM     26  C   UNL     1      -1.915  18.282  18.469  0.00  0.00    +0.000 C 
ATOM     27  C   UNL     1      -0.671  16.114  18.691  0.00  0.00    +0.000 A 
ATOM     28  C   UNL     1      -0.098  15.113  19.487  0.00  0.00    +0.000 A 
ENDBRANCH  19  22
ENDBRANCH  18  19
BRANCH   1  29
ATOM     29  C   UNL     1      -3.386  15.283  21.924  0.00  0.00    +0.000 C 
ATOM     30  O   UNL     1      -3.740  15.713  20.848  0.00  0.00    +0.000 OA
BRANCH  29  31
ATOM     31  O   UNL     1      -3.034  16.150  22.934  0.00  0.00    +0.000 OA
BRANCH  31  33
ATOM     32  C   UNL     1      -4.470  16.895  24.754  0.00  0.00    +0.000 C 
ATOM     33  C   UNL     1      -3.529  15.819  24.263  0.00  0.00    +0.000 C 
ENDBRANCH  31  33
ENDBRANCH  29  31
ENDBRANCH   1  29
TORSDOF 5
ENDMDL
MODEL 4
REMARK VINA RESULT:      -6.3      1.410      1.908
REMARK  Name = 
REMARK  8 active torsions:
REMARK  status: ('A' for Active; 'I' for Inactive)
REMARK    1  A    between atoms: C_1  and  C_2
REMARK    2  A    between atoms: C_2  and  O_3
REMARK    3  A    between atoms: O_3  and  C_4
REMARK    4  A    between atoms: C_4  and  C_6
REMARK    5  A    between atoms: N_18  and  C_19
REMARK    6  A    between atoms: N_23  and  S_24
REMARK    7  A    between atoms: S_24  and  C_27
REMARK    8  A    between atoms: C_30  and  C_31
REMARK                            x       y       z     vdW  Elec       q    Type
REMARK                         _______ _______ _______ _____ _____    ______ ____
ROOT
ATOM      1  C   UNL     1      -1.346  12.823  23.111  0.00  0.00    +0.000 C 
ATOM      2  C   UNL     1      -2.680  12.570  23.242  0.00  0.00    +0.000 C 
ATOM      3  C   UNL     1      -3.427  13.059  21.948  0.00  0.00    +0.000 C 
ATOM      4  C   UNL     1      -2.532  12.562  20.844  0.00  0.00    +0.000 C 
ATOM      5  C   UNL     1      -2.779  11.926  19.613  0.00  0.00    +0.000 A 
ATOM      6  C   UNL     1      -1.857  10.984  19.230  0.00  0.00    +0.000 A 
ATOM      7  C   UNL     1      -2.325  10.655  17.887  0.00  0.00    +0.000 A 
ATOM      8  C   UNL     1      -1.846   9.956  16.751  0.00  0.00    +0.000 A 
ATOM      9  C   UNL     1      -2.599   9.946  15.548  0.00  0.00    +0.000 A 
ATOM     10  C   UNL     1      -3.842  10.561  15.447  0.00  0.00    +0.000 A 
ATOM     11  C   UNL     1      -4.370  11.215  16.541  0.00  0.00    +0.000 A 
ATOM     12  C   UNL     1      -3.597  11.280  17.713  0.00  0.00    +0.000 A 
ATOM     13  N   UNL     1      -3.882  11.957  18.861  0.00  0.00    +0.000 N 
ATOM     14  C   UNL     1      -5.117  12.604  19.240  0.00  0.00    +0.000 C 
ATOM     15  C   UNL     1      -0.701  10.745  20.323  0.00  0.00    +0.000 C 
ATOM     16  O   UNL     1       0.052   9.766  20.233  0.00  0.00    +0.000 OA
ATOM     17  C   UNL     1      -0.522  11.909  21.836  0.00  0.00    +0.000 C 
ATOM     18  N   UNL     1      -1.074  12.877  20.930  0.00  0.00    +0.000 NA
ENDROOT
BRANCH  18  19
ATOM     19  S   UNL     1       0.067  13.577  19.861  0.00  0.00    +0.000 S 
ATOM     20  O   UNL     1       1.179  12.688  19.661  0.00  0.00    +0.000 OA
ATOM     21  O   UNL     1      -0.664  14.124  18.744  0.00  0.00    +0.000 OA
BRANCH  19  22
ATOM     22  C   UNL     1       0.780  14.957  20.846  0.00  0.00    +0.000 A 
ATOM     23  C   UNL     1       0.395  16.285  20.596  0.00  0.00    +0.000 A 
ATOM     24  C   UNL     1       1.314  17.321  20.821  0.00  0.00    +0.000 A 
ATOM     25  C   UNL     1       2.577  17.037  21.357  0.00  0.00    +0.000 A 
ATOM     26  C   UNL     1       3.696  18.041  21.305  0.00  0.00    +0.000 C 
ATOM     27  C   UNL     1       2.838  15.740  21.825  0.00  0.00    +0.000 A 
ATOM     28  C   UNL     1       1.928  14.699  21.601  0.00  0.00    +0.000 A 
ENDBRANCH  19  22
ENDBRANCH  18  19
BRANCH   1  29
ATOM     29  C   UNL     1      -1.314  14.412  23.140  0.00  0.00    +0.000 C 
ATOM     30  O   UNL     1      -2.151  15.150  22.671  0.00  0.00    +0.000 OA
BRANCH  29  31
ATOM     31  O   UNL     1      -0.383  14.897  24.032  0.00  0.00    +0.000 OA
BRANCH  31  33
ATOM     32  C   UNL     1       0.435  17.161  24.401  0.00  0.00    +0.000 C 
ATOM     33  C   UNL     1      -0.692  16.183  24.641  0.00  0.00    +0.000 C 
ENDBRANCH  31  33
ENDBRANCH  29  31
ENDBRANCH   1  29
TORSDOF 5
ENDMDL
MODEL 5
REMARK VINA RESULT:      -6.2      2.304      6.168
REMARK  Name = 
REMARK  8 active torsions:
REMARK  status: ('A' for Active; 'I' for Inactive)
REMARK    1  A    between atoms: C_1  and  C_2
REMARK    2  A    between atoms: C_2  and  O_3
REMARK    3  A    between atoms: O_3  and  C_4
REMARK    4  A    between atoms: C_4  and  C_6
REMARK    5  A    between atoms: N_18  and  C_19
REMARK    6  A    between atoms: N_23  and  S_24
REMARK    7  A    between atoms: S_24  and  C_27
REMARK    8  A    between atoms: C_30  and  C_31
REMARK                            x       y       z     vdW  Elec       q    Type
REMARK                         _______ _______ _______ _____ _____    ______ ____
ROOT
ATOM      1  C   UNL     1      -0.413  11.851  18.190  0.00  0.00    +0.000 C 
ATOM      2  C   UNL     1      -1.715  11.738  17.798  0.00  0.00    +0.000 C 
ATOM      3  C   UNL     1      -2.649  11.947  19.046  0.00  0.00    +0.000 C 
ATOM      4  C   UNL     1      -2.024  13.136  19.728  0.00  0.00    +0.000 C 
ATOM      5  C   UNL     1      -2.554  14.302  20.312  0.00  0.00    +0.000 A 
ATOM      6  C   UNL     1      -1.805  15.443  20.157  0.00  0.00    +0.000 A 
ATOM      7  C   UNL     1      -2.545  16.386  20.989  0.00  0.00    +0.000 A 
ATOM      8  C   UNL     1      -2.351  17.680  21.534  0.00  0.00    +0.000 A 
ATOM      9  C   UNL     1      -3.316  18.237  22.414  0.00  0.00    +0.000 A 
ATOM     10  C   UNL     1      -4.498  17.576  22.731  0.00  0.00    +0.000 A 
ATOM     11  C   UNL     1      -4.751  16.333  22.187  0.00  0.00    +0.000 A 
ATOM     12  C   UNL     1      -3.768  15.754  21.367  0.00  0.00    +0.000 A 
ATOM     13  N   UNL     1      -3.772  14.506  20.819  0.00  0.00    +0.000 N 
ATOM     14  C   UNL     1      -4.853  13.548  20.771  0.00  0.00    +0.000 C 
ATOM     15  C   UNL     1      -0.488  15.221  19.260  0.00  0.00    +0.000 C 
ATOM     16  O   UNL     1       0.147  16.194  18.830  0.00  0.00    +0.000 OA
ATOM     17  C   UNL     1       0.073  13.459  18.755  0.00  0.00    +0.000 C 
ATOM     18  N   UNL     1      -0.555  13.097  19.995  0.00  0.00    +0.000 NA
ENDROOT
BRANCH  18  19
ATOM     19  S   UNL     1       0.419  13.350  21.381  0.00  0.00    +0.000 S 
ATOM     20  O   UNL     1       1.400  12.307  21.503  0.00  0.00    +0.000 OA
ATOM     21  O   UNL     1       0.800  14.742  21.395  0.00  0.00    +0.000 OA
BRANCH  19  22
ATOM     22  C   UNL     1      -0.737  13.030  22.776  0.00  0.00    +0.000 A 
ATOM     23  C   UNL     1      -1.436  11.814  22.858  0.00  0.00    +0.000 A 
ATOM     24  C   UNL     1      -2.706  11.790  23.453  0.00  0.00    +0.000 A 
ATOM     25  C   UNL     1      -3.237  12.954  24.023  0.00  0.00    +0.000 A 
ATOM     26  C   UNL     1      -4.698  13.065  24.367  0.00  0.00    +0.000 C 
ATOM     27  C   UNL     1      -2.416  14.086  24.145  0.00  0.00    +0.000 A 
ATOM     28  C   UNL     1      -1.148  14.120  23.549  0.00  0.00    +0.000 A 
ENDBRANCH  19  22
ENDBRANCH  18  19
BRANCH   1  29
ATOM     29  C   UNL     1      -0.240  10.566  19.108  0.00  0.00    +0.000 C 
ATOM     30  O   UNL     1      -1.129   9.839  19.493  0.00  0.00    +0.000 OA
BRANCH  29  31
ATOM     31  O   UNL     1       1.072  10.155  19.186  0.00  0.00    +0.000 OA
BRANCH  31  33
ATOM     32  C   UNL     1       2.295   8.613  17.752  0.00  0.00    +0.000 C 
ATOM     33  C   UNL     1       1.778  10.024  17.919  0.00  0.00    +0.000 C 
ENDBRANCH  31  33
ENDBRANCH  29  31
ENDBRANCH   1  29
TORSDOF 5
ENDMDL
MODEL 6
REMARK VINA RESULT:      -6.1      2.375      5.483
REMARK  Name = 
REMARK  8 active torsions:
REMARK  status: ('A' for Active; 'I' for Inactive)
REMARK    1  A    between atoms: C_1  and  C_2
REMARK    2  A    between atoms: C_2  and  O_3
REMARK    3  A    between atoms: O_3  and  C_4
REMARK    4  A    between atoms: C_4  and  C_6
REMARK    5  A    between atoms: N_18  and  C_19
REMARK    6  A    between atoms: N_23  and  S_24
REMARK    7  A    between atoms: S_24  and  C_27
REMARK    8  A    between atoms: C_30  and  C_31
REMARK                            x       y       z     vdW  Elec       q    Type
REMARK                         _______ _______ _______ _____ _____    ______ ____
ROOT
ATOM      1  C   UNL     1       0.307  13.929  19.630  0.00  0.00    +0.000 C 
ATOM      2  C   UNL     1      -0.155  13.787  18.354  0.00  0.00    +0.000 C 
ATOM      3  C   UNL     1      -1.103  12.534  18.285  0.00  0.00    +0.000 C 
ATOM      4  C   UNL     1      -1.945  12.691  19.523  0.00  0.00    +0.000 C 
ATOM      5  C   UNL     1      -3.322  12.547  19.779  0.00  0.00    +0.000 A 
ATOM      6  C   UNL     1      -3.856  13.423  20.692  0.00  0.00    +0.000 A 
ATOM      7  C   UNL     1      -5.214  12.906  20.824  0.00  0.00    +0.000 A 
ATOM      8  C   UNL     1      -6.325  13.084  21.685  0.00  0.00    +0.000 A 
ATOM      9  C   UNL     1      -7.487  12.284  21.529  0.00  0.00    +0.000 A 
ATOM     10  C   UNL     1      -7.608  11.346  20.510  0.00  0.00    +0.000 A 
ATOM     11  C   UNL     1      -6.569  11.169  19.619  0.00  0.00    +0.000 A 
ATOM     12  C   UNL     1      -5.394  11.915  19.811  0.00  0.00    +0.000 A 
ATOM     13  N   UNL     1      -4.225  11.821  19.117  0.00  0.00    +0.000 N 
ATOM     14  C   UNL     1      -3.959  11.089  17.900  0.00  0.00    +0.000 C 
ATOM     15  C   UNL     1      -2.792  14.500  21.236  0.00  0.00    +0.000 C 
ATOM     16  O   UNL     1      -3.176  15.495  21.867  0.00  0.00    +0.000 OA
ATOM     17  C   UNL     1      -0.924  14.324  20.842  0.00  0.00    +0.000 C 
ATOM     18  N   UNL     1      -1.243  12.924  20.821  0.00  0.00    +0.000 NA
ENDROOT
BRANCH  18  19
ATOM     19  S   UNL     1      -1.308  12.190  22.368  0.00  0.00    +0.000 S 
ATOM     20  O   UNL     1      -0.309  12.754  23.233  0.00  0.00    +0.000 OA
ATOM     21  O   UNL     1      -2.694  12.131  22.763  0.00  0.00    +0.000 OA
BRANCH  19  22
ATOM     22  C   UNL     1      -0.700  10.482  22.052  0.00  0.00    +0.000 A 
ATOM     23  C   UNL     1       0.348   9.945  22.818  0.00  0.00    +0.000 A 
ATOM     24  C   UNL     1       1.217   9.011  22.235  0.00  0.00    +0.000 A 
ATOM     25  C   UNL     1       0.997   8.568  20.925  0.00  0.00    +0.000 A 
ATOM     26  C   UNL     1       2.063   7.841  20.151  0.00  0.00    +0.000 C 
ATOM     27  C   UNL     1      -0.193   8.934  20.276  0.00  0.00    +0.000 A 
ATOM     28  C   UNL     1      -1.065   9.869  20.850  0.00  0.00    +0.000 A 
ENDBRANCH  19  22
ENDBRANCH  18  19
BRANCH   1  29
ATOM     29  C   UNL     1       1.234  12.647  19.782  0.00  0.00    +0.000 C 
ATOM     30  O   UNL     1       1.343  11.747  18.980  0.00  0.00    +0.000 OA
BRANCH  29  31
ATOM     31  O   UNL     1       2.161  12.792  20.790  0.00  0.00    +0.000 OA
BRANCH  31  33
ATOM     32  C   UNL     1       3.998  14.001  21.837  0.00  0.00    +0.000 C 
ATOM     33  C   UNL     1       2.884  14.056  20.817  0.00  0.00    +0.000 C 
ENDBRANCH  31  33
ENDBRANCH  29  31
ENDBRANCH   1  29
TORSDOF 5
ENDMDL
MODEL 7
REMARK VINA RESULT:      -6.1      2.002      2.597
REMARK  Name = 
REMARK  8 active torsions:
REMARK  status: ('A' for Active; 'I' for Inactive)
REMARK    1  A    between atoms: C_1  and  C_2
REMARK    2  A    between atoms: C_2  and  O_3
REMARK    3  A    between atoms: O_3  and  C_4
REMARK    4  A    between atoms: C_4  and  C_6
REMARK    5  A    between atoms: N_18  and  C_19
REMARK    6  A    between atoms: N_23  and  S_24
REMARK    7  A    between atoms: S_24  and  C_27
REMARK    8  A    between atoms: C_30  and  C_31
REMARK                            x       y       z     vdW  Elec       q    Type
REMARK                         _______ _______ _______ _____ _____    ______ ____
ROOT
ATOM      1  C   UNL     1      -1.324  12.923  23.224  0.00  0.00    +0.000 C 
ATOM      2  C   UNL     1      -2.590  12.457  23.423  0.00  0.00    +0.000 C 
ATOM      3  C   UNL     1      -3.502  12.912  22.226  0.00  0.00    +0.000 C 
ATOM      4  C   UNL     1      -2.632  12.639  21.028  0.00  0.00    +0.000 C 
ATOM      5  C   UNL     1      -2.877  12.059  19.769  0.00  0.00    +0.000 A 
ATOM      6  C   UNL     1      -1.856  11.300  19.250  0.00  0.00    +0.000 A 
ATOM      7  C   UNL     1      -2.374  10.996  17.920  0.00  0.00    +0.000 A 
ATOM      8  C   UNL     1      -1.886  10.461  16.701  0.00  0.00    +0.000 A 
ATOM      9  C   UNL     1      -2.721  10.417  15.554  0.00  0.00    +0.000 A 
ATOM     10  C   UNL     1      -4.046  10.836  15.587  0.00  0.00    +0.000 A 
ATOM     11  C   UNL     1      -4.579  11.322  16.764  0.00  0.00    +0.000 A 
ATOM     12  C   UNL     1      -3.735  11.426  17.882  0.00  0.00    +0.000 A 
ATOM     13  N   UNL     1      -4.028  11.969  19.098  0.00  0.00    +0.000 N 
ATOM     14  C   UNL     1      -5.312  12.387  19.610  0.00  0.00    +0.000 C 
ATOM     15  C   UNL     1      -0.595  11.170  20.240  0.00  0.00    +0.000 C 
ATOM     16  O   UNL     1       0.287  10.328  20.021  0.00  0.00    +0.000 OA
ATOM     17  C   UNL     1      -0.475  12.240  21.826  0.00  0.00    +0.000 C 
ATOM     18  N   UNL     1      -1.236  13.170  21.041  0.00  0.00    +0.000 NA
ENDROOT
BRANCH  18  19
ATOM     19  S   UNL     1      -0.301  14.112  19.957  0.00  0.00    +0.000 S 
ATOM     20  O   UNL     1       0.009  13.357  18.775  0.00  0.00    +0.000 OA
ATOM     21  O   UNL     1      -0.914  15.415  19.875  0.00  0.00    +0.000 OA
BRANCH  19  22
ATOM     22  C   UNL     1       1.319  14.264  20.817  0.00  0.00    +0.000 A 
ATOM     23  C   UNL     1       1.539  15.296  21.745  0.00  0.00    +0.000 A 
ATOM     24  C   UNL     1       2.833  15.816  21.900  0.00  0.00    +0.000 A 
ATOM     25  C   UNL     1       3.904  15.261  21.187  0.00  0.00    +0.000 A 
ATOM     26  C   UNL     1       5.220  15.979  21.061  0.00  0.00    +0.000 C 
ATOM     27  C   UNL     1       3.695  14.079  20.460  0.00  0.00    +0.000 A 
ATOM     28  C   UNL     1       2.406  13.555  20.298  0.00  0.00    +0.000 A 
ENDBRANCH  19  22
ENDBRANCH  18  19
BRANCH   1  29
ATOM     29  C   UNL     1      -1.529  14.492  23.378  0.00  0.00    +0.000 C 
ATOM     30  O   UNL     1      -2.532  15.111  23.098  0.00  0.00    +0.000 OA
BRANCH  29  31
ATOM     31  O   UNL     1      -0.555  15.069  24.162  0.00  0.00    +0.000 OA
BRANCH  31  33
ATOM     32  C   UNL     1      -1.134  15.865  26.390  0.00  0.00    +0.000 C 
ATOM     33  C   UNL     1      -0.963  16.235  24.934  0.00  0.00    +0.000 C 
ENDBRANCH  31  33
ENDBRANCH  29  31
ENDBRANCH   1  29
TORSDOF 5
ENDMDL
MODEL 8
REMARK VINA RESULT:      -6.0      2.210      5.455
REMARK  Name = 
REMARK  8 active torsions:
REMARK  status: ('A' for Active; 'I' for Inactive)
REMARK    1  A    between atoms: C_1  and  C_2
REMARK    2  A    between atoms: C_2  and  O_3
REMARK    3  A    between atoms: O_3  and  C_4
REMARK    4  A    between atoms: C_4  and  C_6
REMARK    5  A    between atoms: N_18  and  C_19
REMARK    6  A    between atoms: N_23  and  S_24
REMARK    7  A    between atoms: S_24  and  C_27
REMARK    8  A    between atoms: C_30  and  C_31
REMARK                            x       y       z     vdW  Elec       q    Type
REMARK                         _______ _______ _______ _____ _____    ______ ____
ROOT
ATOM      1  C   UNL     1       0.495  16.330  20.957  0.00  0.00    +0.000 C 
ATOM      2  C   UNL     1      -0.511  17.192  20.635  0.00  0.00    +0.000 C 
ATOM      3  C   UNL     1      -1.775  16.368  20.194  0.00  0.00    +0.000 C 
ATOM      4  C   UNL     1      -1.835  15.279  21.232  0.00  0.00    +0.000 C 
ATOM      5  C   UNL     1      -2.886  14.713  21.978  0.00  0.00    +0.000 A 
ATOM      6  C   UNL     1      -2.577  14.345  23.265  0.00  0.00    +0.000 A 
ATOM      7  C   UNL     1      -3.808  13.678  23.675  0.00  0.00    +0.000 A 
ATOM      8  C   UNL     1      -4.249  12.852  24.739  0.00  0.00    +0.000 A 
ATOM      9  C   UNL     1      -5.558  12.302  24.722  0.00  0.00    +0.000 A 
ATOM     10  C   UNL     1      -6.469  12.589  23.711  0.00  0.00    +0.000 A 
ATOM     11  C   UNL     1      -6.099  13.426  22.678  0.00  0.00    +0.000 A 
ATOM     12  C   UNL     1      -4.784  13.918  22.660  0.00  0.00    +0.000 A 
ATOM     13  N   UNL     1      -4.189  14.667  21.689  0.00  0.00    +0.000 N 
ATOM     14  C   UNL     1      -4.799  15.306  20.546  0.00  0.00    +0.000 C 
ATOM     15  C   UNL     1      -1.068  14.712  23.685  0.00  0.00    +0.000 C 
ATOM     16  O   UNL     1      -0.722  14.668  24.873  0.00  0.00    +0.000 OA
ATOM     17  C   UNL     1       0.198  15.314  22.378  0.00  0.00    +0.000 C 
ATOM     18  N   UNL     1      -0.590  14.497  21.498  0.00  0.00    +0.000 NA
ENDROOT
BRANCH  18  19
ATOM     19  S   UNL     1      -0.212  12.827  21.554  0.00  0.00    +0.000 S 
ATOM     20  O   UNL     1       1.212  12.635  21.568  0.00  0.00    +0.000 OA
ATOM     21  O   UNL     1      -1.059  12.224  22.555  0.00  0.00    +0.000 OA
BRANCH  19  22
ATOM     22  C   UNL     1      -0.720  12.221  19.893  0.00  0.00    +0.000 A 
ATOM     23  C   UNL     1      -1.887  12.711  19.282  0.00  0.00    +0.000 A 
ATOM     24  C   UNL     1      -2.614  11.877  18.420  0.00  0.00    +0.000 A 
ATOM     25  C   UNL     1      -2.140  10.594  18.118  0.00  0.00    +0.000 A 
ATOM     26  C   UNL     1      -3.027   9.557  17.484  0.00  0.00    +0.000 C 
ATOM     27  C   UNL     1      -0.854  10.228  18.546  0.00  0.00    +0.000 A 
ATOM     28  C   UNL     1      -0.123  11.054  19.410  0.00  0.00    +0.000 A 
ENDBRANCH  19  22
ENDBRANCH  18  19
BRANCH   1  29
ATOM     29  C   UNL     1       0.839  15.692  19.542  0.00  0.00    +0.000 C 
ATOM     30  O   UNL     1       0.287  15.943  18.494  0.00  0.00    +0.000 OA
BRANCH  29  31
ATOM     31  O   UNL     1       2.048  15.034  19.548  0.00  0.00    +0.000 OA
BRANCH  31  33
ATOM     32  C   UNL     1       2.655  13.101  18.195  0.00  0.00    +0.000 C 
ATOM     33  C   UNL     1       2.551  14.609  18.249  0.00  0.00    +0.000 C 
ENDBRANCH  31  33
ENDBRANCH  29  31
ENDBRANCH   1  29
TORSDOF 5
ENDMDL
MODEL 9
REMARK VINA RESULT:      -6.0      7.333     10.361
REMARK  Name = 
REMARK  8 active torsions:
REMARK  status: ('A' for Active; 'I' for Inactive)
REMARK    1  A    between atoms: C_1  and  C_2
REMARK    2  A    between atoms: C_2  and  O_3
REMARK    3  A    between atoms: O_3  and  C_4
REMARK    4  A    between atoms: C_4  and  C_6
REMARK    5  A    between atoms: N_18  and  C_19
REMARK    6  A    between atoms: N_23  and  S_24
REMARK    7  A    between atoms: S_24  and  C_27
REMARK    8  A    between atoms: C_30  and  C_31
REMARK                            x       y       z     vdW  Elec       q    Type
REMARK                         _______ _______ _______ _____ _____    ______ ____
ROOT
ATOM      1  C   UNL     1       7.634  13.675  24.149  0.00  0.00    +0.000 C 
ATOM      2  C   UNL     1       8.043  12.384  23.986  0.00  0.00    +0.000 C 
ATOM      3  C   UNL     1       7.977  12.011  22.460  0.00  0.00    +0.000 C 
ATOM      4  C   UNL     1       8.577  13.225  21.800  0.00  0.00    +0.000 C 
ATOM      5  C   UNL     1       9.507  13.396  20.757  0.00  0.00    +0.000 A 
ATOM      6  C   UNL     1      10.367  14.459  20.890  0.00  0.00    +0.000 A 
ATOM      7  C   UNL     1      11.059  14.428  19.605  0.00  0.00    +0.000 A 
ATOM      8  C   UNL     1      11.921  15.269  18.858  0.00  0.00    +0.000 A 
ATOM      9  C   UNL     1      12.317  14.903  17.545  0.00  0.00    +0.000 A 
ATOM     10  C   UNL     1      11.930  13.700  16.964  0.00  0.00    +0.000 A 
ATOM     11  C   UNL     1      11.127  12.828  17.671  0.00  0.00    +0.000 A 
ATOM     12  C   UNL     1      10.683  13.219  18.945  0.00  0.00    +0.000 A 
ATOM     13  N   UNL     1       9.811  12.561  19.761  0.00  0.00    +0.000 N 
ATOM     14  C   UNL     1       9.283  11.223  19.619  0.00  0.00    +0.000 C 
ATOM     15  C   UNL     1      10.177  15.260  22.271  0.00  0.00    +0.000 C 
ATOM     16  O   UNL     1      11.030  16.079  22.641  0.00  0.00    +0.000 OA
ATOM     17  C   UNL     1       8.684  14.902  23.420  0.00  0.00    +0.000 C 
ATOM     18  N   UNL     1       8.041  14.566  22.181  0.00  0.00    +0.000 NA
ENDROOT
BRANCH  18  19
ATOM     19  S   UNL     1       7.445  15.912  21.306  0.00  0.00    +0.000 S 
ATOM     20  O   UNL     1       6.654  16.756  22.158  0.00  0.00    +0.000 OA
ATOM     21  O   UNL     1       8.540  16.445  20.532  0.00  0.00    +0.000 OA
BRANCH  19  22
ATOM     22  C   UNL     1       6.212  15.163  20.164  0.00  0.00    +0.000 A 
ATOM     23  C   UNL     1       6.531  14.947  18.812  0.00  0.00    +0.000 A 
ATOM     24  C   UNL     1       5.514  15.011  17.848  0.00  0.00    +0.000 A 
ATOM     25  C   UNL     1       4.185  15.218  18.239  0.00  0.00    +0.000 A 
ATOM     26  C   UNL     1       3.128  15.622  17.248  0.00  0.00    +0.000 C 
ATOM     27  C   UNL     1       3.868  15.183  19.606  0.00  0.00    +0.000 A 
ATOM     28  C   UNL     1       4.877  15.123  20.576  0.00  0.00    +0.000 A 
ENDBRANCH  19  22
ENDBRANCH  18  19
BRANCH   1  29
ATOM     29  C   UNL     1       6.094  13.576  23.770  0.00  0.00    +0.000 C 
ATOM     30  O   UNL     1       5.515  12.583  23.391  0.00  0.00    +0.000 OA
BRANCH  29  31
ATOM     31  O   UNL     1       5.379  14.669  24.208  0.00  0.00    +0.000 OA
BRANCH  31  33
ATOM     32  C   UNL     1       4.788  16.293  25.924  0.00  0.00    +0.000 C 
ATOM     33  C   UNL     1       5.709  15.157  25.540  0.00  0.00    +0.000 C 
ENDBRANCH  31  33
ENDBRANCH  29  31
ENDBRANCH   1  29
TORSDOF 5
ENDMDL
