MODEL 1
REMARK VINA RESULT:      -8.5      0.000      0.000
REMARK  Name = 
REMARK  6 active torsions:
REMARK  status: ('A' for Active; 'I' for Inactive)
REMARK    1  A    between atoms: C_1  and  C_2
REMARK    2  A    between atoms: N_4  and  C_5
REMARK    3  A    between atoms: C_5  and  C_6
REMARK    4  A    between atoms: N_8  and  C_9
REMARK    5  A    between atoms: C_19  and  C_20
REMARK    6  A    between atoms: C_24  and  C_25
REMARK                            x       y       z     vdW  Elec       q    Type
REMARK                         _______ _______ _______ _____ _____    ______ ____
ROOT
ATOM      1  C   UNL     1       3.162   6.970  18.757  0.00  0.00    +0.000 A 
ATOM      2  C   UNL     1       2.949   7.861  17.700  0.00  0.00    +0.000 A 
ATOM      3  C   UNL     1       1.959   8.843  17.776  0.00  0.00    +0.000 A 
ATOM      4  C   UNL     1       1.205   8.969  18.939  0.00  0.00    +0.000 A 
ATOM      5  C   UNL     1       1.387   8.098  20.021  0.00  0.00    +0.000 A 
ATOM      6  C   UNL     1       2.341   7.069  19.895  0.00  0.00    +0.000 A 
ATOM      7  C   UNL     1       0.608   8.236  21.311  0.00  0.00    +0.000 C 
ATOM      8  C   UNL     1       0.896   9.549  22.045  0.00  0.00    +0.000 C 
ATOM      9  C   UNL     1       0.154  10.750  21.457  0.00  0.00    +0.000 C 
ATOM     10  C   UNL     1       0.609  11.094  20.081  0.00  0.00    +0.000 C 
ATOM     11  C   UNL     1       1.303  12.171  19.676  0.00  0.00    +0.000 C 
ATOM     12  C   UNL     1       0.279  10.114  19.015  0.00  0.00    +0.000 C 
ATOM     13  O   UNL     1      -0.633  10.273  18.220  0.00  0.00    +0.000 OA
ENDROOT
BRANCH   1  16
ATOM     14  C   UNL     1       6.258   4.988  18.571  0.00  0.00    +0.000 C 
ATOM     15  C   UNL     1       5.529   6.281  18.265  0.00  0.00    +0.000 C 
ATOM     16  N   UNL     1       4.194   6.001  18.701  0.00  0.00    +0.000 N 
ATOM     17  C   UNL     1       4.031   4.636  18.869  0.00  0.00    +0.000 C 
ATOM     18  O   UNL     1       3.011   4.010  19.111  0.00  0.00    +0.000 OA
ATOM     19  O   UNL     1       5.222   3.999  18.649  0.00  0.00    +0.000 OA
BRANCH  14  20
ATOM     20  C   UNL     1       7.260   4.582  17.494  0.00  0.00    +0.000 C 
BRANCH  20  24
ATOM     21  C   UNL     1       6.047   3.956  13.959  0.00  0.00    +0.000 C 
ATOM     22  C   UNL     1       6.866   4.578  15.057  0.00  0.00    +0.000 C 
ATOM     23  O   UNL     1       7.671   5.481  14.859  0.00  0.00    +0.000 OA
ATOM     24  N   UNL     1       6.598   4.066  16.305  0.00  0.00    +0.000 N 
ATOM     25  H   UNL     1       6.152   3.158  16.368  0.00  0.00    +0.000 HD
ENDBRANCH  20  24
ENDBRANCH  14  20
ENDBRANCH   1  16
BRANCH  11  26
ATOM     26  C   UNL     1       1.773  13.230  20.563  0.00  0.00    +0.000 A 
ATOM     27  C   UNL     1       0.851  14.032  21.241  0.00  0.00    +0.000 A 
ATOM     28  C   UNL     1       1.288  15.135  21.974  0.00  0.00    +0.000 A 
ATOM     29  C   UNL     1       2.650  15.432  22.040  0.00  0.00    +0.000 A 
ATOM     30  C   UNL     1       3.583  14.602  21.410  0.00  0.00    +0.000 A 
ATOM     31  C   UNL     1       3.144  13.489  20.683  0.00  0.00    +0.000 A 
BRANCH  30  32
ATOM     32  C   UNL     1       4.982  14.915  21.470  0.00  0.00    +0.000 C 
ATOM     33  N   UNL     1       6.113  15.159  21.524  0.00  0.00    +0.000 NA
ENDBRANCH  30  32
ENDBRANCH  11  26
TORSDOF 5
ENDMDL
MODEL 2
REMARK VINA RESULT:      -8.5      1.452      1.644
REMARK  Name = 
REMARK  6 active torsions:
REMARK  status: ('A' for Active; 'I' for Inactive)
REMARK    1  A    between atoms: C_1  and  C_2
REMARK    2  A    between atoms: N_4  and  C_5
REMARK    3  A    between atoms: C_5  and  C_6
REMARK    4  A    between atoms: N_8  and  C_9
REMARK    5  A    between atoms: C_19  and  C_20
REMARK    6  A    between atoms: C_24  and  C_25
REMARK                            x       y       z     vdW  Elec       q    Type
REMARK                         _______ _______ _______ _____ _____    ______ ____
ROOT
ATOM      1  C   UNL     1       2.906   7.053  18.751  0.00  0.00    +0.000 A 
ATOM      2  C   UNL     1       2.636   7.771  17.581  0.00  0.00    +0.000 A 
ATOM      3  C   UNL     1       1.696   8.804  17.574  0.00  0.00    +0.000 A 
ATOM      4  C   UNL     1       1.054   9.158  18.757  0.00  0.00    +0.000 A 
ATOM      5  C   UNL     1       1.297   8.465  19.950  0.00  0.00    +0.000 A 
ATOM      6  C   UNL     1       2.194   7.380  19.919  0.00  0.00    +0.000 A 
ATOM      7  C   UNL     1       0.642   8.853  21.257  0.00  0.00    +0.000 C 
ATOM      8  C   UNL     1       1.047  10.250  21.738  0.00  0.00    +0.000 C 
ATOM      9  C   UNL     1       0.304  11.378  21.021  0.00  0.00    +0.000 C 
ATOM     10  C   UNL     1       0.649  11.470  19.573  0.00  0.00    +0.000 C 
ATOM     11  C   UNL     1       1.346  12.427  18.941  0.00  0.00    +0.000 C 
ATOM     12  C   UNL     1       0.185  10.348  18.716  0.00  0.00    +0.000 C 
ATOM     13  O   UNL     1      -0.786  10.426  17.982  0.00  0.00    +0.000 OA
ENDROOT
BRANCH   1  16
ATOM     14  C   UNL     1       5.903   4.918  18.829  0.00  0.00    +0.000 C 
ATOM     15  C   UNL     1       5.275   6.255  18.488  0.00  0.00    +0.000 C 
ATOM     16  N   UNL     1       3.889   6.033  18.774  0.00  0.00    +0.000 N 
ATOM     17  C   UNL     1       3.643   4.675  18.881  0.00  0.00    +0.000 C 
ATOM     18  O   UNL     1       2.574   4.097  18.996  0.00  0.00    +0.000 OA
ATOM     19  O   UNL     1       4.818   3.983  18.767  0.00  0.00    +0.000 OA
BRANCH  14  20
ATOM     20  C   UNL     1       6.992   4.488  17.850  0.00  0.00    +0.000 C 
BRANCH  20  24
ATOM     21  C   UNL     1       6.059   3.995  14.210  0.00  0.00    +0.000 C 
ATOM     22  C   UNL     1       6.777   4.587  15.392  0.00  0.00    +0.000 C 
ATOM     23  O   UNL     1       7.566   5.519  15.295  0.00  0.00    +0.000 OA
ATOM     24  N   UNL     1       6.434   4.011  16.593  0.00  0.00    +0.000 N 
ATOM     25  H   UNL     1       6.013   3.089  16.583  0.00  0.00    +0.000 HD
ENDBRANCH  20  24
ENDBRANCH  14  20
ENDBRANCH   1  16
BRANCH  11  26
ATOM     26  C   UNL     1       1.935  13.589  19.598  0.00  0.00    +0.000 A 
ATOM     27  C   UNL     1       2.682  13.425  20.767  0.00  0.00    +0.000 A 
ATOM     28  C   UNL     1       3.125  14.539  21.479  0.00  0.00    +0.000 A 
ATOM     29  C   UNL     1       2.830  15.823  21.016  0.00  0.00    +0.000 A 
ATOM     30  C   UNL     1       2.130  15.995  19.816  0.00  0.00    +0.000 A 
ATOM     31  C   UNL     1       1.696  14.875  19.098  0.00  0.00    +0.000 A 
BRANCH  30  32
ATOM     32  C   UNL     1       1.819  17.315  19.348  0.00  0.00    +0.000 C 
ATOM     33  N   UNL     1       1.561  18.376  18.963  0.00  0.00    +0.000 NA
ENDBRANCH  30  32
ENDBRANCH  11  26
TORSDOF 5
ENDMDL
MODEL 3
REMARK VINA RESULT:      -8.5      1.238      1.709
REMARK  Name = 
REMARK  6 active torsions:
REMARK  status: ('A' for Active; 'I' for Inactive)
REMARK    1  A    between atoms: C_1  and  C_2
REMARK    2  A    between atoms: N_4  and  C_5
REMARK    3  A    between atoms: C_5  and  C_6
REMARK    4  A    between atoms: N_8  and  C_9
REMARK    5  A    between atoms: C_19  and  C_20
REMARK    6  A    between atoms: C_24  and  C_25
REMARK                            x       y       z     vdW  Elec       q    Type
REMARK                         _______ _______ _______ _____ _____    ______ ____
ROOT
ATOM      1  C   UNL     1       3.044   7.014  18.755  0.00  0.00    +0.000 A 
ATOM      2  C   UNL     1       2.796   7.860  17.668  0.00  0.00    +0.000 A 
ATOM      3  C   UNL     1       1.815   8.851  17.740  0.00  0.00    +0.000 A 
ATOM      4  C   UNL     1       1.108   9.034  18.924  0.00  0.00    +0.000 A 
ATOM      5  C   UNL     1       1.326   8.210  20.035  0.00  0.00    +0.000 A 
ATOM      6  C   UNL     1       2.269   7.170  19.918  0.00  0.00    +0.000 A 
ATOM      7  C   UNL     1       0.599   8.411  21.346  0.00  0.00    +0.000 C 
ATOM      8  C   UNL     1       0.923   9.753  22.011  0.00  0.00    +0.000 C 
ATOM      9  C   UNL     1       0.166  10.932  21.399  0.00  0.00    +0.000 C 
ATOM     10  C   UNL     1       0.570  11.213  19.992  0.00  0.00    +0.000 C 
ATOM     11  C   UNL     1       1.254  12.265  19.514  0.00  0.00    +0.000 C 
ATOM     12  C   UNL     1       0.192  10.188  18.985  0.00  0.00    +0.000 C 
ATOM     13  O   UNL     1      -0.748  10.320  18.219  0.00  0.00    +0.000 OA
ENDROOT
BRANCH   1  16
ATOM     14  C   UNL     1       6.125   5.004  18.629  0.00  0.00    +0.000 C 
ATOM     15  C   UNL     1       5.427   6.321  18.355  0.00  0.00    +0.000 C 
ATOM     16  N   UNL     1       4.067   6.036  18.702  0.00  0.00    +0.000 N 
ATOM     17  C   UNL     1       3.881   4.666  18.786  0.00  0.00    +0.000 C 
ATOM     18  O   UNL     1       2.843   4.042  18.938  0.00  0.00    +0.000 OA
ATOM     19  O   UNL     1       5.076   4.026  18.596  0.00  0.00    +0.000 OA
BRANCH  14  20
ATOM     20  C   UNL     1       7.180   4.643  17.587  0.00  0.00    +0.000 C 
BRANCH  20  24
ATOM     21  C   UNL     1       6.108   3.909  14.027  0.00  0.00    +0.000 C 
ATOM     22  C   UNL     1       6.857   4.591  15.140  0.00  0.00    +0.000 C 
ATOM     23  O   UNL     1       7.611   5.538  14.953  0.00  0.00    +0.000 OA
ATOM     24  N   UNL     1       6.584   4.076  16.386  0.00  0.00    +0.000 N 
ATOM     25  H   UNL     1       6.192   3.143  16.448  0.00  0.00    +0.000 HD
ENDBRANCH  20  24
ENDBRANCH  14  20
ENDBRANCH   1  16
BRANCH  11  26
ATOM     26  C   UNL     1       1.764  13.358  20.334  0.00  0.00    +0.000 A 
ATOM     27  C   UNL     1       3.142  13.514  20.511  0.00  0.00    +0.000 A 
ATOM     28  C   UNL     1       3.631  14.464  21.407  0.00  0.00    +0.000 A 
ATOM     29  C   UNL     1       2.742  15.270  22.121  0.00  0.00    +0.000 A 
ATOM     30  C   UNL     1       1.364  15.158  21.907  0.00  0.00    +0.000 A 
ATOM     31  C   UNL     1       0.875  14.211  21.001  0.00  0.00    +0.000 A 
BRANCH  30  32
ATOM     32  C   UNL     1       0.452  15.981  22.650  0.00  0.00    +0.000 C 
ATOM     33  N   UNL     1      -0.293  16.638  23.245  0.00  0.00    +0.000 NA
ENDBRANCH  30  32
ENDBRANCH  11  26
TORSDOF 5
ENDMDL
MODEL 4
REMARK VINA RESULT:      -8.1      1.485      1.663
REMARK  Name = 
REMARK  6 active torsions:
REMARK  status: ('A' for Active; 'I' for Inactive)
REMARK    1  A    between atoms: C_1  and  C_2
REMARK    2  A    between atoms: N_4  and  C_5
REMARK    3  A    between atoms: C_5  and  C_6
REMARK    4  A    between atoms: N_8  and  C_9
REMARK    5  A    between atoms: C_19  and  C_20
REMARK    6  A    between atoms: C_24  and  C_25
REMARK                            x       y       z     vdW  Elec       q    Type
REMARK                         _______ _______ _______ _____ _____    ______ ____
ROOT
ATOM      1  C   UNL     1       2.228   7.544  19.131  0.00  0.00    +0.000 A 
ATOM      2  C   UNL     1       2.027   8.108  17.867  0.00  0.00    +0.000 A 
ATOM      3  C   UNL     1       1.187   9.211  17.698  0.00  0.00    +0.000 A 
ATOM      4  C   UNL     1       0.580   9.789  18.808  0.00  0.00    +0.000 A 
ATOM      5  C   UNL     1       0.756   9.257  20.091  0.00  0.00    +0.000 A 
ATOM      6  C   UNL     1       1.549   8.101  20.230  0.00  0.00    +0.000 A 
ATOM      7  C   UNL     1       0.140   9.888  21.321  0.00  0.00    +0.000 C 
ATOM      8  C   UNL     1       0.672  11.297  21.601  0.00  0.00    +0.000 C 
ATOM      9  C   UNL     1       0.037  12.372  20.719  0.00  0.00    +0.000 C 
ATOM     10  C   UNL     1       0.390  12.222  19.279  0.00  0.00    +0.000 C 
ATOM     11  C   UNL     1       1.174  13.010  18.525  0.00  0.00    +0.000 C 
ATOM     12  C   UNL     1      -0.175  11.036  18.585  0.00  0.00    +0.000 C 
ATOM     13  O   UNL     1      -1.134  11.096  17.834  0.00  0.00    +0.000 OA
ENDROOT
BRANCH   1  16
ATOM     14  C   UNL     1       4.967   5.089  19.256  0.00  0.00    +0.000 C 
ATOM     15  C   UNL     1       4.313   6.263  18.556  0.00  0.00    +0.000 C 
ATOM     16  N   UNL     1       3.112   6.453  19.314  0.00  0.00    +0.000 N 
ATOM     17  C   UNL     1       2.866   5.334  20.092  0.00  0.00    +0.000 C 
ATOM     18  O   UNL     1       1.886   5.075  20.772  0.00  0.00    +0.000 OA
ATOM     19  O   UNL     1       3.893   4.442  19.954  0.00  0.00    +0.000 OA
BRANCH  14  20
ATOM     20  C   UNL     1       5.616   4.092  18.300  0.00  0.00    +0.000 C 
BRANCH  20  24
ATOM     21  C   UNL     1       6.361   5.165  14.742  0.00  0.00    +0.000 C 
ATOM     22  C   UNL     1       6.647   4.646  16.126  0.00  0.00    +0.000 C 
ATOM     23  O   UNL     1       7.777   4.386  16.521  0.00  0.00    +0.000 OA
ATOM     24  N   UNL     1       5.526   4.531  16.915  0.00  0.00    +0.000 N 
ATOM     25  H   UNL     1       4.620   4.485  16.463  0.00  0.00    +0.000 HD
ENDBRANCH  20  24
ENDBRANCH  14  20
ENDBRANCH   1  16
BRANCH  11  26
ATOM     26  C   UNL     1       1.868  14.196  19.017  0.00  0.00    +0.000 A 
ATOM     27  C   UNL     1       1.277  15.455  18.884  0.00  0.00    +0.000 A 
ATOM     28  C   UNL     1       1.992  16.604  19.218  0.00  0.00    +0.000 A 
ATOM     29  C   UNL     1       3.299  16.495  19.697  0.00  0.00    +0.000 A 
ATOM     30  C   UNL     1       3.877  15.235  19.885  0.00  0.00    +0.000 A 
ATOM     31  C   UNL     1       3.154  14.083  19.559  0.00  0.00    +0.000 A 
BRANCH  30  32
ATOM     32  C   UNL     1       5.224  15.127  20.369  0.00  0.00    +0.000 C 
ATOM     33  N   UNL     1       6.315  15.042  20.749  0.00  0.00    +0.000 NA
ENDBRANCH  30  32
ENDBRANCH  11  26
TORSDOF 5
ENDMDL
MODEL 5
REMARK VINA RESULT:      -7.9      4.384      9.192
REMARK  Name = 
REMARK  6 active torsions:
REMARK  status: ('A' for Active; 'I' for Inactive)
REMARK    1  A    between atoms: C_1  and  C_2
REMARK    2  A    between atoms: N_4  and  C_5
REMARK    3  A    between atoms: C_5  and  C_6
REMARK    4  A    between atoms: N_8  and  C_9
REMARK    5  A    between atoms: C_19  and  C_20
REMARK    6  A    between atoms: C_24  and  C_25
REMARK                            x       y       z     vdW  Elec       q    Type
REMARK                         _______ _______ _______ _____ _____    ______ ____
ROOT
ATOM      1  C   UNL     1       8.668   9.432  18.692  0.00  0.00    +0.000 A 
ATOM      2  C   UNL     1       7.809   9.710  17.623  0.00  0.00    +0.000 A 
ATOM      3  C   UNL     1       7.112   8.687  16.977  0.00  0.00    +0.000 A 
ATOM      4  C   UNL     1       7.233   7.378  17.434  0.00  0.00    +0.000 A 
ATOM      5  C   UNL     1       8.081   7.057  18.501  0.00  0.00    +0.000 A 
ATOM      6  C   UNL     1       8.830   8.093  19.092  0.00  0.00    +0.000 A 
ATOM      7  C   UNL     1       8.202   5.649  19.042  0.00  0.00    +0.000 C 
ATOM      8  C   UNL     1       6.895   5.125  19.644  0.00  0.00    +0.000 C 
ATOM      9  C   UNL     1       5.892   4.645  18.595  0.00  0.00    +0.000 C 
ATOM     10  C   UNL     1       5.380   5.750  17.735  0.00  0.00    +0.000 C 
ATOM     11  C   UNL     1       4.147   6.281  17.705  0.00  0.00    +0.000 C 
ATOM     12  C   UNL     1       6.361   6.368  16.807  0.00  0.00    +0.000 C 
ATOM     13  O   UNL     1       6.397   6.121  15.613  0.00  0.00    +0.000 OA
ENDROOT
BRANCH   1  16
ATOM     14  C   UNL     1      10.145  11.861  21.030  0.00  0.00    +0.000 C 
ATOM     15  C   UNL     1       9.038  10.874  20.717  0.00  0.00    +0.000 C 
ATOM     16  N   UNL     1       9.344  10.471  19.378  0.00  0.00    +0.000 N 
ATOM     17  C   UNL     1      10.245  11.358  18.814  0.00  0.00    +0.000 C 
ATOM     18  O   UNL     1      10.646  11.415  17.662  0.00  0.00    +0.000 OA
ATOM     19  O   UNL     1      10.622  12.287  19.745  0.00  0.00    +0.000 OA
BRANCH  14  20
ATOM     20  C   UNL     1       9.673  13.079  21.818  0.00  0.00    +0.000 C 
BRANCH  20  24
ATOM     21  C   UNL     1       6.089  13.352  23.020  0.00  0.00    +0.000 C 
ATOM     22  C   UNL     1       7.591  13.386  23.109  0.00  0.00    +0.000 C 
ATOM     23  O   UNL     1       8.192  13.584  24.158  0.00  0.00    +0.000 OA
ATOM     24  N   UNL     1       8.221  13.136  21.913  0.00  0.00    +0.000 N 
ATOM     25  H   UNL     1       7.696  13.261  21.055  0.00  0.00    +0.000 HD
ENDBRANCH  20  24
ENDBRANCH  14  20
ENDBRANCH   1  16
BRANCH  11  26
ATOM     26  C   UNL     1       3.046   5.860  18.566  0.00  0.00    +0.000 A 
ATOM     27  C   UNL     1       2.700   6.628  19.681  0.00  0.00    +0.000 A 
ATOM     28  C   UNL     1       1.749   6.159  20.586  0.00  0.00    +0.000 A 
ATOM     29  C   UNL     1       1.134   4.924  20.373  0.00  0.00    +0.000 A 
ATOM     30  C   UNL     1       1.435   4.176  19.231  0.00  0.00    +0.000 A 
ATOM     31  C   UNL     1       2.382   4.652  18.317  0.00  0.00    +0.000 A 
BRANCH  30  32
ATOM     32  C   UNL     1       0.809   2.902  19.019  0.00  0.00    +0.000 C 
ATOM     33  N   UNL     1       0.295   1.878  18.853  0.00  0.00    +0.000 NA
ENDBRANCH  30  32
ENDBRANCH  11  26
TORSDOF 5
ENDMDL
MODEL 6
REMARK VINA RESULT:      -7.9      4.546      9.153
REMARK  Name = 
REMARK  6 active torsions:
REMARK  status: ('A' for Active; 'I' for Inactive)
REMARK    1  A    between atoms: C_1  and  C_2
REMARK    2  A    between atoms: N_4  and  C_5
REMARK    3  A    between atoms: C_5  and  C_6
REMARK    4  A    between atoms: N_8  and  C_9
REMARK    5  A    between atoms: C_19  and  C_20
REMARK    6  A    between atoms: C_24  and  C_25
REMARK                            x       y       z     vdW  Elec       q    Type
REMARK                         _______ _______ _______ _____ _____    ______ ____
ROOT
ATOM      1  C   UNL     1       8.689   9.507  18.736  0.00  0.00    +0.000 A 
ATOM      2  C   UNL     1       7.829   9.802  17.672  0.00  0.00    +0.000 A 
ATOM      3  C   UNL     1       7.127   8.789  17.016  0.00  0.00    +0.000 A 
ATOM      4  C   UNL     1       7.245   7.474  17.456  0.00  0.00    +0.000 A 
ATOM      5  C   UNL     1       8.093   7.137  18.517  0.00  0.00    +0.000 A 
ATOM      6  C   UNL     1       8.848   8.163  19.119  0.00  0.00    +0.000 A 
ATOM      7  C   UNL     1       8.211   5.723  19.041  0.00  0.00    +0.000 C 
ATOM      8  C   UNL     1       6.904   5.195  19.639  0.00  0.00    +0.000 C 
ATOM      9  C   UNL     1       5.897   4.731  18.586  0.00  0.00    +0.000 C 
ATOM     10  C   UNL     1       5.387   5.848  17.741  0.00  0.00    +0.000 C 
ATOM     11  C   UNL     1       4.155   6.383  17.719  0.00  0.00    +0.000 C 
ATOM     12  C   UNL     1       6.369   6.474  16.818  0.00  0.00    +0.000 C 
ATOM     13  O   UNL     1       6.402   6.242  15.621  0.00  0.00    +0.000 OA
ENDROOT
BRANCH   1  16
ATOM     14  C   UNL     1      10.127  11.944  21.091  0.00  0.00    +0.000 C 
ATOM     15  C   UNL     1       8.994  11.002  20.734  0.00  0.00    +0.000 C 
ATOM     16  N   UNL     1       9.370  10.536  19.433  0.00  0.00    +0.000 N 
ATOM     17  C   UNL     1      10.352  11.357  18.906  0.00  0.00    +0.000 C 
ATOM     18  O   UNL     1      10.833  11.352  17.783  0.00  0.00    +0.000 OA
ATOM     19  O   UNL     1      10.712  12.299  19.830  0.00  0.00    +0.000 OA
BRANCH  14  20
ATOM     20  C   UNL     1       9.666  13.211  21.805  0.00  0.00    +0.000 C 
BRANCH  20  24
ATOM     21  C   UNL     1       9.031  16.063  19.390  0.00  0.00    +0.000 C 
ATOM     22  C   UNL     1       8.703  14.877  20.257  0.00  0.00    +0.000 C 
ATOM     23  O   UNL     1       7.586  14.376  20.307  0.00  0.00    +0.000 OA
ATOM     24  N   UNL     1       9.783  14.386  20.953  0.00  0.00    +0.000 N 
ATOM     25  H   UNL     1      10.584  14.992  21.092  0.00  0.00    +0.000 HD
ENDBRANCH  20  24
ENDBRANCH  14  20
ENDBRANCH   1  16
BRANCH  11  26
ATOM     26  C   UNL     1       3.055   5.955  18.577  0.00  0.00    +0.000 A 
ATOM     27  C   UNL     1       2.693   6.727  19.685  0.00  0.00    +0.000 A 
ATOM     28  C   UNL     1       1.743   6.254  20.588  0.00  0.00    +0.000 A 
ATOM     29  C   UNL     1       1.144   5.010  20.381  0.00  0.00    +0.000 A 
ATOM     30  C   UNL     1       1.461   4.257  19.245  0.00  0.00    +0.000 A 
ATOM     31  C   UNL     1       2.407   4.738  18.333  0.00  0.00    +0.000 A 
BRANCH  30  32
ATOM     32  C   UNL     1       0.851   2.974  19.040  0.00  0.00    +0.000 C 
ATOM     33  N   UNL     1       0.361   1.940  18.863  0.00  0.00    +0.000 NA
ENDBRANCH  30  32
ENDBRANCH  11  26
TORSDOF 5
ENDMDL
MODEL 7
REMARK VINA RESULT:      -7.9      1.904      2.286
REMARK  Name = 
REMARK  6 active torsions:
REMARK  status: ('A' for Active; 'I' for Inactive)
REMARK    1  A    between atoms: C_1  and  C_2
REMARK    2  A    between atoms: N_4  and  C_5
REMARK    3  A    between atoms: C_5  and  C_6
REMARK    4  A    between atoms: N_8  and  C_9
REMARK    5  A    between atoms: C_19  and  C_20
REMARK    6  A    between atoms: C_24  and  C_25
REMARK                            x       y       z     vdW  Elec       q    Type
REMARK                         _______ _______ _______ _____ _____    ______ ____
ROOT
ATOM      1  C   UNL     1       2.249   7.459  19.104  0.00  0.00    +0.000 A 
ATOM      2  C   UNL     1       2.051   8.043  17.847  0.00  0.00    +0.000 A 
ATOM      3  C   UNL     1       1.214   9.150  17.694  0.00  0.00    +0.000 A 
ATOM      4  C   UNL     1       0.607   9.713  18.812  0.00  0.00    +0.000 A 
ATOM      5  C   UNL     1       0.780   9.161  20.087  0.00  0.00    +0.000 A 
ATOM      6  C   UNL     1       1.570   8.001  20.210  0.00  0.00    +0.000 A 
ATOM      7  C   UNL     1       0.164   9.775  21.325  0.00  0.00    +0.000 C 
ATOM      8  C   UNL     1       0.699  11.178  21.628  0.00  0.00    +0.000 C 
ATOM      9  C   UNL     1       0.069  12.268  20.761  0.00  0.00    +0.000 C 
ATOM     10  C   UNL     1       0.423  12.139  19.319  0.00  0.00    +0.000 C 
ATOM     11  C   UNL     1       1.210  12.936  18.578  0.00  0.00    +0.000 C 
ATOM     12  C   UNL     1      -0.144  10.965  18.607  0.00  0.00    +0.000 C 
ATOM     13  O   UNL     1      -1.102  11.039  17.855  0.00  0.00    +0.000 OA
ENDROOT
BRANCH   1  16
ATOM     14  C   UNL     1       4.941   4.950  19.109  0.00  0.00    +0.000 C 
ATOM     15  C   UNL     1       4.228   6.081  18.396  0.00  0.00    +0.000 C 
ATOM     16  N   UNL     1       3.130   6.363  19.271  0.00  0.00    +0.000 N 
ATOM     17  C   UNL     1       2.960   5.317  20.163  0.00  0.00    +0.000 C 
ATOM     18  O   UNL     1       2.063   5.140  20.972  0.00  0.00    +0.000 OA
ATOM     19  O   UNL     1       3.948   4.389  19.980  0.00  0.00    +0.000 OA
BRANCH  14  20
ATOM     20  C   UNL     1       5.455   3.862  18.169  0.00  0.00    +0.000 C 
BRANCH  20  24
ATOM     21  C   UNL     1       6.990   5.151  14.953  0.00  0.00    +0.000 C 
ATOM     22  C   UNL     1       6.955   4.571  16.342  0.00  0.00    +0.000 C 
ATOM     23  O   UNL     1       7.967   4.334  16.991  0.00  0.00    +0.000 OA
ATOM     24  N   UNL     1       5.683   4.370  16.825  0.00  0.00    +0.000 N 
ATOM     25  H   UNL     1       4.918   4.314  16.162  0.00  0.00    +0.000 HD
ENDBRANCH  20  24
ENDBRANCH  14  20
ENDBRANCH   1  16
BRANCH  11  26
ATOM     26  C   UNL     1       1.906  14.112  19.088  0.00  0.00    +0.000 A 
ATOM     27  C   UNL     1       3.231  14.006  19.521  0.00  0.00    +0.000 A 
ATOM     28  C   UNL     1       3.854  15.087  20.142  0.00  0.00    +0.000 A 
ATOM     29  C   UNL     1       3.157  16.283  20.323  0.00  0.00    +0.000 A 
ATOM     30  C   UNL     1       1.849  16.415  19.843  0.00  0.00    +0.000 A 
ATOM     31  C   UNL     1       1.228  15.332  19.210  0.00  0.00    +0.000 A 
BRANCH  30  32
ATOM     32  C   UNL     1       1.131  17.642  20.039  0.00  0.00    +0.000 C 
ATOM     33  N   UNL     1       0.547  18.631  20.187  0.00  0.00    +0.000 NA
ENDBRANCH  30  32
ENDBRANCH  11  26
TORSDOF 5
ENDMDL
MODEL 8
REMARK VINA RESULT:      -7.5      1.424      1.599
REMARK  Name = 
REMARK  6 active torsions:
REMARK  status: ('A' for Active; 'I' for Inactive)
REMARK    1  A    between atoms: C_1  and  C_2
REMARK    2  A    between atoms: N_4  and  C_5
REMARK    3  A    between atoms: C_5  and  C_6
REMARK    4  A    between atoms: N_8  and  C_9
REMARK    5  A    between atoms: C_19  and  C_20
REMARK    6  A    between atoms: C_24  and  C_25
REMARK                            x       y       z     vdW  Elec       q    Type
REMARK                         _______ _______ _______ _____ _____    ______ ____
ROOT
ATOM      1  C   UNL     1       2.487   7.194  18.961  0.00  0.00    +0.000 A 
ATOM      2  C   UNL     1       2.227   8.093  17.921  0.00  0.00    +0.000 A 
ATOM      3  C   UNL     1       1.303   9.128  18.081  0.00  0.00    +0.000 A 
ATOM      4  C   UNL     1       0.667   9.298  19.307  0.00  0.00    +0.000 A 
ATOM      5  C   UNL     1       0.900   8.421  20.373  0.00  0.00    +0.000 A 
ATOM      6  C   UNL     1       1.781   7.341  20.168  0.00  0.00    +0.000 A 
ATOM      7  C   UNL     1       0.252   8.605  21.728  0.00  0.00    +0.000 C 
ATOM      8  C   UNL     1       0.677   9.902  22.423  0.00  0.00    +0.000 C 
ATOM      9  C   UNL     1      -0.049  11.140  21.897  0.00  0.00    +0.000 C 
ATOM     10  C   UNL     1       0.296  11.456  20.482  0.00  0.00    +0.000 C 
ATOM     11  C   UNL     1       1.007  12.491  20.007  0.00  0.00    +0.000 C 
ATOM     12  C   UNL     1      -0.184  10.492  19.459  0.00  0.00    +0.000 C 
ATOM     13  O   UNL     1      -1.155  10.700  18.749  0.00  0.00    +0.000 OA
ENDROOT
BRANCH   1  16
ATOM     14  C   UNL     1       5.360   4.894  19.039  0.00  0.00    +0.000 C 
ATOM     15  C   UNL     1       4.818   6.296  19.238  0.00  0.00    +0.000 C 
ATOM     16  N   UNL     1       3.456   6.170  18.818  0.00  0.00    +0.000 N 
ATOM     17  C   UNL     1       3.292   4.998  18.099  0.00  0.00    +0.000 C 
ATOM     18  O   UNL     1       2.313   4.608  17.482  0.00  0.00    +0.000 OA
ATOM     19  O   UNL     1       4.464   4.292  18.095  0.00  0.00    +0.000 OA
BRANCH  14  20
ATOM     20  C   UNL     1       6.778   4.861  18.477  0.00  0.00    +0.000 C 
BRANCH  20  24
ATOM     21  C   UNL     1       8.145   8.309  17.697  0.00  0.00    +0.000 C 
ATOM     22  C   UNL     1       7.385   7.031  17.466  0.00  0.00    +0.000 C 
ATOM     23  O   UNL     1       6.822   6.771  16.410  0.00  0.00    +0.000 OA
ATOM     24  N   UNL     1       7.417   6.168  18.537  0.00  0.00    +0.000 N 
ATOM     25  H   UNL     1       7.643   6.542  19.452  0.00  0.00    +0.000 HD
ENDBRANCH  20  24
ENDBRANCH  14  20
ENDBRANCH   1  16
BRANCH  11  26
ATOM     26  C   UNL     1       1.614  13.525  20.840  0.00  0.00    +0.000 A 
ATOM     27  C   UNL     1       0.806  14.475  21.471  0.00  0.00    +0.000 A 
ATOM     28  C   UNL     1       1.384  15.548  22.148  0.00  0.00    +0.000 A 
ATOM     29  C   UNL     1       2.774  15.669  22.203  0.00  0.00    +0.000 A 
ATOM     30  C   UNL     1       3.589  14.692  21.621  0.00  0.00    +0.000 A 
ATOM     31  C   UNL     1       3.007  13.610  20.951  0.00  0.00    +0.000 A 
BRANCH  30  32
ATOM     32  C   UNL     1       5.017  14.824  21.670  0.00  0.00    +0.000 C 
ATOM     33  N   UNL     1       6.169  14.940  21.707  0.00  0.00    +0.000 NA
ENDBRANCH  30  32
ENDBRANCH  11  26
TORSDOF 5
ENDMDL
MODEL 9
REMARK VINA RESULT:      -7.5      2.079      2.525
REMARK  Name = 
REMARK  6 active torsions:
REMARK  status: ('A' for Active; 'I' for Inactive)
REMARK    1  A    between atoms: C_1  and  C_2
REMARK    2  A    between atoms: N_4  and  C_5
REMARK    3  A    between atoms: C_5  and  C_6
REMARK    4  A    between atoms: N_8  and  C_9
REMARK    5  A    between atoms: C_19  and  C_20
REMARK    6  A    between atoms: C_24  and  C_25
REMARK                            x       y       z     vdW  Elec       q    Type
REMARK                         _______ _______ _______ _____ _____    ______ ____
ROOT
ATOM      1  C   UNL     1       1.964   7.931  19.106  0.00  0.00    +0.000 A 
ATOM      2  C   UNL     1       1.699   8.473  17.843  0.00  0.00    +0.000 A 
ATOM      3  C   UNL     1       0.818   9.545  17.692  0.00  0.00    +0.000 A 
ATOM      4  C   UNL     1       0.232  10.117  18.817  0.00  0.00    +0.000 A 
ATOM      5  C   UNL     1       0.471   9.607  20.099  0.00  0.00    +0.000 A 
ATOM      6  C   UNL     1       1.306   8.479  20.222  0.00  0.00    +0.000 A 
ATOM      7  C   UNL     1      -0.122  10.232  21.342  0.00  0.00    +0.000 C 
ATOM      8  C   UNL     1       0.372  11.661  21.587  0.00  0.00    +0.000 C 
ATOM      9  C   UNL     1      -0.328  12.705  20.716  0.00  0.00    +0.000 C 
ATOM     10  C   UNL     1      -0.021  12.548  19.266  0.00  0.00    +0.000 C 
ATOM     11  C   UNL     1       0.709  13.351  18.476  0.00  0.00    +0.000 C 
ATOM     12  C   UNL     1      -0.571  11.336  18.607  0.00  0.00    +0.000 C 
ATOM     13  O   UNL     1      -1.557  11.355  17.889  0.00  0.00    +0.000 OA
ENDROOT
BRANCH   1  16
ATOM     14  C   UNL     1       4.774   5.555  19.137  0.00  0.00    +0.000 C 
ATOM     15  C   UNL     1       4.041   6.683  18.440  0.00  0.00    +0.000 C 
ATOM     16  N   UNL     1       2.890   6.872  19.269  0.00  0.00    +0.000 N 
ATOM     17  C   UNL     1       2.728   5.779  20.104  0.00  0.00    +0.000 C 
ATOM     18  O   UNL     1       1.804   5.521  20.859  0.00  0.00    +0.000 OA
ATOM     19  O   UNL     1       3.770   4.909  19.931  0.00  0.00    +0.000 OA
BRANCH  14  20
ATOM     20  C   UNL     1       5.387   4.539  18.178  0.00  0.00    +0.000 C 
BRANCH  20  24
ATOM     21  C   UNL     1       3.403   1.311  18.257  0.00  0.00    +0.000 C 
ATOM     22  C   UNL     1       3.774   2.704  17.824  0.00  0.00    +0.000 C 
ATOM     23  O   UNL     1       3.108   3.353  17.027  0.00  0.00    +0.000 OA
ATOM     24  N   UNL     1       4.905   3.190  18.437  0.00  0.00    +0.000 N 
ATOM     25  H   UNL     1       5.552   2.528  18.851  0.00  0.00    +0.000 HD
ENDBRANCH  20  24
ENDBRANCH  14  20
ENDBRANCH   1  16
BRANCH  11  26
ATOM     26  C   UNL     1       1.381  14.565  18.929  0.00  0.00    +0.000 A 
ATOM     27  C   UNL     1       0.718  15.794  18.867  0.00  0.00    +0.000 A 
ATOM     28  C   UNL     1       1.399  16.974  19.161  0.00  0.00    +0.000 A 
ATOM     29  C   UNL     1       2.745  16.927  19.529  0.00  0.00    +0.000 A 
ATOM     30  C   UNL     1       3.399  15.697  19.648  0.00  0.00    +0.000 A 
ATOM     31  C   UNL     1       2.711  14.512  19.363  0.00  0.00    +0.000 A 
BRANCH  30  32
ATOM     32  C   UNL     1       4.786  15.652  20.018  0.00  0.00    +0.000 C 
ATOM     33  N   UNL     1       5.901  15.614  20.326  0.00  0.00    +0.000 NA
ENDBRANCH  30  32
ENDBRANCH  11  26
TORSDOF 5
ENDMDL
