MODEL 1
REMARK VINA RESULT:      -8.4      0.000      0.000
REMARK  Name = 
REMARK  5 active torsions:
REMARK  status: ('A' for Active; 'I' for Inactive)
REMARK    1  A    between atoms: C_1  and  O_2
REMARK    2  A    between atoms: O_2  and  C_3
REMARK    3  A    between atoms: C_7  and  N_8
REMARK    4  A    between atoms: C_11  and  C_12
REMARK    5  A    between atoms: C_17  and  C_18
REMARK                            x       y       z     vdW  Elec       q    Type
REMARK                         _______ _______ _______ _____ _____    ______ ____
ROOT
ATOM      1  N   UNL     1       4.585   3.245  17.382  0.00  0.00    +0.000 N 
ATOM      2  C   UNL     1       3.847   3.856  18.430  0.00  0.00    +0.000 A 
ATOM      3  C   UNL     1       3.447   3.099  19.508  0.00  0.00    +0.000 A 
ATOM      4  C   UNL     1       2.664   3.724  20.465  0.00  0.00    +0.000 A 
ATOM      5  N   UNL     1       2.294   5.025  20.349  0.00  0.00    +0.000 NA
ATOM      6  C   UNL     1       2.707   5.684  19.256  0.00  0.00    +0.000 A 
ATOM      7  N   UNL     1       3.470   5.137  18.301  0.00  0.00    +0.000 NA
ATOM      8  H   UNL     1       5.120   2.451  17.726  0.00  0.00    +0.000 HD
ENDROOT
BRANCH   1  13
ATOM      9  C   UNL     1       7.052   5.718  16.037  0.00  0.00    +0.000 A 
ATOM     10  C   UNL     1       7.101   5.317  14.702  0.00  0.00    +0.000 A 
ATOM     11  C   UNL     1       6.339   4.233  14.261  0.00  0.00    +0.000 A 
ATOM     12  C   UNL     1       5.505   3.555  15.152  0.00  0.00    +0.000 A 
ATOM     13  C   UNL     1       5.408   3.972  16.481  0.00  0.00    +0.000 A 
ATOM     14  C   UNL     1       6.225   5.026  16.923  0.00  0.00    +0.000 A 
BRANCH   9  16
ATOM     15  C   UNL     1       7.547   7.449  17.587  0.00  0.00    +0.000 C 
ATOM     16  O   UNL     1       7.841   6.789  16.359  0.00  0.00    +0.000 OA
ENDBRANCH   9  16
ENDBRANCH   1  13
BRANCH   6  17
ATOM     17  C   UNL     1       2.293   7.090  19.086  0.00  0.00    +0.000 A 
ATOM     18  C   UNL     1       1.672   7.807  20.127  0.00  0.00    +0.000 A 
ATOM     19  C   UNL     1       1.266   9.134  19.959  0.00  0.00    +0.000 A 
ATOM     20  C   UNL     1       1.476   9.780  18.745  0.00  0.00    +0.000 A 
ATOM     21  C   UNL     1       2.092   9.100  17.700  0.00  0.00    +0.000 A 
ATOM     22  C   UNL     1       2.496   7.773  17.869  0.00  0.00    +0.000 A 
ENDBRANCH   6  17
BRANCH   4  23
ATOM     23  C   UNL     1       2.174   2.940  21.670  0.00  0.00    +0.000 C 
ATOM     24  F   UNL     1       2.236   3.656  22.835  0.00  0.00    +0.000 F 
ATOM     25  F   UNL     1       0.875   2.545  21.559  0.00  0.00    +0.000 F 
ATOM     26  F   UNL     1       2.898   1.810  21.899  0.00  0.00    +0.000 F 
ENDBRANCH   4  23
TORSDOF 4
ENDMDL
MODEL 2
REMARK VINA RESULT:      -8.3      3.821      7.094
REMARK  Name = 
REMARK  5 active torsions:
REMARK  status: ('A' for Active; 'I' for Inactive)
REMARK    1  A    between atoms: C_1  and  O_2
REMARK    2  A    between atoms: O_2  and  C_3
REMARK    3  A    between atoms: C_7  and  N_8
REMARK    4  A    between atoms: C_11  and  C_12
REMARK    5  A    between atoms: C_17  and  C_18
REMARK                            x       y       z     vdW  Elec       q    Type
REMARK                         _______ _______ _______ _____ _____    ______ ____
ROOT
ATOM      1  N   UNL     1       2.065   9.113  17.682  0.00  0.00    +0.000 N 
ATOM      2  C   UNL     1       2.802   7.918  17.890  0.00  0.00    +0.000 A 
ATOM      3  C   UNL     1       4.007   7.743  17.249  0.00  0.00    +0.000 A 
ATOM      4  C   UNL     1       4.649   6.528  17.426  0.00  0.00    +0.000 A 
ATOM      5  N   UNL     1       4.115   5.541  18.189  0.00  0.00    +0.000 NA
ATOM      6  C   UNL     1       2.925   5.783  18.759  0.00  0.00    +0.000 A 
ATOM      7  N   UNL     1       2.260   6.938  18.632  0.00  0.00    +0.000 NA
ATOM      8  H   UNL     1       2.683   9.888  17.451  0.00  0.00    +0.000 HD
ENDROOT
BRANCH   1  13
ATOM      9  C   UNL     1       0.408  10.297  20.822  0.00  0.00    +0.000 A 
ATOM     10  C   UNL     1      -0.850  10.634  20.326  0.00  0.00    +0.000 A 
ATOM     11  C   UNL     1      -1.138  10.485  18.967  0.00  0.00    +0.000 A 
ATOM     12  C   UNL     1      -0.170   9.977  18.099  0.00  0.00    +0.000 A 
ATOM     13  C   UNL     1       1.080   9.590  18.587  0.00  0.00    +0.000 A 
ATOM     14  C   UNL     1       1.373   9.802  19.945  0.00  0.00    +0.000 A 
BRANCH   9  16
ATOM     15  C   UNL     1      -0.209   9.671  23.030  0.00  0.00    +0.000 C 
ATOM     16  O   UNL     1       0.580  10.486  22.167  0.00  0.00    +0.000 OA
ENDBRANCH   9  16
ENDBRANCH   1  13
BRANCH   6  17
ATOM     17  C   UNL     1       2.304   4.717  19.569  0.00  0.00    +0.000 A 
ATOM     18  C   UNL     1       2.639   4.531  20.924  0.00  0.00    +0.000 A 
ATOM     19  C   UNL     1       2.062   3.510  21.685  0.00  0.00    +0.000 A 
ATOM     20  C   UNL     1       1.131   2.652  21.109  0.00  0.00    +0.000 A 
ATOM     21  C   UNL     1       0.776   2.813  19.775  0.00  0.00    +0.000 A 
ATOM     22  C   UNL     1       1.355   3.834  19.015  0.00  0.00    +0.000 A 
ENDBRANCH   6  17
BRANCH   4  23
ATOM     23  C   UNL     1       5.974   6.266  16.732  0.00  0.00    +0.000 C 
ATOM     24  F   UNL     1       6.599   5.135  17.183  0.00  0.00    +0.000 F 
ATOM     25  F   UNL     1       5.848   6.095  15.386  0.00  0.00    +0.000 F 
ATOM     26  F   UNL     1       6.874   7.272  16.906  0.00  0.00    +0.000 F 
ENDBRANCH   4  23
TORSDOF 4
ENDMDL
MODEL 3
REMARK VINA RESULT:      -8.3      3.830      7.150
REMARK  Name = 
REMARK  5 active torsions:
REMARK  status: ('A' for Active; 'I' for Inactive)
REMARK    1  A    between atoms: C_1  and  O_2
REMARK    2  A    between atoms: O_2  and  C_3
REMARK    3  A    between atoms: C_7  and  N_8
REMARK    4  A    between atoms: C_11  and  C_12
REMARK    5  A    between atoms: C_17  and  C_18
REMARK                            x       y       z     vdW  Elec       q    Type
REMARK                         _______ _______ _______ _____ _____    ______ ____
ROOT
ATOM      1  N   UNL     1       2.075   9.096  17.673  0.00  0.00    +0.000 N 
ATOM      2  C   UNL     1       2.815   7.904  17.882  0.00  0.00    +0.000 A 
ATOM      3  C   UNL     1       4.023   7.735  17.245  0.00  0.00    +0.000 A 
ATOM      4  C   UNL     1       4.669   6.522  17.422  0.00  0.00    +0.000 A 
ATOM      5  N   UNL     1       4.137   5.532  18.182  0.00  0.00    +0.000 NA
ATOM      6  C   UNL     1       2.944   5.769  18.749  0.00  0.00    +0.000 A 
ATOM      7  N   UNL     1       2.275   6.922  18.621  0.00  0.00    +0.000 NA
ATOM      8  H   UNL     1       2.690   9.874  17.445  0.00  0.00    +0.000 HD
ENDROOT
BRANCH   1  13
ATOM      9  C   UNL     1       0.407  10.279  20.808  0.00  0.00    +0.000 A 
ATOM     10  C   UNL     1      -0.855  10.604  20.309  0.00  0.00    +0.000 A 
ATOM     11  C   UNL     1      -1.140  10.447  18.952  0.00  0.00    +0.000 A 
ATOM     12  C   UNL     1      -0.168   9.944  18.086  0.00  0.00    +0.000 A 
ATOM     13  C   UNL     1       1.085   9.569  18.576  0.00  0.00    +0.000 A 
ATOM     14  C   UNL     1       1.376   9.789  19.933  0.00  0.00    +0.000 A 
BRANCH   9  16
ATOM     15  C   UNL     1      -0.514  10.104  22.991  0.00  0.00    +0.000 C 
ATOM     16  O   UNL     1       0.576  10.475  22.152  0.00  0.00    +0.000 OA
ENDBRANCH   9  16
ENDBRANCH   1  13
BRANCH   6  17
ATOM     17  C   UNL     1       2.324   4.699  19.555  0.00  0.00    +0.000 A 
ATOM     18  C   UNL     1       1.367   3.824  19.006  0.00  0.00    +0.000 A 
ATOM     19  C   UNL     1       0.768   2.822  19.776  0.00  0.00    +0.000 A 
ATOM     20  C   UNL     1       1.115   2.668  21.114  0.00  0.00    +0.000 A 
ATOM     21  C   UNL     1       2.061   3.514  21.683  0.00  0.00    +0.000 A 
ATOM     22  C   UNL     1       2.657   4.516  20.912  0.00  0.00    +0.000 A 
ENDBRANCH   6  17
BRANCH   4  23
ATOM     23  C   UNL     1       5.997   6.265  16.731  0.00  0.00    +0.000 C 
ATOM     24  F   UNL     1       5.875   6.116  15.376  0.00  0.00    +0.000 F 
ATOM     25  F   UNL     1       6.894   7.277  16.903  0.00  0.00    +0.000 F 
ATOM     26  F   UNL     1       6.612   5.132  17.167  0.00  0.00    +0.000 F 
ENDBRANCH   4  23
TORSDOF 4
ENDMDL
MODEL 4
REMARK VINA RESULT:      -8.3      2.581      5.893
REMARK  Name = 
REMARK  5 active torsions:
REMARK  status: ('A' for Active; 'I' for Inactive)
REMARK    1  A    between atoms: C_1  and  O_2
REMARK    2  A    between atoms: O_2  and  C_3
REMARK    3  A    between atoms: C_7  and  N_8
REMARK    4  A    between atoms: C_11  and  C_12
REMARK    5  A    between atoms: C_17  and  C_18
REMARK                            x       y       z     vdW  Elec       q    Type
REMARK                         _______ _______ _______ _____ _____    ______ ____
ROOT
ATOM      1  N   UNL     1       1.577   7.516  20.861  0.00  0.00    +0.000 N 
ATOM      2  C   UNL     1       2.016   6.297  20.283  0.00  0.00    +0.000 A 
ATOM      3  C   UNL     1       1.747   5.108  20.922  0.00  0.00    +0.000 A 
ATOM      4  C   UNL     1       2.264   3.953  20.356  0.00  0.00    +0.000 A 
ATOM      5  N   UNL     1       3.013   3.984  19.225  0.00  0.00    +0.000 NA
ATOM      6  C   UNL     1       3.248   5.186  18.679  0.00  0.00    +0.000 A 
ATOM      7  N   UNL     1       2.771   6.335  19.174  0.00  0.00    +0.000 NA
ATOM      8  H   UNL     1       0.745   7.373  21.430  0.00  0.00    +0.000 HD
ENDROOT
BRANCH   1  13
ATOM      9  C   UNL     1       0.779  11.068  19.991  0.00  0.00    +0.000 A 
ATOM     10  C   UNL     1       1.163  11.086  18.650  0.00  0.00    +0.000 A 
ATOM     11  C   UNL     1       1.692   9.942  18.050  0.00  0.00    +0.000 A 
ATOM     12  C   UNL     1       1.822   8.763  18.787  0.00  0.00    +0.000 A 
ATOM     13  C   UNL     1       1.400   8.713  20.116  0.00  0.00    +0.000 A 
ATOM     14  C   UNL     1       0.924   9.889  20.722  0.00  0.00    +0.000 A 
BRANCH   9  16
ATOM     15  C   UNL     1      -0.312  12.201  21.772  0.00  0.00    +0.000 C 
ATOM     16  O   UNL     1       0.276  12.246  20.475  0.00  0.00    +0.000 OA
ENDBRANCH   9  16
ENDBRANCH   1  13
BRANCH   6  17
ATOM     17  C   UNL     1       4.087   5.255  17.466  0.00  0.00    +0.000 A 
ATOM     18  C   UNL     1       4.451   6.488  16.891  0.00  0.00    +0.000 A 
ATOM     19  C   UNL     1       5.231   6.551  15.733  0.00  0.00    +0.000 A 
ATOM     20  C   UNL     1       5.671   5.381  15.123  0.00  0.00    +0.000 A 
ATOM     21  C   UNL     1       5.332   4.148  15.670  0.00  0.00    +0.000 A 
ATOM     22  C   UNL     1       4.551   4.088  16.827  0.00  0.00    +0.000 A 
ENDBRANCH   6  17
BRANCH   4  23
ATOM     23  C   UNL     1       2.019   2.611  21.022  0.00  0.00    +0.000 C 
ATOM     24  F   UNL     1       3.072   2.195  21.791  0.00  0.00    +0.000 F 
ATOM     25  F   UNL     1       0.943   2.617  21.858  0.00  0.00    +0.000 F 
ATOM     26  F   UNL     1       1.803   1.606  20.129  0.00  0.00    +0.000 F 
ENDBRANCH   4  23
TORSDOF 4
ENDMDL
MODEL 5
REMARK VINA RESULT:      -8.2      2.595      5.926
REMARK  Name = 
REMARK  5 active torsions:
REMARK  status: ('A' for Active; 'I' for Inactive)
REMARK    1  A    between atoms: C_1  and  O_2
REMARK    2  A    between atoms: O_2  and  C_3
REMARK    3  A    between atoms: C_7  and  N_8
REMARK    4  A    between atoms: C_11  and  C_12
REMARK    5  A    between atoms: C_17  and  C_18
REMARK                            x       y       z     vdW  Elec       q    Type
REMARK                         _______ _______ _______ _____ _____    ______ ____
ROOT
ATOM      1  N   UNL     1       1.582   7.520  20.865  0.00  0.00    +0.000 N 
ATOM      2  C   UNL     1       2.021   6.300  20.289  0.00  0.00    +0.000 A 
ATOM      3  C   UNL     1       1.769   5.113  20.939  0.00  0.00    +0.000 A 
ATOM      4  C   UNL     1       2.286   3.958  20.374  0.00  0.00    +0.000 A 
ATOM      5  N   UNL     1       3.020   3.987  19.232  0.00  0.00    +0.000 NA
ATOM      6  C   UNL     1       3.240   5.187  18.676  0.00  0.00    +0.000 A 
ATOM      7  N   UNL     1       2.762   6.336  19.170  0.00  0.00    +0.000 NA
ATOM      8  H   UNL     1       0.758   7.375  21.445  0.00  0.00    +0.000 HD
ENDROOT
BRANCH   1  13
ATOM      9  C   UNL     1       0.693  11.045  19.972  0.00  0.00    +0.000 A 
ATOM     10  C   UNL     1       1.114  11.076  18.642  0.00  0.00    +0.000 A 
ATOM     11  C   UNL     1       1.696   9.949  18.058  0.00  0.00    +0.000 A 
ATOM     12  C   UNL     1       1.844   8.775  18.798  0.00  0.00    +0.000 A 
ATOM     13  C   UNL     1       1.386   8.711  20.115  0.00  0.00    +0.000 A 
ATOM     14  C   UNL     1       0.857   9.870  20.707  0.00  0.00    +0.000 A 
BRANCH   9  16
ATOM     15  C   UNL     1      -1.129  12.091  21.081  0.00  0.00    +0.000 C 
ATOM     16  O   UNL     1       0.139  12.205  20.441  0.00  0.00    +0.000 OA
ENDBRANCH   9  16
ENDBRANCH   1  13
BRANCH   6  17
ATOM     17  C   UNL     1       4.063   5.254  17.452  0.00  0.00    +0.000 A 
ATOM     18  C   UNL     1       4.499   4.088  16.793  0.00  0.00    +0.000 A 
ATOM     19  C   UNL     1       5.292   4.153  15.643  0.00  0.00    +0.000 A 
ATOM     20  C   UNL     1       5.665   5.387  15.121  0.00  0.00    +0.000 A 
ATOM     21  C   UNL     1       5.245   6.556  15.746  0.00  0.00    +0.000 A 
ATOM     22  C   UNL     1       4.453   6.489  16.897  0.00  0.00    +0.000 A 
ENDBRANCH   6  17
BRANCH   4  23
ATOM     23  C   UNL     1       2.059   2.618  21.051  0.00  0.00    +0.000 C 
ATOM     24  F   UNL     1       1.021   2.640  21.943  0.00  0.00    +0.000 F 
ATOM     25  F   UNL     1       1.759   1.620  20.174  0.00  0.00    +0.000 F 
ATOM     26  F   UNL     1       3.139   2.192  21.761  0.00  0.00    +0.000 F 
ENDBRANCH   4  23
TORSDOF 4
ENDMDL
MODEL 6
REMARK VINA RESULT:      -8.1      3.184      5.037
REMARK  Name = 
REMARK  5 active torsions:
REMARK  status: ('A' for Active; 'I' for Inactive)
REMARK    1  A    between atoms: C_1  and  O_2
REMARK    2  A    between atoms: O_2  and  C_3
REMARK    3  A    between atoms: C_7  and  N_8
REMARK    4  A    between atoms: C_11  and  C_12
REMARK    5  A    between atoms: C_17  and  C_18
REMARK                            x       y       z     vdW  Elec       q    Type
REMARK                         _______ _______ _______ _____ _____    ______ ____
ROOT
ATOM      1  N   UNL     1       5.018   7.300  16.850  0.00  0.00    +0.000 N 
ATOM      2  C   UNL     1       3.812   7.277  17.597  0.00  0.00    +0.000 A 
ATOM      3  C   UNL     1       3.068   8.429  17.720  0.00  0.00    +0.000 A 
ATOM      4  C   UNL     1       1.940   8.372  18.523  0.00  0.00    +0.000 A 
ATOM      5  N   UNL     1       1.581   7.236  19.174  0.00  0.00    +0.000 NA
ATOM      6  C   UNL     1       2.374   6.165  19.020  0.00  0.00    +0.000 A 
ATOM      7  N   UNL     1       3.471   6.156  18.253  0.00  0.00    +0.000 NA
ATOM      8  H   UNL     1       4.986   8.014  16.125  0.00  0.00    +0.000 HD
ENDROOT
BRANCH   1  13
ATOM      9  C   UNL     1       5.792   4.483  14.509  0.00  0.00    +0.000 A 
ATOM     10  C   UNL     1       6.876   3.905  15.168  0.00  0.00    +0.000 A 
ATOM     11  C   UNL     1       7.351   4.452  16.362  0.00  0.00    +0.000 A 
ATOM     12  C   UNL     1       6.729   5.572  16.915  0.00  0.00    +0.000 A 
ATOM     13  C   UNL     1       5.613   6.136  16.293  0.00  0.00    +0.000 A 
ATOM     14  C   UNL     1       5.184   5.610  15.063  0.00  0.00    +0.000 A 
BRANCH   9  16
ATOM     15  C   UNL     1       6.452   3.557  12.423  0.00  0.00    +0.000 C 
ATOM     16  O   UNL     1       5.412   3.867  13.347  0.00  0.00    +0.000 OA
ENDBRANCH   9  16
ENDBRANCH   1  13
BRANCH   6  17
ATOM     17  C   UNL     1       2.027   4.925  19.741  0.00  0.00    +0.000 A 
ATOM     18  C   UNL     1       2.434   4.709  21.072  0.00  0.00    +0.000 A 
ATOM     19  C   UNL     1       2.119   3.526  21.748  0.00  0.00    +0.000 A 
ATOM     20  C   UNL     1       1.386   2.531  21.110  0.00  0.00    +0.000 A 
ATOM     21  C   UNL     1       0.966   2.718  19.797  0.00  0.00    +0.000 A 
ATOM     22  C   UNL     1       1.283   3.901  19.123  0.00  0.00    +0.000 A 
ENDBRANCH   6  17
BRANCH   4  23
ATOM     23  C   UNL     1       1.086   9.613  18.715  0.00  0.00    +0.000 C 
ATOM     24  F   UNL     1       0.069   9.708  17.804  0.00  0.00    +0.000 F 
ATOM     25  F   UNL     1       0.483   9.664  19.935  0.00  0.00    +0.000 F 
ATOM     26  F   UNL     1       1.794  10.770  18.590  0.00  0.00    +0.000 F 
ENDBRANCH   4  23
TORSDOF 4
ENDMDL
MODEL 7
REMARK VINA RESULT:      -8.1      3.185      5.066
REMARK  Name = 
REMARK  5 active torsions:
REMARK  status: ('A' for Active; 'I' for Inactive)
REMARK    1  A    between atoms: C_1  and  O_2
REMARK    2  A    between atoms: O_2  and  C_3
REMARK    3  A    between atoms: C_7  and  N_8
REMARK    4  A    between atoms: C_11  and  C_12
REMARK    5  A    between atoms: C_17  and  C_18
REMARK                            x       y       z     vdW  Elec       q    Type
REMARK                         _______ _______ _______ _____ _____    ______ ____
ROOT
ATOM      1  N   UNL     1       5.024   7.303  16.835  0.00  0.00    +0.000 N 
ATOM      2  C   UNL     1       3.820   7.278  17.586  0.00  0.00    +0.000 A 
ATOM      3  C   UNL     1       3.076   8.429  17.712  0.00  0.00    +0.000 A 
ATOM      4  C   UNL     1       1.951   8.372  18.518  0.00  0.00    +0.000 A 
ATOM      5  N   UNL     1       1.594   7.235  19.169  0.00  0.00    +0.000 NA
ATOM      6  C   UNL     1       2.388   6.165  19.012  0.00  0.00    +0.000 A 
ATOM      7  N   UNL     1       3.483   6.156  18.242  0.00  0.00    +0.000 NA
ATOM      8  H   UNL     1       4.990   8.017  16.112  0.00  0.00    +0.000 HD
ENDROOT
BRANCH   1  13
ATOM      9  C   UNL     1       5.793   4.487  14.491  0.00  0.00    +0.000 A 
ATOM     10  C   UNL     1       6.881   3.911  15.146  0.00  0.00    +0.000 A 
ATOM     11  C   UNL     1       7.359   4.458  16.338  0.00  0.00    +0.000 A 
ATOM     12  C   UNL     1       6.738   5.577  16.894  0.00  0.00    +0.000 A 
ATOM     13  C   UNL     1       5.619   6.140  16.276  0.00  0.00    +0.000 A 
ATOM     14  C   UNL     1       5.185   5.614  15.048  0.00  0.00    +0.000 A 
BRANCH   9  16
ATOM     15  C   UNL     1       6.449   3.541  12.413  0.00  0.00    +0.000 C 
ATOM     16  O   UNL     1       5.410   3.871  13.331  0.00  0.00    +0.000 OA
ENDBRANCH   9  16
ENDBRANCH   1  13
BRANCH   6  17
ATOM     17  C   UNL     1       2.044   4.924  19.733  0.00  0.00    +0.000 A 
ATOM     18  C   UNL     1       1.290   3.902  19.123  0.00  0.00    +0.000 A 
ATOM     19  C   UNL     1       0.951   2.734  19.813  0.00  0.00    +0.000 A 
ATOM     20  C   UNL     1       1.361   2.557  21.129  0.00  0.00    +0.000 A 
ATOM     21  C   UNL     1       2.111   3.546  21.758  0.00  0.00    +0.000 A 
ATOM     22  C   UNL     1       2.448   4.713  21.067  0.00  0.00    +0.000 A 
ENDBRANCH   6  17
BRANCH   4  23
ATOM     23  C   UNL     1       1.096   9.612  18.713  0.00  0.00    +0.000 C 
ATOM     24  F   UNL     1       1.814  10.774  18.625  0.00  0.00    +0.000 F 
ATOM     25  F   UNL     1       0.105   9.730  17.786  0.00  0.00    +0.000 F 
ATOM     26  F   UNL     1       0.488   9.652  19.930  0.00  0.00    +0.000 F 
ENDBRANCH   4  23
TORSDOF 4
ENDMDL
MODEL 8
REMARK VINA RESULT:      -7.9      1.032      2.285
REMARK  Name = 
REMARK  5 active torsions:
REMARK  status: ('A' for Active; 'I' for Inactive)
REMARK    1  A    between atoms: C_1  and  O_2
REMARK    2  A    between atoms: O_2  and  C_3
REMARK    3  A    between atoms: C_7  and  N_8
REMARK    4  A    between atoms: C_11  and  C_12
REMARK    5  A    between atoms: C_17  and  C_18
REMARK                            x       y       z     vdW  Elec       q    Type
REMARK                         _______ _______ _______ _____ _____    ______ ____
ROOT
ATOM      1  N   UNL     1       4.778   3.195  17.373  0.00  0.00    +0.000 N 
ATOM      2  C   UNL     1       4.008   3.814  18.391  0.00  0.00    +0.000 A 
ATOM      3  C   UNL     1       3.584   3.069  19.469  0.00  0.00    +0.000 A 
ATOM      4  C   UNL     1       2.771   3.701  20.396  0.00  0.00    +0.000 A 
ATOM      5  N   UNL     1       2.394   4.997  20.251  0.00  0.00    +0.000 NA
ATOM      6  C   UNL     1       2.831   5.644  19.160  0.00  0.00    +0.000 A 
ATOM      7  N   UNL     1       3.624   5.090  18.234  0.00  0.00    +0.000 NA
ATOM      8  H   UNL     1       5.311   2.410  17.742  0.00  0.00    +0.000 HD
ENDROOT
BRANCH   1  13
ATOM      9  C   UNL     1       6.482   4.337  14.242  0.00  0.00    +0.000 A 
ATOM     10  C   UNL     1       7.204   5.424  14.736  0.00  0.00    +0.000 A 
ATOM     11  C   UNL     1       7.113   5.780  16.083  0.00  0.00    +0.000 A 
ATOM     12  C   UNL     1       6.312   5.035  16.951  0.00  0.00    +0.000 A 
ATOM     13  C   UNL     1       5.620   3.916  16.484  0.00  0.00    +0.000 A 
ATOM     14  C   UNL     1       5.675   3.607  15.114  0.00  0.00    +0.000 A 
BRANCH   9  16
ATOM     15  C   UNL     1       5.667   3.243  12.297  0.00  0.00    +0.000 C 
ATOM     16  O   UNL     1       6.645   4.081  12.907  0.00  0.00    +0.000 OA
ENDBRANCH   9  16
ENDBRANCH   1  13
BRANCH   6  17
ATOM     17  C   UNL     1       2.411   7.044  18.959  0.00  0.00    +0.000 A 
ATOM     18  C   UNL     1       2.673   7.726  17.754  0.00  0.00    +0.000 A 
ATOM     19  C   UNL     1       2.290   9.058  17.572  0.00  0.00    +0.000 A 
ATOM     20  C   UNL     1       1.631   9.741  18.588  0.00  0.00    +0.000 A 
ATOM     21  C   UNL     1       1.353   9.093  19.787  0.00  0.00    +0.000 A 
ATOM     22  C   UNL     1       1.738   7.761  19.968  0.00  0.00    +0.000 A 
ENDBRANCH   6  17
BRANCH   4  23
ATOM     23  C   UNL     1       2.255   2.930  21.598  0.00  0.00    +0.000 C 
ATOM     24  F   UNL     1       3.014   1.830  21.894  0.00  0.00    +0.000 F 
ATOM     25  F   UNL     1       2.234   3.672  22.740  0.00  0.00    +0.000 F 
ATOM     26  F   UNL     1       0.989   2.460  21.424  0.00  0.00    +0.000 F 
ENDBRANCH   4  23
TORSDOF 4
ENDMDL
MODEL 9
REMARK VINA RESULT:      -7.9      1.007      1.918
REMARK  Name = 
REMARK  5 active torsions:
REMARK  status: ('A' for Active; 'I' for Inactive)
REMARK    1  A    between atoms: C_1  and  O_2
REMARK    2  A    between atoms: O_2  and  C_3
REMARK    3  A    between atoms: C_7  and  N_8
REMARK    4  A    between atoms: C_11  and  C_12
REMARK    5  A    between atoms: C_17  and  C_18
REMARK                            x       y       z     vdW  Elec       q    Type
REMARK                         _______ _______ _______ _____ _____    ______ ____
ROOT
ATOM      1  N   UNL     1       4.780   3.195  17.423  0.00  0.00    +0.000 N 
ATOM      2  C   UNL     1       3.999   3.808  18.438  0.00  0.00    +0.000 A 
ATOM      3  C   UNL     1       3.561   3.056  19.504  0.00  0.00    +0.000 A 
ATOM      4  C   UNL     1       2.739   3.683  20.427  0.00  0.00    +0.000 A 
ATOM      5  N   UNL     1       2.367   4.981  20.288  0.00  0.00    +0.000 NA
ATOM      6  C   UNL     1       2.818   5.635  19.207  0.00  0.00    +0.000 A 
ATOM      7  N   UNL     1       3.620   5.087  18.286  0.00  0.00    +0.000 NA
ATOM      8  H   UNL     1       5.306   2.406  17.793  0.00  0.00    +0.000 HD
ENDROOT
BRANCH   1  13
ATOM      9  C   UNL     1       6.507   4.371  14.318  0.00  0.00    +0.000 A 
ATOM     10  C   UNL     1       7.242   5.438  14.833  0.00  0.00    +0.000 A 
ATOM     11  C   UNL     1       7.152   5.771  16.186  0.00  0.00    +0.000 A 
ATOM     12  C   UNL     1       6.339   5.022  17.038  0.00  0.00    +0.000 A 
ATOM     13  C   UNL     1       5.633   3.921  16.550  0.00  0.00    +0.000 A 
ATOM     14  C   UNL     1       5.688   3.635  15.175  0.00  0.00    +0.000 A 
BRANCH   9  16
ATOM     15  C   UNL     1       5.747   3.234  12.375  0.00  0.00    +0.000 C 
ATOM     16  O   UNL     1       6.670   4.136  12.979  0.00  0.00    +0.000 OA
ENDBRANCH   9  16
ENDBRANCH   1  13
BRANCH   6  17
ATOM     17  C   UNL     1       2.404   7.039  19.012  0.00  0.00    +0.000 A 
ATOM     18  C   UNL     1       1.740   7.758  20.023  0.00  0.00    +0.000 A 
ATOM     19  C   UNL     1       1.333   9.082  19.831  0.00  0.00    +0.000 A 
ATOM     20  C   UNL     1       1.586   9.721  18.622  0.00  0.00    +0.000 A 
ATOM     21  C   UNL     1       2.246   9.038  17.605  0.00  0.00    +0.000 A 
ATOM     22  C   UNL     1       2.650   7.714  17.799  0.00  0.00    +0.000 A 
ENDBRANCH   6  17
BRANCH   4  23
ATOM     23  C   UNL     1       2.207   2.904  21.617  0.00  0.00    +0.000 C 
ATOM     24  F   UNL     1       2.241   3.621  22.783  0.00  0.00    +0.000 F 
ATOM     25  F   UNL     1       0.908   2.521  21.468  0.00  0.00    +0.000 F 
ATOM     26  F   UNL     1       2.914   1.769  21.868  0.00  0.00    +0.000 F 
ENDBRANCH   4  23
TORSDOF 4
ENDMDL
