MODEL 1
REMARK VINA RESULT:      -8.5      0.000      0.000
REMARK  Name = 
REMARK  5 active torsions:
REMARK  status: ('A' for Active; 'I' for Inactive)
REMARK    1  A    between atoms: C_1  and  N_2
REMARK    2  A    between atoms: N_5  and  C_6
REMARK    3  A    between atoms: C_9  and  N_10
REMARK    4  A    between atoms: C_13  and  S_14
REMARK    5  A    between atoms: S_14  and  C_15
REMARK                            x       y       z     vdW  Elec       q    Type
REMARK                         _______ _______ _______ _____ _____    ______ ____
ROOT
ATOM      1  C   UNL     1       2.667   6.498  19.362  0.00  0.00    +0.000 A 
ATOM      2  C   UNL     1       1.957   5.400  19.871  0.00  0.00    +0.000 A 
ATOM      3  C   UNL     1       2.483   4.113  19.825  0.00  0.00    +0.000 A 
ATOM      4  C   UNL     1       3.755   3.916  19.281  0.00  0.00    +0.000 A 
ATOM      5  C   UNL     1       4.535   4.977  18.804  0.00  0.00    +0.000 A 
ATOM      6  C   UNL     1       3.958   6.263  18.851  0.00  0.00    +0.000 A 
ENDROOT
BRANCH   1  11
ATOM      7  C   UNL     1      -0.766  10.869  19.011  0.00  0.00    +0.000 C 
ATOM      8  N   UNL     1       0.507  10.188  19.239  0.00  0.00    +0.000 NA
ATOM      9  C   UNL     1       0.947   9.482  18.010  0.00  0.00    +0.000 C 
ATOM     10  C   UNL     1       2.251   8.664  18.206  0.00  0.00    +0.000 C 
ATOM     11  N   UNL     1       2.069   7.740  19.335  0.00  0.00    +0.000 N 
ATOM     12  C   UNL     1       1.679   8.412  20.591  0.00  0.00    +0.000 C 
ATOM     13  C   UNL     1       0.377   9.214  20.348  0.00  0.00    +0.000 C 
ENDBRANCH   1  11
BRANCH   4  14
ATOM     14  N   UNL     1       4.235   2.551  19.229  0.00  0.00    +0.000 N 
ATOM     15  O   UNL     1       4.948   2.169  20.169  0.00  0.00    +0.000 OA
ATOM     16  O   UNL     1       3.853   1.846  18.285  0.00  0.00    +0.000 OA
ENDBRANCH   4  14
BRANCH   5  17
ATOM     17  S   UNL     1       6.265   4.782  18.366  0.00  0.00    +0.000 S 
BRANCH  17  18
ATOM     18  C   UNL     1       6.236   4.592  16.652  0.00  0.00    +0.000 A 
ATOM     19  N   UNL     1       5.401   3.920  15.896  0.00  0.00    +0.000 NA
ATOM     20  C   UNL     1       5.897   4.050  14.619  0.00  0.00    +0.000 A 
ATOM     21  C   UNL     1       5.438   3.493  13.416  0.00  0.00    +0.000 A 
ATOM     22  C   UNL     1       6.174   3.720  12.246  0.00  0.00    +0.000 A 
ATOM     23  C   UNL     1       7.329   4.509  12.267  0.00  0.00    +0.000 A 
ATOM     24  C   UNL     1       7.780   5.107  13.448  0.00  0.00    +0.000 A 
ATOM     25  C   UNL     1       7.040   4.845  14.604  0.00  0.00    +0.000 A 
ATOM     26  N   UNL     1       7.201   5.218  15.912  0.00  0.00    +0.000 N 
ATOM     27  H   UNL     1       7.933   5.802  16.286  0.00  0.00    +0.000 HD
ENDBRANCH  17  18
ENDBRANCH   5  17
TORSDOF 4
ENDMDL
MODEL 2
REMARK VINA RESULT:      -8.2      0.624      1.143
REMARK  Name = 
REMARK  5 active torsions:
REMARK  status: ('A' for Active; 'I' for Inactive)
REMARK    1  A    between atoms: C_1  and  N_2
REMARK    2  A    between atoms: N_5  and  C_6
REMARK    3  A    between atoms: C_9  and  N_10
REMARK    4  A    between atoms: C_13  and  S_14
REMARK    5  A    between atoms: S_14  and  C_15
REMARK                            x       y       z     vdW  Elec       q    Type
REMARK                         _______ _______ _______ _____ _____    ______ ____
ROOT
ATOM      1  C   UNL     1       2.717   6.588  19.243  0.00  0.00    +0.000 A 
ATOM      2  C   UNL     1       2.027   5.505  19.808  0.00  0.00    +0.000 A 
ATOM      3  C   UNL     1       2.570   4.224  19.814  0.00  0.00    +0.000 A 
ATOM      4  C   UNL     1       3.839   4.020  19.265  0.00  0.00    +0.000 A 
ATOM      5  C   UNL     1       4.599   5.068  18.732  0.00  0.00    +0.000 A 
ATOM      6  C   UNL     1       4.005   6.347  18.728  0.00  0.00    +0.000 A 
ENDROOT
BRANCH   1  11
ATOM      7  C   UNL     1       1.353  11.987  19.205  0.00  0.00    +0.000 C 
ATOM      8  N   UNL     1       1.121  10.552  19.054  0.00  0.00    +0.000 NA
ATOM      9  C   UNL     1       1.355   9.850  20.340  0.00  0.00    +0.000 C 
ATOM     10  C   UNL     1       1.212   8.308  20.231  0.00  0.00    +0.000 C 
ATOM     11  N   UNL     1       2.102   7.820  19.168  0.00  0.00    +0.000 N 
ATOM     12  C   UNL     1       1.866   8.461  17.859  0.00  0.00    +0.000 C 
ATOM     13  C   UNL     1       2.018   9.993  18.015  0.00  0.00    +0.000 C 
ENDBRANCH   1  11
BRANCH   4  14
ATOM     14  N   UNL     1       4.336   2.660  19.268  0.00  0.00    +0.000 N 
ATOM     15  O   UNL     1       4.994   2.304  20.258  0.00  0.00    +0.000 OA
ATOM     16  O   UNL     1       4.021   1.932  18.316  0.00  0.00    +0.000 OA
ENDBRANCH   4  14
BRANCH   5  17
ATOM     17  S   UNL     1       6.327   4.876  18.283  0.00  0.00    +0.000 S 
BRANCH  17  18
ATOM     18  C   UNL     1       6.285   4.661  16.572  0.00  0.00    +0.000 A 
ATOM     19  N   UNL     1       5.468   3.948  15.836  0.00  0.00    +0.000 NA
ATOM     20  C   UNL     1       5.945   4.078  14.551  0.00  0.00    +0.000 A 
ATOM     21  C   UNL     1       5.493   3.488  13.362  0.00  0.00    +0.000 A 
ATOM     22  C   UNL     1       6.207   3.727  12.179  0.00  0.00    +0.000 A 
ATOM     23  C   UNL     1       7.331   4.559  12.176  0.00  0.00    +0.000 A 
ATOM     24  C   UNL     1       7.772   5.190  13.344  0.00  0.00    +0.000 A 
ATOM     25  C   UNL     1       7.056   4.916  14.512  0.00  0.00    +0.000 A 
ATOM     26  N   UNL     1       7.218   5.313  15.813  0.00  0.00    +0.000 N 
ATOM     27  H   UNL     1       7.930   5.930  16.170  0.00  0.00    +0.000 HD
ENDBRANCH  17  18
ENDBRANCH   5  17
TORSDOF 4
ENDMDL
MODEL 3
REMARK VINA RESULT:      -8.2      0.307      1.178
REMARK  Name = 
REMARK  5 active torsions:
REMARK  status: ('A' for Active; 'I' for Inactive)
REMARK    1  A    between atoms: C_1  and  N_2
REMARK    2  A    between atoms: N_5  and  C_6
REMARK    3  A    between atoms: C_9  and  N_10
REMARK    4  A    between atoms: C_13  and  S_14
REMARK    5  A    between atoms: S_14  and  C_15
REMARK                            x       y       z     vdW  Elec       q    Type
REMARK                         _______ _______ _______ _____ _____    ______ ____
ROOT
ATOM      1  C   UNL     1       2.692   6.452  19.321  0.00  0.00    +0.000 A 
ATOM      2  C   UNL     1       1.909   5.346  19.684  0.00  0.00    +0.000 A 
ATOM      3  C   UNL     1       2.424   4.054  19.659  0.00  0.00    +0.000 A 
ATOM      4  C   UNL     1       3.757   3.860  19.286  0.00  0.00    +0.000 A 
ATOM      5  C   UNL     1       4.604   4.926  18.962  0.00  0.00    +0.000 A 
ATOM      6  C   UNL     1       4.038   6.218  18.981  0.00  0.00    +0.000 A 
ENDROOT
BRANCH   1  11
ATOM      7  C   UNL     1      -0.660  10.871  18.818  0.00  0.00    +0.000 C 
ATOM      8  N   UNL     1       0.595  10.173  19.092  0.00  0.00    +0.000 NA
ATOM      9  C   UNL     1       1.060   9.447  17.885  0.00  0.00    +0.000 C 
ATOM     10  C   UNL     1       2.345   8.610  18.129  0.00  0.00    +0.000 C 
ATOM     11  N   UNL     1       2.114   7.703  19.262  0.00  0.00    +0.000 N 
ATOM     12  C   UNL     1       1.696   8.394  20.498  0.00  0.00    +0.000 C 
ATOM     13  C   UNL     1       0.416   9.213  20.207  0.00  0.00    +0.000 C 
ENDBRANCH   1  11
BRANCH   4  14
ATOM     14  N   UNL     1       4.227   2.490  19.245  0.00  0.00    +0.000 N 
ATOM     15  O   UNL     1       4.839   2.076  20.241  0.00  0.00    +0.000 OA
ATOM     16  O   UNL     1       3.935   1.814  18.249  0.00  0.00    +0.000 OA
ENDBRANCH   4  14
BRANCH   5  17
ATOM     17  S   UNL     1       6.376   4.723  18.756  0.00  0.00    +0.000 S 
BRANCH  17  18
ATOM     18  C   UNL     1       6.579   4.596  17.048  0.00  0.00    +0.000 A 
ATOM     19  N   UNL     1       7.431   5.202  16.256  0.00  0.00    +0.000 NA
ATOM     20  C   UNL     1       7.094   4.787  14.988  0.00  0.00    +0.000 A 
ATOM     21  C   UNL     1       7.633   5.158  13.749  0.00  0.00    +0.000 A 
ATOM     22  C   UNL     1       7.054   4.640  12.581  0.00  0.00    +0.000 A 
ATOM     23  C   UNL     1       5.979   3.749  12.649  0.00  0.00    +0.000 A 
ATOM     24  C   UNL     1       5.454   3.335  13.877  0.00  0.00    +0.000 A 
ATOM     25  C   UNL     1       6.034   3.884  15.023  0.00  0.00    +0.000 A 
ATOM     26  N   UNL     1       5.762   3.744  16.358  0.00  0.00    +0.000 N 
ATOM     27  H   UNL     1       5.047   3.164  16.770  0.00  0.00    +0.000 HD
ENDBRANCH  17  18
ENDBRANCH   5  17
TORSDOF 4
ENDMDL
MODEL 4
REMARK VINA RESULT:      -7.9      0.679      1.634
REMARK  Name = 
REMARK  5 active torsions:
REMARK  status: ('A' for Active; 'I' for Inactive)
REMARK    1  A    between atoms: C_1  and  N_2
REMARK    2  A    between atoms: N_5  and  C_6
REMARK    3  A    between atoms: C_9  and  N_10
REMARK    4  A    between atoms: C_13  and  S_14
REMARK    5  A    between atoms: S_14  and  C_15
REMARK                            x       y       z     vdW  Elec       q    Type
REMARK                         _______ _______ _______ _____ _____    ______ ____
ROOT
ATOM      1  C   UNL     1       2.667   6.512  19.291  0.00  0.00    +0.000 A 
ATOM      2  C   UNL     1       1.907   5.405  19.698  0.00  0.00    +0.000 A 
ATOM      3  C   UNL     1       2.447   4.123  19.716  0.00  0.00    +0.000 A 
ATOM      4  C   UNL     1       3.781   3.940  19.342  0.00  0.00    +0.000 A 
ATOM      5  C   UNL     1       4.606   5.010  18.974  0.00  0.00    +0.000 A 
ATOM      6  C   UNL     1       4.015   6.291  18.951  0.00  0.00    +0.000 A 
ENDROOT
BRANCH   1  11
ATOM      7  C   UNL     1       1.362  11.924  19.154  0.00  0.00    +0.000 C 
ATOM      8  N   UNL     1       1.115  10.489  19.026  0.00  0.00    +0.000 NA
ATOM      9  C   UNL     1       1.335   9.806  20.324  0.00  0.00    +0.000 C 
ATOM     10  C   UNL     1       1.175   8.264  20.241  0.00  0.00    +0.000 C 
ATOM     11  N   UNL     1       2.066   7.749  19.191  0.00  0.00    +0.000 N 
ATOM     12  C   UNL     1       1.844   8.370  17.870  0.00  0.00    +0.000 C 
ATOM     13  C   UNL     1       2.013   9.903  18.002  0.00  0.00    +0.000 C 
ENDBRANCH   1  11
BRANCH   4  14
ATOM     14  N   UNL     1       4.276   2.579  19.347  0.00  0.00    +0.000 N 
ATOM     15  O   UNL     1       4.848   2.193  20.377  0.00  0.00    +0.000 OA
ATOM     16  O   UNL     1       4.042   1.881  18.351  0.00  0.00    +0.000 OA
ENDBRANCH   4  14
BRANCH   5  17
ATOM     17  S   UNL     1       6.380   4.833  18.764  0.00  0.00    +0.000 S 
BRANCH  17  18
ATOM     18  C   UNL     1       6.577   4.663  17.059  0.00  0.00    +0.000 A 
ATOM     19  N   UNL     1       7.429   5.247  16.251  0.00  0.00    +0.000 NA
ATOM     20  C   UNL     1       7.086   4.802  14.994  0.00  0.00    +0.000 A 
ATOM     21  C   UNL     1       7.623   5.141  13.744  0.00  0.00    +0.000 A 
ATOM     22  C   UNL     1       7.039   4.599  12.592  0.00  0.00    +0.000 A 
ATOM     23  C   UNL     1       5.959   3.715  12.683  0.00  0.00    +0.000 A 
ATOM     24  C   UNL     1       5.436   3.332  13.923  0.00  0.00    +0.000 A 
ATOM     25  C   UNL     1       6.022   3.906  15.054  0.00  0.00    +0.000 A 
ATOM     26  N   UNL     1       5.753   3.799  16.393  0.00  0.00    +0.000 N 
ATOM     27  H   UNL     1       5.038   3.232  16.820  0.00  0.00    +0.000 HD
ENDBRANCH  17  18
ENDBRANCH   5  17
TORSDOF 4
ENDMDL
MODEL 5
REMARK VINA RESULT:      -7.4      3.606      8.457
REMARK  Name = 
REMARK  5 active torsions:
REMARK  status: ('A' for Active; 'I' for Inactive)
REMARK    1  A    between atoms: C_1  and  N_2
REMARK    2  A    between atoms: N_5  and  C_6
REMARK    3  A    between atoms: C_9  and  N_10
REMARK    4  A    between atoms: C_13  and  S_14
REMARK    5  A    between atoms: S_14  and  C_15
REMARK                            x       y       z     vdW  Elec       q    Type
REMARK                         _______ _______ _______ _____ _____    ______ ____
ROOT
ATOM      1  C   UNL     1       2.503   6.963  18.984  0.00  0.00    +0.000 A 
ATOM      2  C   UNL     1       1.992   6.231  20.067  0.00  0.00    +0.000 A 
ATOM      3  C   UNL     1       1.285   6.852  21.092  0.00  0.00    +0.000 A 
ATOM      4  C   UNL     1       1.062   8.230  21.027  0.00  0.00    +0.000 A 
ATOM      5  C   UNL     1       1.502   9.007  19.948  0.00  0.00    +0.000 A 
ATOM      6  C   UNL     1       2.231   8.343  18.940  0.00  0.00    +0.000 A 
ENDROOT
BRANCH   1  11
ATOM      7  C   UNL     1       6.428   4.238  16.123  0.00  0.00    +0.000 C 
ATOM      8  N   UNL     1       5.143   4.907  16.319  0.00  0.00    +0.000 NA
ATOM      9  C   UNL     1       5.349   6.325  16.706  0.00  0.00    +0.000 C 
ATOM     10  C   UNL     1       4.026   7.074  17.017  0.00  0.00    +0.000 C 
ATOM     11  N   UNL     1       3.284   6.326  18.042  0.00  0.00    +0.000 N 
ATOM     12  C   UNL     1       3.016   4.922  17.672  0.00  0.00    +0.000 C 
ATOM     13  C   UNL     1       4.361   4.217  17.372  0.00  0.00    +0.000 C 
ENDBRANCH   1  11
BRANCH   4  14
ATOM     14  N   UNL     1       0.351   8.825  22.139  0.00  0.00    +0.000 N 
ATOM     15  O   UNL     1      -0.846   8.526  22.266  0.00  0.00    +0.000 OA
ATOM     16  O   UNL     1       0.999   9.540  22.916  0.00  0.00    +0.000 OA
ENDBRANCH   4  14
BRANCH   5  17
ATOM     17  S   UNL     1       0.985  10.711  19.712  0.00  0.00    +0.000 S 
BRANCH  17  18
ATOM     18  C   UNL     1      -0.439  10.578  18.749  0.00  0.00    +0.000 A 
ATOM     19  N   UNL     1      -0.632   9.942  17.619  0.00  0.00    +0.000 NA
ATOM     20  C   UNL     1      -1.928  10.240  17.261  0.00  0.00    +0.000 A 
ATOM     21  C   UNL     1      -2.649   9.874  16.116  0.00  0.00    +0.000 A 
ATOM     22  C   UNL     1      -3.948  10.376  15.951  0.00  0.00    +0.000 A 
ATOM     23  C   UNL     1      -4.526  11.202  16.921  0.00  0.00    +0.000 A 
ATOM     24  C   UNL     1      -3.837  11.544  18.089  0.00  0.00    +0.000 A 
ATOM     25  C   UNL     1      -2.537  11.049  18.217  0.00  0.00    +0.000 A 
ATOM     26  N   UNL     1      -1.576  11.206  19.180  0.00  0.00    +0.000 N 
ATOM     27  H   UNL     1      -1.658  11.736  20.033  0.00  0.00    +0.000 HD
ENDBRANCH  17  18
ENDBRANCH   5  17
TORSDOF 4
ENDMDL
MODEL 6
REMARK VINA RESULT:      -7.0      4.645      8.919
REMARK  Name = 
REMARK  5 active torsions:
REMARK  status: ('A' for Active; 'I' for Inactive)
REMARK    1  A    between atoms: C_1  and  N_2
REMARK    2  A    between atoms: N_5  and  C_6
REMARK    3  A    between atoms: C_9  and  N_10
REMARK    4  A    between atoms: C_13  and  S_14
REMARK    5  A    between atoms: S_14  and  C_15
REMARK                            x       y       z     vdW  Elec       q    Type
REMARK                         _______ _______ _______ _____ _____    ______ ____
ROOT
ATOM      1  C   UNL     1       2.100   6.626  19.566  0.00  0.00    +0.000 A 
ATOM      2  C   UNL     1       1.590   6.604  20.872  0.00  0.00    +0.000 A 
ATOM      3  C   UNL     1       1.102   7.758  21.479  0.00  0.00    +0.000 A 
ATOM      4  C   UNL     1       1.101   8.957  20.760  0.00  0.00    +0.000 A 
ATOM      5  C   UNL     1       1.550   9.033  19.436  0.00  0.00    +0.000 A 
ATOM      6  C   UNL     1       2.053   7.846  18.864  0.00  0.00    +0.000 A 
ENDROOT
BRANCH   1  11
ATOM      7  C   UNL     1       3.760   1.455  18.335  0.00  0.00    +0.000 C 
ATOM      8  N   UNL     1       3.665   2.902  18.158  0.00  0.00    +0.000 NA
ATOM      9  C   UNL     1       4.230   3.609  19.334  0.00  0.00    +0.000 C 
ATOM     10  C   UNL     1       4.082   5.151  19.253  0.00  0.00    +0.000 C 
ATOM     11  N   UNL     1       2.666   5.484  19.039  0.00  0.00    +0.000 N 
ATOM     12  C   UNL     1       2.081   4.838  17.848  0.00  0.00    +0.000 C 
ATOM     13  C   UNL     1       2.251   3.305  17.973  0.00  0.00    +0.000 C 
ENDBRANCH   1  11
BRANCH   4  14
ATOM     14  N   UNL     1       0.614  10.130  21.455  0.00  0.00    +0.000 N 
ATOM     15  O   UNL     1       1.429  11.042  21.658  0.00  0.00    +0.000 OA
ATOM     16  O   UNL     1      -0.590  10.165  21.745  0.00  0.00    +0.000 OA
ENDBRANCH   4  14
BRANCH   5  17
ATOM     17  S   UNL     1       1.297  10.487  18.414  0.00  0.00    +0.000 S 
BRANCH  17  18
ATOM     18  C   UNL     1      -0.419  10.589  18.261  0.00  0.00    +0.000 A 
ATOM     19  N   UNL     1      -1.229   9.948  17.455  0.00  0.00    +0.000 NA
ATOM     20  C   UNL     1      -2.474  10.476  17.710  0.00  0.00    +0.000 A 
ATOM     21  C   UNL     1      -3.707  10.203  17.101  0.00  0.00    +0.000 A 
ATOM     22  C   UNL     1      -4.831  10.941  17.498  0.00  0.00    +0.000 A 
ATOM     23  C   UNL     1      -4.734  11.911  18.500  0.00  0.00    +0.000 A 
ATOM     24  C   UNL     1      -3.522  12.168  19.149  0.00  0.00    +0.000 A 
ATOM     25  C   UNL     1      -2.414  11.435  18.718  0.00  0.00    +0.000 A 
ATOM     26  N   UNL     1      -1.094  11.448  19.085  0.00  0.00    +0.000 N 
ATOM     27  H   UNL     1      -0.671  12.026  19.794  0.00  0.00    +0.000 HD
ENDBRANCH  17  18
ENDBRANCH   5  17
TORSDOF 4
ENDMDL
MODEL 7
REMARK VINA RESULT:      -7.0      3.744      8.513
REMARK  Name = 
REMARK  5 active torsions:
REMARK  status: ('A' for Active; 'I' for Inactive)
REMARK    1  A    between atoms: C_1  and  N_2
REMARK    2  A    between atoms: N_5  and  C_6
REMARK    3  A    between atoms: C_9  and  N_10
REMARK    4  A    between atoms: C_13  and  S_14
REMARK    5  A    between atoms: S_14  and  C_15
REMARK                            x       y       z     vdW  Elec       q    Type
REMARK                         _______ _______ _______ _____ _____    ______ ____
ROOT
ATOM      1  C   UNL     1       2.256   7.231  19.233  0.00  0.00    +0.000 A 
ATOM      2  C   UNL     1       1.700   6.545  20.323  0.00  0.00    +0.000 A 
ATOM      3  C   UNL     1       1.066   7.224  21.358  0.00  0.00    +0.000 A 
ATOM      4  C   UNL     1       0.964   8.617  21.297  0.00  0.00    +0.000 A 
ATOM      5  C   UNL     1       1.455   9.354  20.212  0.00  0.00    +0.000 A 
ATOM      6  C   UNL     1       2.106   8.629  19.192  0.00  0.00    +0.000 A 
ENDROOT
BRANCH   1  11
ATOM      7  C   UNL     1       5.839   4.110  16.326  0.00  0.00    +0.000 C 
ATOM      8  N   UNL     1       4.650   4.936  16.530  0.00  0.00    +0.000 NA
ATOM      9  C   UNL     1       5.034   6.300  16.970  0.00  0.00    +0.000 C 
ATOM     10  C   UNL     1       3.815   7.207  17.290  0.00  0.00    +0.000 C 
ATOM     11  N   UNL     1       2.963   6.528  18.278  0.00  0.00    +0.000 N 
ATOM     12  C   UNL     1       2.520   5.186  17.854  0.00  0.00    +0.000 C 
ATOM     13  C   UNL     1       3.765   4.320  17.546  0.00  0.00    +0.000 C 
ENDBRANCH   1  11
BRANCH   4  14
ATOM     14  N   UNL     1       0.326   9.271  22.420  0.00  0.00    +0.000 N 
ATOM     15  O   UNL     1      -0.914   9.262  22.446  0.00  0.00    +0.000 OA
ATOM     16  O   UNL     1       1.058   9.739  23.303  0.00  0.00    +0.000 OA
ENDBRANCH   4  14
BRANCH   5  17
ATOM     17  S   UNL     1       1.087  11.097  19.984  0.00  0.00    +0.000 S 
BRANCH  17  18
ATOM     18  C   UNL     1      -0.407  11.092  19.121  0.00  0.00    +0.000 A 
ATOM     19  N   UNL     1      -1.571  11.593  19.456  0.00  0.00    +0.000 NA
ATOM     20  C   UNL     1      -2.419  11.231  18.434  0.00  0.00    +0.000 A 
ATOM     21  C   UNL     1      -3.796  11.451  18.290  0.00  0.00    +0.000 A 
ATOM     22  C   UNL     1      -4.451  10.909  17.176  0.00  0.00    +0.000 A 
ATOM     23  C   UNL     1      -3.743  10.187  16.210  0.00  0.00    +0.000 A 
ATOM     24  C   UNL     1      -2.361   9.993  16.314  0.00  0.00    +0.000 A 
ATOM     25  C   UNL     1      -1.739  10.524  17.446  0.00  0.00    +0.000 A 
ATOM     26  N   UNL     1      -0.444  10.496  17.891  0.00  0.00    +0.000 N 
ATOM     27  H   UNL     1       0.342  10.064  17.431  0.00  0.00    +0.000 HD
ENDBRANCH  17  18
ENDBRANCH   5  17
TORSDOF 4
ENDMDL
MODEL 8
REMARK VINA RESULT:      -7.0      4.776      9.922
REMARK  Name = 
REMARK  5 active torsions:
REMARK  status: ('A' for Active; 'I' for Inactive)
REMARK    1  A    between atoms: C_1  and  N_2
REMARK    2  A    between atoms: N_5  and  C_6
REMARK    3  A    between atoms: C_9  and  N_10
REMARK    4  A    between atoms: C_13  and  S_14
REMARK    5  A    between atoms: S_14  and  C_15
REMARK                            x       y       z     vdW  Elec       q    Type
REMARK                         _______ _______ _______ _____ _____    ______ ____
ROOT
ATOM      1  C   UNL     1       1.506   8.552  19.907  0.00  0.00    +0.000 A 
ATOM      2  C   UNL     1       1.129   8.454  21.255  0.00  0.00    +0.000 A 
ATOM      3  C   UNL     1       0.511   9.513  21.913  0.00  0.00    +0.000 A 
ATOM      4  C   UNL     1       0.243  10.690  21.208  0.00  0.00    +0.000 A 
ATOM      5  C   UNL     1       0.549  10.831  19.849  0.00  0.00    +0.000 A 
ATOM      6  C   UNL     1       1.190   9.742  19.224  0.00  0.00    +0.000 A 
ENDROOT
BRANCH   1  11
ATOM      7  C   UNL     1       5.294   4.893  18.097  0.00  0.00    +0.000 C 
ATOM      8  N   UNL     1       3.955   5.455  18.261  0.00  0.00    +0.000 NA
ATOM      9  C   UNL     1       3.885   6.814  17.668  0.00  0.00    +0.000 C 
ATOM     10  C   UNL     1       2.513   7.508  17.884  0.00  0.00    +0.000 C 
ATOM     11  N   UNL     1       2.205   7.518  19.321  0.00  0.00    +0.000 N 
ATOM     12  C   UNL     1       2.216   6.177  19.938  0.00  0.00    +0.000 C 
ATOM     13  C   UNL     1       3.599   5.525  19.698  0.00  0.00    +0.000 C 
ENDBRANCH   1  11
BRANCH   4  14
ATOM     14  N   UNL     1      -0.369  11.769  21.955  0.00  0.00    +0.000 N 
ATOM     15  O   UNL     1       0.306  12.798  22.110  0.00  0.00    +0.000 OA
ATOM     16  O   UNL     1      -1.538  11.613  22.333  0.00  0.00    +0.000 OA
ENDBRANCH   4  14
BRANCH   5  17
ATOM     17  S   UNL     1      -0.038  12.215  18.866  0.00  0.00    +0.000 S 
BRANCH  17  18
ATOM     18  C   UNL     1      -1.733  11.928  18.724  0.00  0.00    +0.000 A 
ATOM     19  N   UNL     1      -2.389  11.180  17.871  0.00  0.00    +0.000 NA
ATOM     20  C   UNL     1      -3.717  11.384  18.168  0.00  0.00    +0.000 A 
ATOM     21  C   UNL     1      -4.866  10.880  17.541  0.00  0.00    +0.000 A 
ATOM     22  C   UNL     1      -6.122  11.306  17.995  0.00  0.00    +0.000 A 
ATOM     23  C   UNL     1      -6.232  12.193  19.071  0.00  0.00    +0.000 A 
ATOM     24  C   UNL     1      -5.099  12.674  19.736  0.00  0.00    +0.000 A 
ATOM     25  C   UNL     1      -3.861  12.252  19.247  0.00  0.00    +0.000 A 
ATOM     26  N   UNL     1      -2.573  12.542  19.613  0.00  0.00    +0.000 N 
ATOM     27  H   UNL     1      -2.281  13.147  20.364  0.00  0.00    +0.000 HD
ENDBRANCH  17  18
ENDBRANCH   5  17
TORSDOF 4
ENDMDL
MODEL 9
REMARK VINA RESULT:      -6.9      4.646      8.874
REMARK  Name = 
REMARK  5 active torsions:
REMARK  status: ('A' for Active; 'I' for Inactive)
REMARK    1  A    between atoms: C_1  and  N_2
REMARK    2  A    between atoms: N_5  and  C_6
REMARK    3  A    between atoms: C_9  and  N_10
REMARK    4  A    between atoms: C_13  and  S_14
REMARK    5  A    between atoms: S_14  and  C_15
REMARK                            x       y       z     vdW  Elec       q    Type
REMARK                         _______ _______ _______ _____ _____    ______ ____
ROOT
ATOM      1  C   UNL     1       2.117   6.650  19.548  0.00  0.00    +0.000 A 
ATOM      2  C   UNL     1       1.515   6.624  20.815  0.00  0.00    +0.000 A 
ATOM      3  C   UNL     1       1.029   7.785  21.409  0.00  0.00    +0.000 A 
ATOM      4  C   UNL     1       1.123   8.995  20.716  0.00  0.00    +0.000 A 
ATOM      5  C   UNL     1       1.667   9.077  19.429  0.00  0.00    +0.000 A 
ATOM      6  C   UNL     1       2.165   7.882  18.870  0.00  0.00    +0.000 A 
ENDROOT
BRANCH   1  11
ATOM      7  C   UNL     1       3.711   1.445  18.371  0.00  0.00    +0.000 C 
ATOM      8  N   UNL     1       3.650   2.894  18.190  0.00  0.00    +0.000 NA
ATOM      9  C   UNL     1       4.193   3.591  19.382  0.00  0.00    +0.000 C 
ATOM     10  C   UNL     1       4.078   5.136  19.294  0.00  0.00    +0.000 C 
ATOM     11  N   UNL     1       2.676   5.496  19.039  0.00  0.00    +0.000 N 
ATOM     12  C   UNL     1       2.113   4.860  17.831  0.00  0.00    +0.000 C 
ATOM     13  C   UNL     1       2.249   3.324  17.963  0.00  0.00    +0.000 C 
ENDBRANCH   1  11
BRANCH   4  14
ATOM     14  N   UNL     1       0.632  10.174  21.400  0.00  0.00    +0.000 N 
ATOM     15  O   UNL     1      -0.546  10.149  21.787  0.00  0.00    +0.000 OA
ATOM     16  O   UNL     1       1.435  11.095  21.602  0.00  0.00    +0.000 OA
ENDBRANCH   4  14
BRANCH   5  17
ATOM     17  S   UNL     1       1.541  10.559  18.421  0.00  0.00    +0.000 S 
BRANCH  17  18
ATOM     18  C   UNL     1      -0.155  10.864  18.349  0.00  0.00    +0.000 A 
ATOM     19  N   UNL     1      -0.863  11.806  18.923  0.00  0.00    +0.000 NA
ATOM     20  C   UNL     1      -2.168  11.524  18.586  0.00  0.00    +0.000 A 
ATOM     21  C   UNL     1      -3.353  12.169  18.967  0.00  0.00    +0.000 A 
ATOM     22  C   UNL     1      -4.577  11.633  18.543  0.00  0.00    +0.000 A 
ATOM     23  C   UNL     1      -4.618  10.494  17.732  0.00  0.00    +0.000 A 
ATOM     24  C   UNL     1      -3.444   9.861  17.307  0.00  0.00    +0.000 A 
ATOM     25  C   UNL     1      -2.241  10.403  17.764  0.00  0.00    +0.000 A 
ATOM     26  N   UNL     1      -0.933  10.034  17.590  0.00  0.00    +0.000 N 
ATOM     27  H   UNL     1      -0.594   9.254  17.048  0.00  0.00    +0.000 HD
ENDBRANCH  17  18
ENDBRANCH   5  17
TORSDOF 4
ENDMDL
