MODEL 1
REMARK VINA RESULT:      -9.0      0.000      0.000
REMARK  Name = 
REMARK  4 active torsions:
REMARK  status: ('A' for Active; 'I' for Inactive)
REMARK    1  A    between atoms: C_1  and  C_2
REMARK    2  A    between atoms: C_4  and  N_5
REMARK    3  A    between atoms: C_9  and  C_11
REMARK    4  A    between atoms: C_21  and  C_22
REMARK                            x       y       z     vdW  Elec       q    Type
REMARK                         _______ _______ _______ _____ _____    ______ ____
ROOT
ATOM      1  N   UNL     1       1.531   8.131  19.740  0.00  0.00    +0.000 N 
ATOM      2  C   UNL     1       1.792   9.113  18.679  0.00  0.00    +0.000 C 
ATOM      3  C   UNL     1       0.482   9.889  18.406  0.00  0.00    +0.000 C 
ATOM      4  N   UNL     1      -0.090  10.447  19.647  0.00  0.00    +0.000 N 
ATOM      5  C   UNL     1      -0.575  11.751  19.616  0.00  0.00    +0.000 C 
ATOM      6  O   UNL     1      -0.579  12.421  18.583  0.00  0.00    +0.000 OA
ATOM      7  C   UNL     1      -0.282   9.436  20.705  0.00  0.00    +0.000 C 
ATOM      8  C   UNL     1       1.049   8.714  21.000  0.00  0.00    +0.000 C 
ENDROOT
BRANCH   1  12
ATOM      9  C   UNL     1       2.106   3.586  21.391  0.00  0.00    +0.000 C 
ATOM     10  C   UNL     1       2.536   4.748  20.551  0.00  0.00    +0.000 A 
ATOM     11  C   UNL     1       1.901   5.963  20.652  0.00  0.00    +0.000 A 
ATOM     12  C   UNL     1       2.260   6.956  19.755  0.00  0.00    +0.000 A 
ATOM     13  N   UNL     1       3.221   6.746  18.837  0.00  0.00    +0.000 NA
ATOM     14  C   UNL     1       3.827   5.547  18.834  0.00  0.00    +0.000 A 
ATOM     15  N   UNL     1       3.513   4.526  19.657  0.00  0.00    +0.000 NA
BRANCH  14  16
ATOM     16  C   UNL     1       4.909   5.311  17.857  0.00  0.00    +0.000 A 
ATOM     17  C   UNL     1       4.740   5.582  16.482  0.00  0.00    +0.000 A 
ATOM     18  C   UNL     1       5.775   5.377  15.561  0.00  0.00    +0.000 A 
ATOM     19  C   UNL     1       7.004   4.891  15.998  0.00  0.00    +0.000 A 
ATOM     20  C   UNL     1       7.188   4.615  17.343  0.00  0.00    +0.000 A 
ATOM     21  F   UNL     1       8.371   4.150  17.762  0.00  0.00    +0.000 F 
ATOM     22  C   UNL     1       6.165   4.817  18.264  0.00  0.00    +0.000 A 
ENDBRANCH  14  16
ENDBRANCH   1  12
BRANCH   5  23
ATOM     23  C   UNL     1      -1.114  12.405  20.838  0.00  0.00    +0.000 A 
ATOM     24  C   UNL     1      -0.297  12.911  21.858  0.00  0.00    +0.000 A 
ATOM     25  C   UNL     1      -0.865  13.474  23.002  0.00  0.00    +0.000 A 
ATOM     26  C   UNL     1      -2.246  13.609  23.087  0.00  0.00    +0.000 A 
ATOM     27  F   UNL     1      -2.786  14.158  24.182  0.00  0.00    +0.000 F 
ATOM     28  C   UNL     1      -3.070  13.199  22.047  0.00  0.00    +0.000 A 
ATOM     29  C   UNL     1      -2.505  12.591  20.923  0.00  0.00    +0.000 A 
ENDBRANCH   5  23
TORSDOF 3
ENDMDL
MODEL 2
REMARK VINA RESULT:      -8.8      0.873      1.219
REMARK  Name = 
REMARK  4 active torsions:
REMARK  status: ('A' for Active; 'I' for Inactive)
REMARK    1  A    between atoms: C_1  and  C_2
REMARK    2  A    between atoms: C_4  and  N_5
REMARK    3  A    between atoms: C_9  and  C_11
REMARK    4  A    between atoms: C_21  and  C_22
REMARK                            x       y       z     vdW  Elec       q    Type
REMARK                         _______ _______ _______ _____ _____    ______ ____
ROOT
ATOM      1  N   UNL     1       1.608   7.984  19.762  0.00  0.00    +0.000 N 
ATOM      2  C   UNL     1       1.922   8.937  18.689  0.00  0.00    +0.000 C 
ATOM      3  C   UNL     1       0.644   9.749  18.375  0.00  0.00    +0.000 C 
ATOM      4  N   UNL     1       0.066  10.350  19.593  0.00  0.00    +0.000 N 
ATOM      5  C   UNL     1      -0.375  11.668  19.528  0.00  0.00    +0.000 C 
ATOM      6  O   UNL     1      -0.335  12.318  18.483  0.00  0.00    +0.000 OA
ATOM      7  C   UNL     1      -0.180   9.365  20.665  0.00  0.00    +0.000 C 
ATOM      8  C   UNL     1       1.119   8.606  21.001  0.00  0.00    +0.000 C 
ENDROOT
BRANCH   1  12
ATOM      9  C   UNL     1       1.975   3.440  21.473  0.00  0.00    +0.000 C 
ATOM     10  C   UNL     1       2.472   4.579  20.639  0.00  0.00    +0.000 A 
ATOM     11  C   UNL     1       1.874   5.815  20.706  0.00  0.00    +0.000 A 
ATOM     12  C   UNL     1       2.297   6.787  19.814  0.00  0.00    +0.000 A 
ATOM     13  N   UNL     1       3.283   6.537  18.934  0.00  0.00    +0.000 NA
ATOM     14  C   UNL     1       3.849   5.318  18.963  0.00  0.00    +0.000 A 
ATOM     15  N   UNL     1       3.473   4.317  19.783  0.00  0.00    +0.000 NA
BRANCH  14  16
ATOM     16  C   UNL     1       4.958   5.039  18.028  0.00  0.00    +0.000 A 
ATOM     17  C   UNL     1       6.302   5.018  18.454  0.00  0.00    +0.000 A 
ATOM     18  C   UNL     1       7.349   4.732  17.568  0.00  0.00    +0.000 A 
ATOM     19  C   UNL     1       7.070   4.464  16.231  0.00  0.00    +0.000 A 
ATOM     20  C   UNL     1       5.756   4.484  15.792  0.00  0.00    +0.000 A 
ATOM     21  F   UNL     1       5.489   4.224  14.506  0.00  0.00    +0.000 F 
ATOM     22  C   UNL     1       4.712   4.766  16.667  0.00  0.00    +0.000 A 
ENDBRANCH  14  16
ENDBRANCH   1  12
BRANCH   5  23
ATOM     23  C   UNL     1      -0.917  12.362  20.727  0.00  0.00    +0.000 A 
ATOM     24  C   UNL     1      -0.102  12.974  21.689  0.00  0.00    +0.000 A 
ATOM     25  C   UNL     1      -0.670  13.571  22.816  0.00  0.00    +0.000 A 
ATOM     26  C   UNL     1      -2.054  13.632  22.936  0.00  0.00    +0.000 A 
ATOM     27  F   UNL     1      -2.594  14.214  24.014  0.00  0.00    +0.000 F 
ATOM     28  C   UNL     1      -2.881  13.115  21.948  0.00  0.00    +0.000 A 
ATOM     29  C   UNL     1      -2.313  12.474  20.844  0.00  0.00    +0.000 A 
ENDBRANCH   5  23
TORSDOF 3
ENDMDL
MODEL 3
REMARK VINA RESULT:      -8.8      3.280      9.813
REMARK  Name = 
REMARK  4 active torsions:
REMARK  status: ('A' for Active; 'I' for Inactive)
REMARK    1  A    between atoms: C_1  and  C_2
REMARK    2  A    between atoms: C_4  and  N_5
REMARK    3  A    between atoms: C_9  and  C_11
REMARK    4  A    between atoms: C_21  and  C_22
REMARK                            x       y       z     vdW  Elec       q    Type
REMARK                         _______ _______ _______ _____ _____    ______ ____
ROOT
ATOM      1  N   UNL     1       1.428   8.795  19.297  0.00  0.00    +0.000 N 
ATOM      2  C   UNL     1       1.834   8.036  20.488  0.00  0.00    +0.000 C 
ATOM      3  C   UNL     1       2.044   6.561  20.074  0.00  0.00    +0.000 C 
ATOM      4  N   UNL     1       2.955   6.443  18.919  0.00  0.00    +0.000 N 
ATOM      5  C   UNL     1       3.929   5.450  18.952  0.00  0.00    +0.000 C 
ATOM      6  O   UNL     1       4.017   4.654  19.886  0.00  0.00    +0.000 OA
ATOM      7  C   UNL     1       2.540   7.266  17.765  0.00  0.00    +0.000 C 
ATOM      8  C   UNL     1       2.392   8.741  18.189  0.00  0.00    +0.000 C 
ENDROOT
BRANCH   1  12
ATOM      9  C   UNL     1       0.798  13.309  21.011  0.00  0.00    +0.000 C 
ATOM     10  C   UNL     1       0.312  12.095  20.282  0.00  0.00    +0.000 A 
ATOM     11  C   UNL     1       1.060  10.943  20.257  0.00  0.00    +0.000 A 
ATOM     12  C   UNL     1       0.616   9.902  19.456  0.00  0.00    +0.000 A 
ATOM     13  N   UNL     1      -0.526  10.007  18.754  0.00  0.00    +0.000 NA
ATOM     14  C   UNL     1      -1.225  11.149  18.870  0.00  0.00    +0.000 A 
ATOM     15  N   UNL     1      -0.843  12.211  19.606  0.00  0.00    +0.000 NA
BRANCH  14  16
ATOM     16  C   UNL     1      -2.500  11.268  18.133  0.00  0.00    +0.000 A 
ATOM     17  C   UNL     1      -3.674  11.747  18.752  0.00  0.00    +0.000 A 
ATOM     18  C   UNL     1      -4.876  11.878  18.046  0.00  0.00    +0.000 A 
ATOM     19  C   UNL     1      -4.929  11.525  16.700  0.00  0.00    +0.000 A 
ATOM     20  C   UNL     1      -3.788  11.047  16.075  0.00  0.00    +0.000 A 
ATOM     21  F   UNL     1      -3.840  10.711  14.781  0.00  0.00    +0.000 F 
ATOM     22  C   UNL     1      -2.591  10.917  16.771  0.00  0.00    +0.000 A 
ENDBRANCH  14  16
ENDBRANCH   1  12
BRANCH   5  23
ATOM     23  C   UNL     1       4.922   5.304  17.853  0.00  0.00    +0.000 A 
ATOM     24  C   UNL     1       6.118   6.031  17.803  0.00  0.00    +0.000 A 
ATOM     25  C   UNL     1       6.989   5.881  16.721  0.00  0.00    +0.000 A 
ATOM     26  C   UNL     1       6.703   4.943  15.736  0.00  0.00    +0.000 A 
ATOM     27  F   UNL     1       7.545   4.796  14.705  0.00  0.00    +0.000 F 
ATOM     28  C   UNL     1       5.569   4.145  15.815  0.00  0.00    +0.000 A 
ATOM     29  C   UNL     1       4.674   4.329  16.872  0.00  0.00    +0.000 A 
ENDBRANCH   5  23
TORSDOF 3
ENDMDL
MODEL 4
REMARK VINA RESULT:      -8.6      2.960      9.918
REMARK  Name = 
REMARK  4 active torsions:
REMARK  status: ('A' for Active; 'I' for Inactive)
REMARK    1  A    between atoms: C_1  and  C_2
REMARK    2  A    between atoms: C_4  and  N_5
REMARK    3  A    between atoms: C_9  and  C_11
REMARK    4  A    between atoms: C_21  and  C_22
REMARK                            x       y       z     vdW  Elec       q    Type
REMARK                         _______ _______ _______ _____ _____    ______ ____
ROOT
ATOM      1  N   UNL     1       1.414   8.783  19.315  0.00  0.00    +0.000 N 
ATOM      2  C   UNL     1       1.833   8.017  20.496  0.00  0.00    +0.000 C 
ATOM      3  C   UNL     1       2.051   6.547  20.068  0.00  0.00    +0.000 C 
ATOM      4  N   UNL     1       2.955   6.445  18.906  0.00  0.00    +0.000 N 
ATOM      5  C   UNL     1       3.936   5.460  18.923  0.00  0.00    +0.000 C 
ATOM      6  O   UNL     1       4.037   4.656  19.850  0.00  0.00    +0.000 OA
ATOM      7  C   UNL     1       2.526   7.275  17.762  0.00  0.00    +0.000 C 
ATOM      8  C   UNL     1       2.369   8.746  18.199  0.00  0.00    +0.000 C 
ENDROOT
BRANCH   1  12
ATOM      9  C   UNL     1       0.731  13.241  21.151  0.00  0.00    +0.000 C 
ATOM     10  C   UNL     1       0.265  12.049  20.375  0.00  0.00    +0.000 A 
ATOM     11  C   UNL     1       1.017  10.899  20.331  0.00  0.00    +0.000 A 
ATOM     12  C   UNL     1       0.595   9.882  19.489  0.00  0.00    +0.000 A 
ATOM     13  N   UNL     1      -0.532  10.006  18.765  0.00  0.00    +0.000 NA
ATOM     14  C   UNL     1      -1.237  11.143  18.899  0.00  0.00    +0.000 A 
ATOM     15  N   UNL     1      -0.875  12.183  19.676  0.00  0.00    +0.000 NA
BRANCH  14  16
ATOM     16  C   UNL     1      -2.495  11.280  18.138  0.00  0.00    +0.000 A 
ATOM     17  C   UNL     1      -2.584  10.917  16.778  0.00  0.00    +0.000 A 
ATOM     18  C   UNL     1      -3.784  11.030  16.064  0.00  0.00    +0.000 A 
ATOM     19  C   UNL     1      -4.923  11.515  16.700  0.00  0.00    +0.000 A 
ATOM     20  C   UNL     1      -4.856  11.882  18.034  0.00  0.00    +0.000 A 
ATOM     21  F   UNL     1      -5.953  12.345  18.645  0.00  0.00    +0.000 F 
ATOM     22  C   UNL     1      -3.667  11.771  18.749  0.00  0.00    +0.000 A 
ENDBRANCH  14  16
ENDBRANCH   1  12
BRANCH   5  23
ATOM     23  C   UNL     1       4.922   5.330  17.816  0.00  0.00    +0.000 A 
ATOM     24  C   UNL     1       6.139   6.024  17.791  0.00  0.00    +0.000 A 
ATOM     25  C   UNL     1       7.002   5.893  16.701  0.00  0.00    +0.000 A 
ATOM     26  C   UNL     1       6.687   5.004  15.680  0.00  0.00    +0.000 A 
ATOM     27  F   UNL     1       7.523   4.875  14.641  0.00  0.00    +0.000 F 
ATOM     28  C   UNL     1       5.532   4.236  15.730  0.00  0.00    +0.000 A 
ATOM     29  C   UNL     1       4.644   4.403  16.797  0.00  0.00    +0.000 A 
ENDBRANCH   5  23
TORSDOF 3
ENDMDL
MODEL 5
REMARK VINA RESULT:      -8.3      1.058      1.079
REMARK  Name = 
REMARK  4 active torsions:
REMARK  status: ('A' for Active; 'I' for Inactive)
REMARK    1  A    between atoms: C_1  and  C_2
REMARK    2  A    between atoms: C_4  and  N_5
REMARK    3  A    between atoms: C_9  and  C_11
REMARK    4  A    between atoms: C_21  and  C_22
REMARK                            x       y       z     vdW  Elec       q    Type
REMARK                         _______ _______ _______ _____ _____    ______ ____
ROOT
ATOM      1  N   UNL     1       1.249   8.500  19.735  0.00  0.00    +0.000 N 
ATOM      2  C   UNL     1       1.467   9.560  18.741  0.00  0.00    +0.000 C 
ATOM      3  C   UNL     1       0.144  10.343  18.572  0.00  0.00    +0.000 C 
ATOM      4  N   UNL     1      -0.386  10.805  19.870  0.00  0.00    +0.000 N 
ATOM      5  C   UNL     1      -0.879  12.103  19.952  0.00  0.00    +0.000 C 
ATOM      6  O   UNL     1      -0.923  12.847  18.972  0.00  0.00    +0.000 OA
ATOM      7  C   UNL     1      -0.535   9.716  20.857  0.00  0.00    +0.000 C 
ATOM      8  C   UNL     1       0.809   8.985  21.051  0.00  0.00    +0.000 C 
ENDROOT
BRANCH   1  12
ATOM      9  C   UNL     1       2.202   4.009  21.359  0.00  0.00    +0.000 C 
ATOM     10  C   UNL     1       2.443   5.151  20.422  0.00  0.00    +0.000 A 
ATOM     11  C   UNL     1       1.822   6.362  20.613  0.00  0.00    +0.000 A 
ATOM     12  C   UNL     1       1.984   7.333  19.638  0.00  0.00    +0.000 A 
ATOM     13  N   UNL     1       2.751   7.107  18.556  0.00  0.00    +0.000 NA
ATOM     14  C   UNL     1       3.363   5.913  18.466  0.00  0.00    +0.000 A 
ATOM     15  N   UNL     1       3.230   4.914  19.360  0.00  0.00    +0.000 NA
BRANCH  14  16
ATOM     16  C   UNL     1       4.236   5.661  17.302  0.00  0.00    +0.000 A 
ATOM     17  C   UNL     1       4.695   6.709  16.476  0.00  0.00    +0.000 A 
ATOM     18  C   UNL     1       5.540   6.468  15.385  0.00  0.00    +0.000 A 
ATOM     19  C   UNL     1       5.942   5.168  15.096  0.00  0.00    +0.000 A 
ATOM     20  C   UNL     1       5.499   4.124  15.892  0.00  0.00    +0.000 A 
ATOM     21  F   UNL     1       5.889   2.874  15.614  0.00  0.00    +0.000 F 
ATOM     22  C   UNL     1       4.660   4.356  16.978  0.00  0.00    +0.000 A 
ENDBRANCH  14  16
ENDBRANCH   1  12
BRANCH   5  23
ATOM     23  C   UNL     1      -1.378  12.661  21.238  0.00  0.00    +0.000 A 
ATOM     24  C   UNL     1      -0.544  13.289  22.173  0.00  0.00    +0.000 A 
ATOM     25  C   UNL     1      -1.066  13.753  23.382  0.00  0.00    +0.000 A 
ATOM     26  C   UNL     1      -2.433  13.666  23.618  0.00  0.00    +0.000 A 
ATOM     27  F   UNL     1      -2.930  14.120  24.775  0.00  0.00    +0.000 F 
ATOM     28  C   UNL     1      -3.290  13.132  22.666  0.00  0.00    +0.000 A 
ATOM     29  C   UNL     1      -2.762  12.624  21.476  0.00  0.00    +0.000 A 
ENDBRANCH   5  23
TORSDOF 3
ENDMDL
MODEL 6
REMARK VINA RESULT:      -8.3      2.900     10.081
REMARK  Name = 
REMARK  4 active torsions:
REMARK  status: ('A' for Active; 'I' for Inactive)
REMARK    1  A    between atoms: C_1  and  C_2
REMARK    2  A    between atoms: C_4  and  N_5
REMARK    3  A    between atoms: C_9  and  C_11
REMARK    4  A    between atoms: C_21  and  C_22
REMARK                            x       y       z     vdW  Elec       q    Type
REMARK                         _______ _______ _______ _____ _____    ______ ____
ROOT
ATOM      1  N   UNL     1       1.382   9.233  18.936  0.00  0.00    +0.000 N 
ATOM      2  C   UNL     1       1.741   8.599  20.211  0.00  0.00    +0.000 C 
ATOM      3  C   UNL     1       1.848   7.074  19.981  0.00  0.00    +0.000 C 
ATOM      4  N   UNL     1       2.743   6.754  18.852  0.00  0.00    +0.000 N 
ATOM      5  C   UNL     1       3.647   5.708  19.009  0.00  0.00    +0.000 C 
ATOM      6  O   UNL     1       3.686   5.027  20.034  0.00  0.00    +0.000 OA
ATOM      7  C   UNL     1       2.380   7.456  17.605  0.00  0.00    +0.000 C 
ATOM      8  C   UNL     1       2.334   8.979  17.845  0.00  0.00    +0.000 C 
ENDROOT
BRANCH   1  12
ATOM      9  C   UNL     1       1.264  14.090  19.263  0.00  0.00    +0.000 C 
ATOM     10  C   UNL     1       0.591  12.762  19.108  0.00  0.00    +0.000 A 
ATOM     11  C   UNL     1       1.301  11.593  19.241  0.00  0.00    +0.000 A 
ATOM     12  C   UNL     1       0.649  10.404  18.955  0.00  0.00    +0.000 A 
ATOM     13  N   UNL     1      -0.647  10.395  18.592  0.00  0.00    +0.000 NA
ATOM     14  C   UNL     1      -1.284  11.577  18.531  0.00  0.00    +0.000 A 
ATOM     15  N   UNL     1      -0.709  12.772  18.768  0.00  0.00    +0.000 NA
BRANCH  14  16
ATOM     16  C   UNL     1      -2.716  11.583  18.167  0.00  0.00    +0.000 A 
ATOM     17  C   UNL     1      -3.157  11.212  16.879  0.00  0.00    +0.000 A 
ATOM     18  C   UNL     1      -4.517  11.199  16.544  0.00  0.00    +0.000 A 
ATOM     19  C   UNL     1      -5.466  11.561  17.495  0.00  0.00    +0.000 A 
ATOM     20  C   UNL     1      -5.054  11.932  18.764  0.00  0.00    +0.000 A 
ATOM     21  F   UNL     1      -5.968  12.278  19.678  0.00  0.00    +0.000 F 
ATOM     22  C   UNL     1      -3.704  11.947  19.104  0.00  0.00    +0.000 A 
ENDBRANCH  14  16
ENDBRANCH   1  12
BRANCH   5  23
ATOM     23  C   UNL     1       4.622   5.361  17.940  0.00  0.00    +0.000 A 
ATOM     24  C   UNL     1       4.394   4.351  16.996  0.00  0.00    +0.000 A 
ATOM     25  C   UNL     1       5.369   4.043  16.045  0.00  0.00    +0.000 A 
ATOM     26  C   UNL     1       6.531   4.801  15.984  0.00  0.00    +0.000 A 
ATOM     27  F   UNL     1       7.459   4.508  15.064  0.00  0.00    +0.000 F 
ATOM     28  C   UNL     1       6.737   5.867  16.849  0.00  0.00    +0.000 A 
ATOM     29  C   UNL     1       5.784   6.145  17.833  0.00  0.00    +0.000 A 
ENDBRANCH   5  23
TORSDOF 3
ENDMDL
MODEL 7
REMARK VINA RESULT:      -8.1      4.046      8.853
REMARK  Name = 
REMARK  4 active torsions:
REMARK  status: ('A' for Active; 'I' for Inactive)
REMARK    1  A    between atoms: C_1  and  C_2
REMARK    2  A    between atoms: C_4  and  N_5
REMARK    3  A    between atoms: C_9  and  C_11
REMARK    4  A    between atoms: C_21  and  C_22
REMARK                            x       y       z     vdW  Elec       q    Type
REMARK                         _______ _______ _______ _____ _____    ______ ____
ROOT
ATOM      1  N   UNL     1       1.171   9.863  19.140  0.00  0.00    +0.000 N 
ATOM      2  C   UNL     1       1.536   9.358  17.810  0.00  0.00    +0.000 C 
ATOM      3  C   UNL     1       2.649   8.299  17.984  0.00  0.00    +0.000 C 
ATOM      4  N   UNL     1       2.268   7.262  18.963  0.00  0.00    +0.000 N 
ATOM      5  C   UNL     1       2.540   5.934  18.650  0.00  0.00    +0.000 C 
ATOM      6  O   UNL     1       3.123   5.614  17.613  0.00  0.00    +0.000 OA
ATOM      7  C   UNL     1       1.854   7.817  20.266  0.00  0.00    +0.000 C 
ATOM      8  C   UNL     1       0.705   8.829  20.074  0.00  0.00    +0.000 C 
ENDROOT
BRANCH   1  12
ATOM      9  C   UNL     1      -2.103  12.990  20.935  0.00  0.00    +0.000 C 
ATOM     10  C   UNL     1      -0.878  12.679  20.132  0.00  0.00    +0.000 A 
ATOM     11  C   UNL     1      -0.506  11.378  19.891  0.00  0.00    +0.000 A 
ATOM     12  C   UNL     1       0.707  11.160  19.257  0.00  0.00    +0.000 A 
ATOM     13  N   UNL     1       1.476  12.190  18.861  0.00  0.00    +0.000 NA
ATOM     14  C   UNL     1       1.019  13.433  19.092  0.00  0.00    +0.000 A 
ATOM     15  N   UNL     1      -0.134  13.721  19.726  0.00  0.00    +0.000 NA
BRANCH  14  16
ATOM     16  C   UNL     1       1.835  14.576  18.632  0.00  0.00    +0.000 A 
ATOM     17  C   UNL     1       1.353  15.900  18.682  0.00  0.00    +0.000 A 
ATOM     18  C   UNL     1       2.137  16.983  18.264  0.00  0.00    +0.000 A 
ATOM     19  C   UNL     1       3.424  16.761  17.784  0.00  0.00    +0.000 A 
ATOM     20  C   UNL     1       3.915  15.466  17.723  0.00  0.00    +0.000 A 
ATOM     21  F   UNL     1       5.153  15.254  17.263  0.00  0.00    +0.000 F 
ATOM     22  C   UNL     1       3.141  14.386  18.137  0.00  0.00    +0.000 A 
ENDBRANCH  14  16
ENDBRANCH   1  12
BRANCH   5  23
ATOM     23  C   UNL     1       2.135   4.826  19.557  0.00  0.00    +0.000 A 
ATOM     24  C   UNL     1       1.226   3.828  19.185  0.00  0.00    +0.000 A 
ATOM     25  C   UNL     1       0.852   2.840  20.098  0.00  0.00    +0.000 A 
ATOM     26  C   UNL     1       1.452   2.802  21.351  0.00  0.00    +0.000 A 
ATOM     27  F   UNL     1       1.097   1.847  22.220  0.00  0.00    +0.000 F 
ATOM     28  C   UNL     1       2.425   3.727  21.707  0.00  0.00    +0.000 A 
ATOM     29  C   UNL     1       2.764   4.744  20.812  0.00  0.00    +0.000 A 
ENDBRANCH   5  23
TORSDOF 3
ENDMDL
MODEL 8
REMARK VINA RESULT:      -8.1      2.168     10.036
REMARK  Name = 
REMARK  4 active torsions:
REMARK  status: ('A' for Active; 'I' for Inactive)
REMARK    1  A    between atoms: C_1  and  C_2
REMARK    2  A    between atoms: C_4  and  N_5
REMARK    3  A    between atoms: C_9  and  C_11
REMARK    4  A    between atoms: C_21  and  C_22
REMARK                            x       y       z     vdW  Elec       q    Type
REMARK                         _______ _______ _______ _____ _____    ______ ____
ROOT
ATOM      1  N   UNL     1       1.150   8.874  18.964  0.00  0.00    +0.000 N 
ATOM      2  C   UNL     1       1.649   8.333  20.235  0.00  0.00    +0.000 C 
ATOM      3  C   UNL     1       1.991   6.840  20.024  0.00  0.00    +0.000 C 
ATOM      4  N   UNL     1       2.887   6.644  18.868  0.00  0.00    +0.000 N 
ATOM      5  C   UNL     1       3.953   5.760  19.007  0.00  0.00    +0.000 C 
ATOM      6  O   UNL     1       4.135   5.116  20.040  0.00  0.00    +0.000 OA
ATOM      7  C   UNL     1       2.373   7.253  17.625  0.00  0.00    +0.000 C 
ATOM      8  C   UNL     1       2.092   8.753  17.842  0.00  0.00    +0.000 C 
ENDROOT
BRANCH   1  12
ATOM      9  C   UNL     1      -2.584  11.222  16.901  0.00  0.00    +0.000 C 
ATOM     10  C   UNL     1      -1.578  11.049  17.995  0.00  0.00    +0.000 A 
ATOM     11  C   UNL     1      -0.578  10.112  17.891  0.00  0.00    +0.000 A 
ATOM     12  C   UNL     1       0.238   9.913  18.993  0.00  0.00    +0.000 A 
ATOM     13  N   UNL     1       0.076  10.637  20.115  0.00  0.00    +0.000 NA
ATOM     14  C   UNL     1      -0.895  11.567  20.121  0.00  0.00    +0.000 A 
ATOM     15  N   UNL     1      -1.742  11.798  19.099  0.00  0.00    +0.000 NA
BRANCH  14  16
ATOM     16  C   UNL     1      -1.064  12.395  21.332  0.00  0.00    +0.000 A 
ATOM     17  C   UNL     1      -0.207  13.480  21.616  0.00  0.00    +0.000 A 
ATOM     18  C   UNL     1      -0.383  14.276  22.755  0.00  0.00    +0.000 A 
ATOM     19  C   UNL     1      -1.422  13.998  23.639  0.00  0.00    +0.000 A 
ATOM     20  C   UNL     1      -2.271  12.934  23.381  0.00  0.00    +0.000 A 
ATOM     21  F   UNL     1      -3.270  12.670  24.230  0.00  0.00    +0.000 F 
ATOM     22  C   UNL     1      -2.102  12.140  22.250  0.00  0.00    +0.000 A 
ENDBRANCH  14  16
ENDBRANCH   1  12
BRANCH   5  23
ATOM     23  C   UNL     1       4.933   5.551  17.907  0.00  0.00    +0.000 A 
ATOM     24  C   UNL     1       6.129   6.274  17.803  0.00  0.00    +0.000 A 
ATOM     25  C   UNL     1       6.988   6.062  16.722  0.00  0.00    +0.000 A 
ATOM     26  C   UNL     1       6.691   5.070  15.795  0.00  0.00    +0.000 A 
ATOM     27  F   UNL     1       7.522   4.865  14.765  0.00  0.00    +0.000 F 
ATOM     28  C   UNL     1       5.558   4.279  15.931  0.00  0.00    +0.000 A 
ATOM     29  C   UNL     1       4.675   4.522  16.985  0.00  0.00    +0.000 A 
ENDBRANCH   5  23
TORSDOF 3
ENDMDL
MODEL 9
REMARK VINA RESULT:      -8.0      2.133      2.642
REMARK  Name = 
REMARK  4 active torsions:
REMARK  status: ('A' for Active; 'I' for Inactive)
REMARK    1  A    between atoms: C_1  and  C_2
REMARK    2  A    between atoms: C_4  and  N_5
REMARK    3  A    between atoms: C_9  and  C_11
REMARK    4  A    between atoms: C_21  and  C_22
REMARK                            x       y       z     vdW  Elec       q    Type
REMARK                         _______ _______ _______ _____ _____    ______ ____
ROOT
ATOM      1  N   UNL     1       1.688   7.791  20.379  0.00  0.00    +0.000 N 
ATOM      2  C   UNL     1       0.766   7.871  21.519  0.00  0.00    +0.000 C 
ATOM      3  C   UNL     1       0.972   9.238  22.212  0.00  0.00    +0.000 C 
ATOM      4  N   UNL     1       0.875  10.356  21.253  0.00  0.00    +0.000 N 
ATOM      5  C   UNL     1       0.153  11.483  21.632  0.00  0.00    +0.000 C 
ATOM      6  O   UNL     1      -0.361  11.585  22.746  0.00  0.00    +0.000 OA
ATOM      7  C   UNL     1       1.777  10.206  20.094  0.00  0.00    +0.000 C 
ATOM      8  C   UNL     1       1.517   8.861  19.386  0.00  0.00    +0.000 C 
ENDROOT
BRANCH   1  12
ATOM      9  C   UNL     1       1.170   2.950  20.309  0.00  0.00    +0.000 C 
ATOM     10  C   UNL     1       1.904   4.203  19.947  0.00  0.00    +0.000 A 
ATOM     11  C   UNL     1       1.522   5.418  20.464  0.00  0.00    +0.000 A 
ATOM     12  C   UNL     1       2.159   6.552  19.986  0.00  0.00    +0.000 A 
ATOM     13  N   UNL     1       3.141   6.462  19.071  0.00  0.00    +0.000 NA
ATOM     14  C   UNL     1       3.489   5.234  18.651  0.00  0.00    +0.000 A 
ATOM     15  N   UNL     1       2.898   4.090  19.049  0.00  0.00    +0.000 NA
BRANCH  14  16
ATOM     16  C   UNL     1       4.590   5.114  17.673  0.00  0.00    +0.000 A 
ATOM     17  C   UNL     1       4.591   4.118  16.674  0.00  0.00    +0.000 A 
ATOM     18  C   UNL     1       5.626   4.021  15.735  0.00  0.00    +0.000 A 
ATOM     19  C   UNL     1       6.687   4.920  15.781  0.00  0.00    +0.000 A 
ATOM     20  C   UNL     1       6.708   5.902  16.757  0.00  0.00    +0.000 A 
ATOM     21  F   UNL     1       7.728   6.767  16.798  0.00  0.00    +0.000 F 
ATOM     22  C   UNL     1       5.682   6.005  17.692  0.00  0.00    +0.000 A 
ENDBRANCH  14  16
ENDBRANCH   1  12
BRANCH   5  23
ATOM     23  C   UNL     1      -0.040  12.627  20.700  0.00  0.00    +0.000 A 
ATOM     24  C   UNL     1      -0.686  12.505  19.463  0.00  0.00    +0.000 A 
ATOM     25  C   UNL     1      -0.795  13.609  18.614  0.00  0.00    +0.000 A 
ATOM     26  C   UNL     1      -0.335  14.849  19.038  0.00  0.00    +0.000 A 
ATOM     27  F   UNL     1      -0.450  15.906  18.224  0.00  0.00    +0.000 F 
ATOM     28  C   UNL     1       0.225  15.012  20.299  0.00  0.00    +0.000 A 
ATOM     29  C   UNL     1       0.378  13.899  21.129  0.00  0.00    +0.000 A 
ENDBRANCH   5  23
TORSDOF 3
ENDMDL
