MODEL 1
REMARK VINA RESULT:      -7.7      0.000      0.000
REMARK  Name = 
REMARK  6 active torsions:
REMARK  status: ('A' for Active; 'I' for Inactive)
REMARK    1  A    between atoms: C_2  and  C_4
REMARK    2  A    between atoms: C_4  and  N_5
REMARK    3  A    between atoms: C_7  and  N_8
REMARK    4  A    between atoms: N_11  and  C_12
REMARK    5  A    between atoms: C_12  and  C_13
REMARK    6  A    between atoms: C_13  and  N_14
REMARK                            x       y       z     vdW  Elec       q    Type
REMARK                         _______ _______ _______ _____ _____    ______ ____
ROOT
ATOM      1  N   UNL     1       9.075   9.010  19.330  0.00  0.00    +0.000 N 
ATOM      2  C   UNL     1       8.259   8.637  18.285  0.00  0.00    +0.000 C 
ATOM      3  O   UNL     1       7.818   9.391  17.419  0.00  0.00    +0.000 OA
ATOM      4  N   UNL     1       7.944   7.295  18.283  0.00  0.00    +0.000 N 
ATOM      5  H   UNL     1       9.348   8.310  19.998  0.00  0.00    +0.000 HD
ATOM      6  H   UNL     1       8.552   6.661  18.773  0.00  0.00    +0.000 HD
ENDROOT
BRANCH   1   9
ATOM      7  N   UNL     1      10.383  12.322  19.349  0.00  0.00    +0.000 N 
ATOM      8  C   UNL     1      10.256  11.112  18.737  0.00  0.00    +0.000 A 
ATOM      9  C   UNL     1       9.492  10.317  19.552  0.00  0.00    +0.000 A 
ATOM     10  C   UNL     1       9.218  11.148  20.666  0.00  0.00    +0.000 A 
ATOM     11  N   UNL     1       9.770  12.363  20.557  0.00  0.00    +0.000 NA
BRANCH   7  12
ATOM     12  C   UNL     1      11.101  13.478  18.837  0.00  0.00    +0.000 C 
BRANCH  12  14
ATOM     13  N   UNL     1       9.524  14.643  17.349  0.00  0.00    +0.000 N 
ATOM     14  C   UNL     1      10.670  13.908  17.455  0.00  0.00    +0.000 C 
ATOM     15  O   UNL     1      11.349  13.686  16.453  0.00  0.00    +0.000 OA
ATOM     16  H   UNL     1       9.214  14.958  16.442  0.00  0.00    +0.000 HD
ATOM     17  H   UNL     1       8.966  14.851  18.175  0.00  0.00    +0.000 HD
ENDBRANCH  12  14
ENDBRANCH   7  12
ENDBRANCH   1   9
BRANCH   4  18
ATOM     18  C   UNL     1       7.147   6.798  17.166  0.00  0.00    +0.000 C 
BRANCH  18  19
ATOM     19  C   UNL     1       5.629   6.980  17.330  0.00  0.00    +0.000 C 
BRANCH  19  20
ATOM     20  N   UNL     1       4.914   5.814  17.873  0.00  0.00    +0.000 NA
ATOM     21  C   UNL     1       5.342   4.552  17.231  0.00  0.00    +0.000 C 
ATOM     22  C   UNL     1       4.230   3.669  16.633  0.00  0.00    +0.000 C 
ATOM     23  C   UNL     1       3.118   3.521  17.633  0.00  0.00    +0.000 A 
ATOM     24  C   UNL     1       2.473   2.307  17.876  0.00  0.00    +0.000 A 
ATOM     25  C   UNL     1       1.473   2.240  18.845  0.00  0.00    +0.000 A 
ATOM     26  C   UNL     1       1.106   3.386  19.555  0.00  0.00    +0.000 A 
ATOM     27  C   UNL     1       1.734   4.606  19.294  0.00  0.00    +0.000 A 
ATOM     28  C   UNL     1       2.750   4.679  18.336  0.00  0.00    +0.000 A 
ATOM     29  C   UNL     1       3.453   5.972  17.978  0.00  0.00    +0.000 C 
ENDBRANCH  19  20
ENDBRANCH  18  19
ENDBRANCH   4  18
TORSDOF 6
ENDMDL
MODEL 2
REMARK VINA RESULT:      -7.7      1.372      1.584
REMARK  Name = 
REMARK  6 active torsions:
REMARK  status: ('A' for Active; 'I' for Inactive)
REMARK    1  A    between atoms: C_2  and  C_4
REMARK    2  A    between atoms: C_4  and  N_5
REMARK    3  A    between atoms: C_7  and  N_8
REMARK    4  A    between atoms: N_11  and  C_12
REMARK    5  A    between atoms: C_12  and  C_13
REMARK    6  A    between atoms: C_13  and  N_14
REMARK                            x       y       z     vdW  Elec       q    Type
REMARK                         _______ _______ _______ _____ _____    ______ ____
ROOT
ATOM      1  N   UNL     1       9.073   9.195  19.134  0.00  0.00    +0.000 N 
ATOM      2  C   UNL     1       8.333   8.390  18.295  0.00  0.00    +0.000 C 
ATOM      3  O   UNL     1       7.842   8.736  17.223  0.00  0.00    +0.000 OA
ATOM      4  N   UNL     1       8.163   7.108  18.772  0.00  0.00    +0.000 N 
ATOM      5  H   UNL     1       9.398   8.811  20.003  0.00  0.00    +0.000 HD
ATOM      6  H   UNL     1       8.819   6.758  19.450  0.00  0.00    +0.000 HD
ENDROOT
BRANCH   1   9
ATOM      7  N   UNL     1       9.420  12.734  18.944  0.00  0.00    +0.000 N 
ATOM      8  C   UNL     1       8.855  11.638  19.523  0.00  0.00    +0.000 A 
ATOM      9  C   UNL     1       9.343  10.534  18.873  0.00  0.00    +0.000 A 
ATOM     10  C   UNL     1      10.198  11.079  17.884  0.00  0.00    +0.000 A 
ATOM     11  N   UNL     1      10.237  12.417  17.911  0.00  0.00    +0.000 NA
BRANCH   7  12
ATOM     12  C   UNL     1       9.200  14.121  19.324  0.00  0.00    +0.000 C 
BRANCH  12  14
ATOM     13  N   UNL     1       9.363  15.447  17.257  0.00  0.00    +0.000 N 
ATOM     14  C   UNL     1       8.557  14.960  18.245  0.00  0.00    +0.000 C 
ATOM     15  O   UNL     1       7.342  15.146  18.191  0.00  0.00    +0.000 OA
ATOM     16  H   UNL     1       8.964  16.001  16.513  0.00  0.00    +0.000 HD
ATOM     17  H   UNL     1      10.367  15.280  17.280  0.00  0.00    +0.000 HD
ENDBRANCH  12  14
ENDBRANCH   7  12
ENDBRANCH   1   9
BRANCH   4  18
ATOM     18  C   UNL     1       7.457   6.164  17.911  0.00  0.00    +0.000 C 
BRANCH  18  19
ATOM     19  C   UNL     1       5.966   6.475  17.706  0.00  0.00    +0.000 C 
BRANCH  19  20
ATOM     20  N   UNL     1       5.036   5.490  18.284  0.00  0.00    +0.000 NA
ATOM     21  C   UNL     1       4.993   4.239  17.497  0.00  0.00    +0.000 C 
ATOM     22  C   UNL     1       3.603   3.757  17.039  0.00  0.00    +0.000 C 
ATOM     23  C   UNL     1       2.651   3.804  18.200  0.00  0.00    +0.000 A 
ATOM     24  C   UNL     1       1.731   2.788  18.468  0.00  0.00    +0.000 A 
ATOM     25  C   UNL     1       0.903   2.885  19.585  0.00  0.00    +0.000 A 
ATOM     26  C   UNL     1       0.981   4.002  20.420  0.00  0.00    +0.000 A 
ATOM     27  C   UNL     1       1.883   5.030  20.139  0.00  0.00    +0.000 A 
ATOM     28  C   UNL     1       2.729   4.933  19.030  0.00  0.00    +0.000 A 
ATOM     29  C   UNL     1       3.710   6.021  18.644  0.00  0.00    +0.000 C 
ENDBRANCH  19  20
ENDBRANCH  18  19
ENDBRANCH   4  18
TORSDOF 6
ENDMDL
MODEL 3
REMARK VINA RESULT:      -7.6      2.832     10.287
REMARK  Name = 
REMARK  6 active torsions:
REMARK  status: ('A' for Active; 'I' for Inactive)
REMARK    1  A    between atoms: C_2  and  C_4
REMARK    2  A    between atoms: C_4  and  N_5
REMARK    3  A    between atoms: C_7  and  N_8
REMARK    4  A    between atoms: N_11  and  C_12
REMARK    5  A    between atoms: C_12  and  C_13
REMARK    6  A    between atoms: C_13  and  N_14
REMARK                            x       y       z     vdW  Elec       q    Type
REMARK                         _______ _______ _______ _____ _____    ______ ____
ROOT
ATOM      1  N   UNL     1       6.792   7.493  16.909  0.00  0.00    +0.000 N 
ATOM      2  C   UNL     1       7.712   7.880  17.858  0.00  0.00    +0.000 C 
ATOM      3  O   UNL     1       8.212   7.147  18.709  0.00  0.00    +0.000 OA
ATOM      4  N   UNL     1       8.040   9.217  17.794  0.00  0.00    +0.000 N 
ATOM      5  H   UNL     1       6.427   8.189  16.283  0.00  0.00    +0.000 HD
ATOM      6  H   UNL     1       7.891   9.705  16.927  0.00  0.00    +0.000 HD
ENDROOT
BRANCH   1   9
ATOM      7  N   UNL     1       5.012   4.409  16.906  0.00  0.00    +0.000 N 
ATOM      8  C   UNL     1       5.086   5.723  17.258  0.00  0.00    +0.000 A 
ATOM      9  C   UNL     1       6.289   6.201  16.808  0.00  0.00    +0.000 A 
ATOM     10  C   UNL     1       6.892   5.071  16.202  0.00  0.00    +0.000 A 
ATOM     11  N   UNL     1       6.127   3.974  16.272  0.00  0.00    +0.000 NA
BRANCH   7  12
ATOM     12  C   UNL     1       3.903   3.506  17.170  0.00  0.00    +0.000 C 
BRANCH  12  14
ATOM     13  N   UNL     1       5.124   2.838  19.199  0.00  0.00    +0.000 N 
ATOM     14  C   UNL     1       3.926   2.886  18.546  0.00  0.00    +0.000 C 
ATOM     15  O   UNL     1       2.904   2.504  19.115  0.00  0.00    +0.000 OA
ATOM     16  H   UNL     1       5.173   2.442  20.126  0.00  0.00    +0.000 HD
ATOM     17  H   UNL     1       5.973   3.172  18.746  0.00  0.00    +0.000 HD
ENDBRANCH  12  14
ENDBRANCH   7  12
ENDBRANCH   1   9
BRANCH   4  18
ATOM     18  C   UNL     1       9.067   9.697  18.713  0.00  0.00    +0.000 C 
BRANCH  18  19
ATOM     19  C   UNL     1       9.692  11.048  18.328  0.00  0.00    +0.000 C 
BRANCH  19  20
ATOM     20  N   UNL     1       9.418  12.153  19.262  0.00  0.00    +0.000 NA
ATOM     21  C   UNL     1      10.145  13.386  18.890  0.00  0.00    +0.000 C 
ATOM     22  C   UNL     1      11.012  14.035  19.985  0.00  0.00    +0.000 C 
ATOM     23  C   UNL     1      10.220  14.129  21.259  0.00  0.00    +0.000 A 
ATOM     24  C   UNL     1      10.235  15.260  22.079  0.00  0.00    +0.000 A 
ATOM     25  C   UNL     1       9.447  15.288  23.228  0.00  0.00    +0.000 A 
ATOM     26  C   UNL     1       8.659  14.184  23.565  0.00  0.00    +0.000 A 
ATOM     27  C   UNL     1       8.662  13.045  22.758  0.00  0.00    +0.000 A 
ATOM     28  C   UNL     1       9.438  13.014  21.595  0.00  0.00    +0.000 A 
ATOM     29  C   UNL     1       9.517  11.802  20.689  0.00  0.00    +0.000 C 
ENDBRANCH  19  20
ENDBRANCH  18  19
ENDBRANCH   4  18
TORSDOF 6
ENDMDL
MODEL 4
REMARK VINA RESULT:      -7.5      0.903      1.616
REMARK  Name = 
REMARK  6 active torsions:
REMARK  status: ('A' for Active; 'I' for Inactive)
REMARK    1  A    between atoms: C_2  and  C_4
REMARK    2  A    between atoms: C_4  and  N_5
REMARK    3  A    between atoms: C_7  and  N_8
REMARK    4  A    between atoms: N_11  and  C_12
REMARK    5  A    between atoms: C_12  and  C_13
REMARK    6  A    between atoms: C_13  and  N_14
REMARK                            x       y       z     vdW  Elec       q    Type
REMARK                         _______ _______ _______ _____ _____    ______ ____
ROOT
ATOM      1  N   UNL     1       8.951   8.891  19.167  0.00  0.00    +0.000 N 
ATOM      2  C   UNL     1       8.179   8.296  18.193  0.00  0.00    +0.000 C 
ATOM      3  O   UNL     1       7.721   8.859  17.201  0.00  0.00    +0.000 OA
ATOM      4  N   UNL     1       7.932   6.960  18.426  0.00  0.00    +0.000 N 
ATOM      5  H   UNL     1       9.243   8.337  19.952  0.00  0.00    +0.000 HD
ATOM      6  H   UNL     1       8.559   6.456  19.030  0.00  0.00    +0.000 HD
ENDROOT
BRANCH   1   9
ATOM      7  N   UNL     1       9.700  12.319  18.560  0.00  0.00    +0.000 N 
ATOM      8  C   UNL     1       9.340  11.093  18.087  0.00  0.00    +0.000 A 
ATOM      9  C   UNL     1       9.297  10.237  19.157  0.00  0.00    +0.000 A 
ATOM     10  C   UNL     1       9.675  11.053  20.252  0.00  0.00    +0.000 A 
ATOM     11  N   UNL     1       9.937  12.316  19.894  0.00  0.00    +0.000 NA
BRANCH   7  12
ATOM     12  C   UNL     1       9.856  13.534  17.776  0.00  0.00    +0.000 C 
BRANCH  12  14
ATOM     13  N   UNL     1      11.350  14.682  16.192  0.00  0.00    +0.000 N 
ATOM     14  C   UNL     1      11.175  13.631  17.047  0.00  0.00    +0.000 C 
ATOM     15  O   UNL     1      12.103  12.851  17.256  0.00  0.00    +0.000 OA
ATOM     16  H   UNL     1      12.225  14.784  15.698  0.00  0.00    +0.000 HD
ATOM     17  H   UNL     1      10.596  15.346  16.028  0.00  0.00    +0.000 HD
ENDBRANCH  12  14
ENDBRANCH   7  12
ENDBRANCH   1   9
BRANCH   4  18
ATOM     18  C   UNL     1       7.187   6.231  17.405  0.00  0.00    +0.000 C 
BRANCH  18  19
ATOM     19  C   UNL     1       5.851   6.876  17.002  0.00  0.00    +0.000 C 
BRANCH  19  20
ATOM     20  N   UNL     1       4.667   6.017  17.160  0.00  0.00    +0.000 NA
ATOM     21  C   UNL     1       3.537   6.738  17.783  0.00  0.00    +0.000 C 
ATOM     22  C   UNL     1       2.906   6.090  19.031  0.00  0.00    +0.000 C 
ATOM     23  C   UNL     1       2.653   4.634  18.763  0.00  0.00    +0.000 A 
ATOM     24  C   UNL     1       1.478   3.984  19.150  0.00  0.00    +0.000 A 
ATOM     25  C   UNL     1       1.300   2.638  18.835  0.00  0.00    +0.000 A 
ATOM     26  C   UNL     1       2.297   1.940  18.151  0.00  0.00    +0.000 A 
ATOM     27  C   UNL     1       3.482   2.582  17.785  0.00  0.00    +0.000 A 
ATOM     28  C   UNL     1       3.663   3.936  18.082  0.00  0.00    +0.000 A 
ATOM     29  C   UNL     1       4.933   4.691  17.746  0.00  0.00    +0.000 C 
ENDBRANCH  19  20
ENDBRANCH  18  19
ENDBRANCH   4  18
TORSDOF 6
ENDMDL
MODEL 5
REMARK VINA RESULT:      -7.4      1.397      1.884
REMARK  Name = 
REMARK  6 active torsions:
REMARK  status: ('A' for Active; 'I' for Inactive)
REMARK    1  A    between atoms: C_2  and  C_4
REMARK    2  A    between atoms: C_4  and  N_5
REMARK    3  A    between atoms: C_7  and  N_8
REMARK    4  A    between atoms: N_11  and  C_12
REMARK    5  A    between atoms: C_12  and  C_13
REMARK    6  A    between atoms: C_13  and  N_14
REMARK                            x       y       z     vdW  Elec       q    Type
REMARK                         _______ _______ _______ _____ _____    ______ ____
ROOT
ATOM      1  N   UNL     1       9.615  10.251  19.418  0.00  0.00    +0.000 N 
ATOM      2  C   UNL     1       8.717   9.611  18.593  0.00  0.00    +0.000 C 
ATOM      3  O   UNL     1       8.019  10.154  17.739  0.00  0.00    +0.000 OA
ATOM      4  N   UNL     1       8.640   8.252  18.811  0.00  0.00    +0.000 N 
ATOM      5  H   UNL     1      10.109   9.706  20.103  0.00  0.00    +0.000 HD
ATOM      6  H   UNL     1       9.420   7.793  19.253  0.00  0.00    +0.000 HD
ENDROOT
BRANCH   1   9
ATOM      7  N   UNL     1      10.611  13.642  18.983  0.00  0.00    +0.000 N 
ATOM      8  C   UNL     1      10.809  12.318  18.733  0.00  0.00    +0.000 A 
ATOM      9  C   UNL     1       9.833  11.623  19.400  0.00  0.00    +0.000 A 
ATOM     10  C   UNL     1       9.090  12.637  20.054  0.00  0.00    +0.000 A 
ATOM     11  N   UNL     1       9.568  13.866  19.818  0.00  0.00    +0.000 NA
BRANCH   7  12
ATOM     12  C   UNL     1      11.404  14.746  18.466  0.00  0.00    +0.000 C 
BRANCH  12  14
ATOM     13  N   UNL     1       9.573  16.384  18.322  0.00  0.00    +0.000 N 
ATOM     14  C   UNL     1      10.608  15.763  17.684  0.00  0.00    +0.000 C 
ATOM     15  O   UNL     1      10.909  16.097  16.539  0.00  0.00    +0.000 OA
ATOM     16  H   UNL     1       9.028  17.079  17.832  0.00  0.00    +0.000 HD
ATOM     17  H   UNL     1       9.328  16.131  19.278  0.00  0.00    +0.000 HD
ENDBRANCH  12  14
ENDBRANCH   7  12
ENDBRANCH   1   9
BRANCH   4  18
ATOM     18  C   UNL     1       7.770   7.482  17.928  0.00  0.00    +0.000 C 
BRANCH  18  19
ATOM     19  C   UNL     1       7.539   6.027  18.364  0.00  0.00    +0.000 C 
BRANCH  19  20
ATOM     20  N   UNL     1       6.249   5.448  17.956  0.00  0.00    +0.000 NA
ATOM     21  C   UNL     1       5.340   6.465  17.385  0.00  0.00    +0.000 C 
ATOM     22  C   UNL     1       3.934   6.564  18.009  0.00  0.00    +0.000 C 
ATOM     23  C   UNL     1       3.343   5.188  18.131  0.00  0.00    +0.000 A 
ATOM     24  C   UNL     1       2.012   4.904  17.815  0.00  0.00    +0.000 A 
ATOM     25  C   UNL     1       1.545   3.595  17.920  0.00  0.00    +0.000 A 
ATOM     26  C   UNL     1       2.398   2.578  18.353  0.00  0.00    +0.000 A 
ATOM     27  C   UNL     1       3.722   2.866  18.692  0.00  0.00    +0.000 A 
ATOM     28  C   UNL     1       4.204   4.173  18.575  0.00  0.00    +0.000 A 
ATOM     29  C   UNL     1       5.617   4.567  18.954  0.00  0.00    +0.000 C 
ENDBRANCH  19  20
ENDBRANCH  18  19
ENDBRANCH   4  18
TORSDOF 6
ENDMDL
MODEL 6
REMARK VINA RESULT:      -7.4      1.466      2.001
REMARK  Name = 
REMARK  6 active torsions:
REMARK  status: ('A' for Active; 'I' for Inactive)
REMARK    1  A    between atoms: C_2  and  C_4
REMARK    2  A    between atoms: C_4  and  N_5
REMARK    3  A    between atoms: C_7  and  N_8
REMARK    4  A    between atoms: N_11  and  C_12
REMARK    5  A    between atoms: C_12  and  C_13
REMARK    6  A    between atoms: C_13  and  N_14
REMARK                            x       y       z     vdW  Elec       q    Type
REMARK                         _______ _______ _______ _____ _____    ______ ____
ROOT
ATOM      1  N   UNL     1       8.428  10.443  17.574  0.00  0.00    +0.000 N 
ATOM      2  C   UNL     1       8.354   9.155  18.055  0.00  0.00    +0.000 C 
ATOM      3  O   UNL     1       8.889   8.744  19.083  0.00  0.00    +0.000 OA
ATOM      4  N   UNL     1       7.611   8.311  17.258  0.00  0.00    +0.000 N 
ATOM      5  H   UNL     1       7.975  10.656  16.703  0.00  0.00    +0.000 HD
ATOM      6  H   UNL     1       6.933   8.715  16.634  0.00  0.00    +0.000 HD
ENDROOT
BRANCH   1   9
ATOM      7  N   UNL     1      10.191  13.342  18.657  0.00  0.00    +0.000 N 
ATOM      8  C   UNL     1       9.529  12.667  17.676  0.00  0.00    +0.000 A 
ATOM      9  C   UNL     1       9.151  11.455  18.194  0.00  0.00    +0.000 A 
ATOM     10  C   UNL     1       9.660  11.485  19.516  0.00  0.00    +0.000 A 
ATOM     11  N   UNL     1      10.307  12.623  19.799  0.00  0.00    +0.000 NA
BRANCH   7  12
ATOM     12  C   UNL     1      10.758  14.677  18.553  0.00  0.00    +0.000 C 
BRANCH  12  14
ATOM     13  N   UNL     1      10.499  15.882  16.423  0.00  0.00    +0.000 N 
ATOM     14  C   UNL     1       9.979  15.609  17.656  0.00  0.00    +0.000 C 
ATOM     15  O   UNL     1       8.876  16.056  17.967  0.00  0.00    +0.000 OA
ATOM     16  H   UNL     1       9.997  16.491  15.793  0.00  0.00    +0.000 HD
ATOM     17  H   UNL     1      11.401  15.499  16.146  0.00  0.00    +0.000 HD
ENDBRANCH  12  14
ENDBRANCH   7  12
ENDBRANCH   1   9
BRANCH   4  18
ATOM     18  C   UNL     1       7.415   6.945  17.733  0.00  0.00    +0.000 C 
BRANCH  18  19
ATOM     19  C   UNL     1       7.099   5.921  16.631  0.00  0.00    +0.000 C 
BRANCH  19  20
ATOM     20  N   UNL     1       5.738   5.361  16.667  0.00  0.00    +0.000 NA
ATOM     21  C   UNL     1       4.703   6.418  16.671  0.00  0.00    +0.000 C 
ATOM     22  C   UNL     1       3.656   6.355  17.799  0.00  0.00    +0.000 C 
ATOM     23  C   UNL     1       3.126   4.953  17.911  0.00  0.00    +0.000 A 
ATOM     24  C   UNL     1       1.771   4.667  18.095  0.00  0.00    +0.000 A 
ATOM     25  C   UNL     1       1.350   3.340  18.155  0.00  0.00    +0.000 A 
ATOM     26  C   UNL     1       2.280   2.303  18.048  0.00  0.00    +0.000 A 
ATOM     27  C   UNL     1       3.637   2.589  17.889  0.00  0.00    +0.000 A 
ATOM     28  C   UNL     1       4.067   3.917  17.811  0.00  0.00    +0.000 A 
ATOM     29  C   UNL     1       5.525   4.305  17.671  0.00  0.00    +0.000 C 
ENDBRANCH  19  20
ENDBRANCH  18  19
ENDBRANCH   4  18
TORSDOF 6
ENDMDL
MODEL 7
REMARK VINA RESULT:      -7.4      2.818     10.569
REMARK  Name = 
REMARK  6 active torsions:
REMARK  status: ('A' for Active; 'I' for Inactive)
REMARK    1  A    between atoms: C_2  and  C_4
REMARK    2  A    between atoms: C_4  and  N_5
REMARK    3  A    between atoms: C_7  and  N_8
REMARK    4  A    between atoms: N_11  and  C_12
REMARK    5  A    between atoms: C_12  and  C_13
REMARK    6  A    between atoms: C_13  and  N_14
REMARK                            x       y       z     vdW  Elec       q    Type
REMARK                         _______ _______ _______ _____ _____    ______ ____
ROOT
ATOM      1  N   UNL     1       6.769   7.607  16.924  0.00  0.00    +0.000 N 
ATOM      2  C   UNL     1       7.710   7.967  17.863  0.00  0.00    +0.000 C 
ATOM      3  O   UNL     1       8.210   7.215  18.698  0.00  0.00    +0.000 OA
ATOM      4  N   UNL     1       8.062   9.298  17.809  0.00  0.00    +0.000 N 
ATOM      5  H   UNL     1       6.407   8.317  16.312  0.00  0.00    +0.000 HD
ATOM      6  H   UNL     1       7.909   9.799  16.949  0.00  0.00    +0.000 HD
ENDROOT
BRANCH   1   9
ATOM      7  N   UNL     1       4.921   4.563  16.886  0.00  0.00    +0.000 N 
ATOM      8  C   UNL     1       5.014   5.877  17.231  0.00  0.00    +0.000 A 
ATOM      9  C   UNL     1       6.240   6.326  16.815  0.00  0.00    +0.000 A 
ATOM     10  C   UNL     1       6.837   5.179  16.236  0.00  0.00    +0.000 A 
ATOM     11  N   UNL     1       6.047   4.099  16.291  0.00  0.00    +0.000 NA
BRANCH   7  12
ATOM     12  C   UNL     1       3.785   3.687  17.121  0.00  0.00    +0.000 C 
BRANCH  12  14
ATOM     13  N   UNL     1       4.958   2.867  19.123  0.00  0.00    +0.000 N 
ATOM     14  C   UNL     1       4.040   2.608  18.146  0.00  0.00    +0.000 C 
ATOM     15  O   UNL     1       3.400   1.557  18.171  0.00  0.00    +0.000 OA
ATOM     16  H   UNL     1       5.143   2.172  19.832  0.00  0.00    +0.000 HD
ATOM     17  H   UNL     1       5.477   3.743  19.125  0.00  0.00    +0.000 HD
ENDBRANCH  12  14
ENDBRANCH   7  12
ENDBRANCH   1   9
BRANCH   4  18
ATOM     18  C   UNL     1       9.112   9.749  18.717  0.00  0.00    +0.000 C 
BRANCH  18  19
ATOM     19  C   UNL     1       9.823  11.041  18.285  0.00  0.00    +0.000 C 
BRANCH  19  20
ATOM     20  N   UNL     1      10.191  11.950  19.382  0.00  0.00    +0.000 NA
ATOM     21  C   UNL     1       9.549  11.568  20.659  0.00  0.00    +0.000 C 
ATOM     22  C   UNL     1       8.748  12.665  21.386  0.00  0.00    +0.000 C 
ATOM     23  C   UNL     1       9.566  13.924  21.444  0.00  0.00    +0.000 A 
ATOM     24  C   UNL     1       9.645  14.725  22.586  0.00  0.00    +0.000 A 
ATOM     25  C   UNL     1      10.452  15.861  22.575  0.00  0.00    +0.000 A 
ATOM     26  C   UNL     1      11.164  16.205  21.424  0.00  0.00    +0.000 A 
ATOM     27  C   UNL     1      11.065  15.419  20.274  0.00  0.00    +0.000 A 
ATOM     28  C   UNL     1      10.271  14.269  20.280  0.00  0.00    +0.000 A 
ATOM     29  C   UNL     1      10.090  13.385  19.063  0.00  0.00    +0.000 C 
ENDBRANCH  19  20
ENDBRANCH  18  19
ENDBRANCH   4  18
TORSDOF 6
ENDMDL
MODEL 8
REMARK VINA RESULT:      -7.4      5.924      9.241
REMARK  Name = 
REMARK  6 active torsions:
REMARK  status: ('A' for Active; 'I' for Inactive)
REMARK    1  A    between atoms: C_2  and  C_4
REMARK    2  A    between atoms: C_4  and  N_5
REMARK    3  A    between atoms: C_7  and  N_8
REMARK    4  A    between atoms: N_11  and  C_12
REMARK    5  A    between atoms: C_12  and  C_13
REMARK    6  A    between atoms: C_13  and  N_14
REMARK                            x       y       z     vdW  Elec       q    Type
REMARK                         _______ _______ _______ _____ _____    ______ ____
ROOT
ATOM      1  N   UNL     1       3.321   5.808  19.952  0.00  0.00    +0.000 N 
ATOM      2  C   UNL     1       2.511   6.910  19.786  0.00  0.00    +0.000 C 
ATOM      3  O   UNL     1       2.335   7.514  18.730  0.00  0.00    +0.000 OA
ATOM      4  N   UNL     1       1.892   7.318  20.947  0.00  0.00    +0.000 N 
ATOM      5  H   UNL     1       3.413   5.415  20.872  0.00  0.00    +0.000 HD
ATOM      6  H   UNL     1       1.783   6.650  21.692  0.00  0.00    +0.000 HD
ENDROOT
BRANCH   1   9
ATOM      7  N   UNL     1       5.705   4.634  17.581  0.00  0.00    +0.000 N 
ATOM      8  C   UNL     1       5.405   5.405  18.663  0.00  0.00    +0.000 A 
ATOM      9  C   UNL     1       4.069   5.242  18.926  0.00  0.00    +0.000 A 
ATOM     10  C   UNL     1       3.636   4.351  17.914  0.00  0.00    +0.000 A 
ATOM     11  N   UNL     1       4.622   3.989  17.083  0.00  0.00    +0.000 NA
BRANCH   7  12
ATOM     12  C   UNL     1       7.012   4.489  16.961  0.00  0.00    +0.000 C 
BRANCH  12  14
ATOM     13  N   UNL     1       6.328   3.625  14.760  0.00  0.00    +0.000 N 
ATOM     14  C   UNL     1       6.994   4.593  15.454  0.00  0.00    +0.000 C 
ATOM     15  O   UNL     1       7.485   5.549  14.854  0.00  0.00    +0.000 OA
ATOM     16  H   UNL     1       6.286   3.672  13.752  0.00  0.00    +0.000 HD
ATOM     17  H   UNL     1       5.899   2.841  15.248  0.00  0.00    +0.000 HD
ENDBRANCH  12  14
ENDBRANCH   7  12
ENDBRANCH   1   9
BRANCH   4  18
ATOM     18  C   UNL     1       0.955   8.433  20.848  0.00  0.00    +0.000 C 
BRANCH  18  19
ATOM     19  C   UNL     1       0.956   9.381  22.058  0.00  0.00    +0.000 C 
BRANCH  19  20
ATOM     20  N   UNL     1       0.732  10.801  21.742  0.00  0.00    +0.000 NA
ATOM     21  C   UNL     1      -0.511  11.317  22.355  0.00  0.00    +0.000 C 
ATOM     22  C   UNL     1      -1.515  12.005  21.411  0.00  0.00    +0.000 C 
ATOM     23  C   UNL     1      -0.786  12.989  20.539  0.00  0.00    +0.000 A 
ATOM     24  C   UNL     1      -1.283  14.263  20.254  0.00  0.00    +0.000 A 
ATOM     25  C   UNL     1      -0.533  15.134  19.466  0.00  0.00    +0.000 A 
ATOM     26  C   UNL     1       0.700  14.729  18.951  0.00  0.00    +0.000 A 
ATOM     27  C   UNL     1       1.186  13.447  19.214  0.00  0.00    +0.000 A 
ATOM     28  C   UNL     1       0.448  12.572  20.018  0.00  0.00    +0.000 A 
ATOM     29  C   UNL     1       0.895  11.156  20.322  0.00  0.00    +0.000 C 
ENDBRANCH  19  20
ENDBRANCH  18  19
ENDBRANCH   4  18
TORSDOF 6
ENDMDL
MODEL 9
REMARK VINA RESULT:      -7.4      1.937      2.173
REMARK  Name = 
REMARK  6 active torsions:
REMARK  status: ('A' for Active; 'I' for Inactive)
REMARK    1  A    between atoms: C_2  and  C_4
REMARK    2  A    between atoms: C_4  and  N_5
REMARK    3  A    between atoms: C_7  and  N_8
REMARK    4  A    between atoms: N_11  and  C_12
REMARK    5  A    between atoms: C_12  and  C_13
REMARK    6  A    between atoms: C_13  and  N_14
REMARK                            x       y       z     vdW  Elec       q    Type
REMARK                         _______ _______ _______ _____ _____    ______ ____
ROOT
ATOM      1  N   UNL     1       8.078   9.595  17.756  0.00  0.00    +0.000 N 
ATOM      2  C   UNL     1       7.997   8.239  17.986  0.00  0.00    +0.000 C 
ATOM      3  O   UNL     1       8.699   7.604  18.771  0.00  0.00    +0.000 OA
ATOM      4  N   UNL     1       7.036   7.608  17.226  0.00  0.00    +0.000 N 
ATOM      5  H   UNL     1       7.473  10.000  17.065  0.00  0.00    +0.000 HD
ATOM      6  H   UNL     1       6.280   8.159  16.857  0.00  0.00    +0.000 HD
ENDROOT
BRANCH   1   9
ATOM      7  N   UNL     1      10.114  11.623  19.859  0.00  0.00    +0.000 N 
ATOM      8  C   UNL     1       9.007  10.848  19.688  0.00  0.00    +0.000 A 
ATOM      9  C   UNL     1       8.997  10.427  18.384  0.00  0.00    +0.000 A 
ATOM     10  C   UNL     1      10.154  11.030  17.830  0.00  0.00    +0.000 A 
ATOM     11  N   UNL     1      10.829  11.772  18.718  0.00  0.00    +0.000 NA
BRANCH   7  12
ATOM     12  C   UNL     1      10.533  12.270  21.092  0.00  0.00    +0.000 C 
BRANCH  12  14
ATOM     13  N   UNL     1       9.944  14.480  20.183  0.00  0.00    +0.000 N 
ATOM     14  C   UNL     1       9.978  13.662  21.276  0.00  0.00    +0.000 C 
ATOM     15  O   UNL     1       9.495  14.044  22.341  0.00  0.00    +0.000 OA
ATOM     16  H   UNL     1       9.567  15.413  20.268  0.00  0.00    +0.000 HD
ATOM     17  H   UNL     1      10.320  14.166  19.291  0.00  0.00    +0.000 HD
ENDBRANCH  12  14
ENDBRANCH   7  12
ENDBRANCH   1   9
BRANCH   4  18
ATOM     18  C   UNL     1       6.829   6.182  17.461  0.00  0.00    +0.000 C 
BRANCH  18  19
ATOM     19  C   UNL     1       6.463   5.818  18.909  0.00  0.00    +0.000 C 
BRANCH  19  20
ATOM     20  N   UNL     1       5.339   4.879  19.054  0.00  0.00    +0.000 NA
ATOM     21  C   UNL     1       5.158   4.040  17.850  0.00  0.00    +0.000 C 
ATOM     22  C   UNL     1       3.752   4.028  17.220  0.00  0.00    +0.000 C 
ATOM     23  C   UNL     1       2.724   3.816  18.296  0.00  0.00    +0.000 A 
ATOM     24  C   UNL     1       1.631   2.961  18.143  0.00  0.00    +0.000 A 
ATOM     25  C   UNL     1       0.738   2.788  19.199  0.00  0.00    +0.000 A 
ATOM     26  C   UNL     1       0.928   3.480  20.398  0.00  0.00    +0.000 A 
ATOM     27  C   UNL     1       2.007   4.354  20.543  0.00  0.00    +0.000 A 
ATOM     28  C   UNL     1       2.917   4.521  19.495  0.00  0.00    +0.000 A 
ATOM     29  C   UNL     1       4.093   5.474  19.567  0.00  0.00    +0.000 C 
ENDBRANCH  19  20
ENDBRANCH  18  19
ENDBRANCH   4  18
TORSDOF 6
ENDMDL
