MODEL 1
REMARK VINA RESULT:      -7.1      0.000      0.000
REMARK  Name = 
REMARK  8 active torsions:
REMARK  status: ('A' for Active; 'I' for Inactive)
REMARK    1  A    between atoms: C_1  and  O_2
REMARK    2  A    between atoms: O_2  and  C_3
REMARK    3  A    between atoms: C_6  and  C_7
REMARK    4  A    between atoms: N_12  and  C_13
REMARK    5  A    between atoms: C_13  and  C_14
REMARK    6  A    between atoms: N_22  and  C_23
REMARK    7  A    between atoms: C_30  and  O_31
REMARK    8  A    between atoms: O_31  and  C_32
REMARK                            x       y       z     vdW  Elec       q    Type
REMARK                         _______ _______ _______ _____ _____    ______ ____
ROOT
ATOM      1  C   UNL     1       0.232  10.470  21.650  0.00  0.00    +0.000 A 
ATOM      2  C   UNL     1       0.498   9.390  22.412  0.00  0.00    +0.000 A 
ATOM      3 CL   UNL     1       0.113   9.339  24.112  0.00  0.00    +0.000 Cl
ATOM      4  N   UNL     1       1.081   8.233  21.961  0.00  0.00    +0.000 NA
ATOM      5  C   UNL     1       1.441   8.173  20.707  0.00  0.00    +0.000 A 
ATOM      6  N   UNL     1       2.010   7.002  20.266  0.00  0.00    +0.000 N 
ATOM      7  C   UNL     1       1.210   9.357  19.735  0.00  0.00    +0.000 A 
ATOM      8  O   UNL     1       1.550   9.239  18.558  0.00  0.00    +0.000 OA
ATOM      9  N   UNL     1       0.590  10.473  20.299  0.00  0.00    +0.000 N 
ATOM     10  H   UNL     1       1.939   6.213  20.894  0.00  0.00    +0.000 HD
ENDROOT
BRANCH   1  14
ATOM     11  C   UNL     1      -2.037  13.839  23.010  0.00  0.00    +0.000 A 
ATOM     12  C   UNL     1      -0.681  13.996  22.672  0.00  0.00    +0.000 A 
ATOM     13  C   UNL     1       0.087  12.909  22.243  0.00  0.00    +0.000 A 
ATOM     14  C   UNL     1      -0.487  11.640  22.192  0.00  0.00    +0.000 A 
ATOM     15  C   UNL     1      -1.801  11.468  22.646  0.00  0.00    +0.000 A 
ATOM     16  C   UNL     1      -2.589  12.553  23.050  0.00  0.00    +0.000 A 
BRANCH  11  18
ATOM     17  C   UNL     1      -3.357  15.627  22.204  0.00  0.00    +0.000 C 
ATOM     18  O   UNL     1      -2.811  14.925  23.322  0.00  0.00    +0.000 OA
ENDBRANCH  11  18
BRANCH  16  19
ATOM     19  O   UNL     1      -3.844  12.150  23.408  0.00  0.00    +0.000 OA
ATOM     20  C   UNL     1      -4.304  12.383  24.726  0.00  0.00    +0.000 C 
ENDBRANCH  16  19
ENDBRANCH   1  14
BRANCH   9  21
ATOM     21  C   UNL     1       0.352  11.570  19.426  0.00  0.00    +0.000 A 
ATOM     22  C   UNL     1       1.354  12.522  19.202  0.00  0.00    +0.000 A 
ATOM     23  C   UNL     1       1.093  13.626  18.390  0.00  0.00    +0.000 A 
ATOM     24  C   UNL     1      -0.164  13.783  17.806  0.00  0.00    +0.000 A 
ATOM     25  C   UNL     1      -1.164  12.837  18.032  0.00  0.00    +0.000 A 
ATOM     26  C   UNL     1      -0.910  11.733  18.847  0.00  0.00    +0.000 A 
ENDBRANCH   9  21
BRANCH   6  27
ATOM     27  C   UNL     1       2.930   6.891  19.156  0.00  0.00    +0.000 C 
BRANCH  27  28
ATOM     28  C   UNL     1       2.831   5.544  18.468  0.00  0.00    +0.000 A 
ATOM     29  C   UNL     1       3.899   5.105  17.668  0.00  0.00    +0.000 A 
ATOM     30  C   UNL     1       3.857   3.858  17.040  0.00  0.00    +0.000 A 
ATOM     31  C   UNL     1       2.752   3.028  17.212  0.00  0.00    +0.000 A 
ATOM     32  C   UNL     1       1.701   3.432  18.031  0.00  0.00    +0.000 A 
ATOM     33  C   UNL     1       1.747   4.674  18.669  0.00  0.00    +0.000 A 
ENDBRANCH  27  28
ENDBRANCH   6  27
TORSDOF 6
ENDMDL
MODEL 2
REMARK VINA RESULT:      -6.9      0.452      1.293
REMARK  Name = 
REMARK  8 active torsions:
REMARK  status: ('A' for Active; 'I' for Inactive)
REMARK    1  A    between atoms: C_1  and  O_2
REMARK    2  A    between atoms: O_2  and  C_3
REMARK    3  A    between atoms: C_6  and  C_7
REMARK    4  A    between atoms: N_12  and  C_13
REMARK    5  A    between atoms: C_13  and  C_14
REMARK    6  A    between atoms: N_22  and  C_23
REMARK    7  A    between atoms: C_30  and  O_31
REMARK    8  A    between atoms: O_31  and  C_32
REMARK                            x       y       z     vdW  Elec       q    Type
REMARK                         _______ _______ _______ _____ _____    ______ ____
ROOT
ATOM      1  C   UNL     1       0.188  10.540  21.681  0.00  0.00    +0.000 A 
ATOM      2  C   UNL     1       0.467   9.447  22.418  0.00  0.00    +0.000 A 
ATOM      3 CL   UNL     1       0.081   9.352  24.116  0.00  0.00    +0.000 Cl
ATOM      4  N   UNL     1       1.065   8.308  21.941  0.00  0.00    +0.000 NA
ATOM      5  C   UNL     1       1.426   8.282  20.686  0.00  0.00    +0.000 A 
ATOM      6  N   UNL     1       2.010   7.129  20.219  0.00  0.00    +0.000 N 
ATOM      7  C   UNL     1       1.181   9.485  19.742  0.00  0.00    +0.000 A 
ATOM      8  O   UNL     1       1.523   9.398  18.563  0.00  0.00    +0.000 OA
ATOM      9  N   UNL     1       0.546  10.579  20.331  0.00  0.00    +0.000 N 
ATOM     10  H   UNL     1       1.950   6.324  20.829  0.00  0.00    +0.000 HD
ENDROOT
BRANCH   1  14
ATOM     11  C   UNL     1      -2.123  13.851  23.114  0.00  0.00    +0.000 A 
ATOM     12  C   UNL     1      -0.763  14.027  22.801  0.00  0.00    +0.000 A 
ATOM     13  C   UNL     1       0.018  12.958  22.350  0.00  0.00    +0.000 A 
ATOM     14  C   UNL     1      -0.547  11.688  22.250  0.00  0.00    +0.000 A 
ATOM     15  C   UNL     1      -1.866  11.494  22.677  0.00  0.00    +0.000 A 
ATOM     16  C   UNL     1      -2.667  12.561  23.104  0.00  0.00    +0.000 A 
BRANCH  11  18
ATOM     17  C   UNL     1      -2.428  15.714  24.537  0.00  0.00    +0.000 C 
ATOM     18  O   UNL     1      -2.908  14.922  23.449  0.00  0.00    +0.000 OA
ENDBRANCH  11  18
BRANCH  16  19
ATOM     19  O   UNL     1      -3.925  12.140  23.430  0.00  0.00    +0.000 OA
ATOM     20  C   UNL     1      -4.401  12.316  24.751  0.00  0.00    +0.000 C 
ENDBRANCH  16  19
ENDBRANCH   1  14
BRANCH   9  21
ATOM     21  C   UNL     1       0.295  11.693  19.483  0.00  0.00    +0.000 A 
ATOM     22  C   UNL     1      -0.929  11.807  18.812  0.00  0.00    +0.000 A 
ATOM     23  C   UNL     1      -1.145  12.872  17.938  0.00  0.00    +0.000 A 
ATOM     24  C   UNL     1      -0.142  13.819  17.729  0.00  0.00    +0.000 A 
ATOM     25  C   UNL     1       1.079  13.704  18.393  0.00  0.00    +0.000 A 
ATOM     26  C   UNL     1       1.302  12.639  19.266  0.00  0.00    +0.000 A 
ENDBRANCH   9  21
BRANCH   6  27
ATOM     27  C   UNL     1       2.932   7.055  19.107  0.00  0.00    +0.000 C 
BRANCH  27  28
ATOM     28  C   UNL     1       2.912   5.694  18.441  0.00  0.00    +0.000 A 
ATOM     29  C   UNL     1       1.768   4.888  18.565  0.00  0.00    +0.000 A 
ATOM     30  C   UNL     1       1.701   3.640  17.943  0.00  0.00    +0.000 A 
ATOM     31  C   UNL     1       2.772   3.183  17.180  0.00  0.00    +0.000 A 
ATOM     32  C   UNL     1       3.900   3.984  17.017  0.00  0.00    +0.000 A 
ATOM     33  C   UNL     1       3.963   5.238  17.628  0.00  0.00    +0.000 A 
ENDBRANCH  27  28
ENDBRANCH   6  27
TORSDOF 6
ENDMDL
MODEL 3
REMARK VINA RESULT:      -6.9      2.925      4.480
REMARK  Name = 
REMARK  8 active torsions:
REMARK  status: ('A' for Active; 'I' for Inactive)
REMARK    1  A    between atoms: C_1  and  O_2
REMARK    2  A    between atoms: O_2  and  C_3
REMARK    3  A    between atoms: C_6  and  C_7
REMARK    4  A    between atoms: N_12  and  C_13
REMARK    5  A    between atoms: C_13  and  C_14
REMARK    6  A    between atoms: N_22  and  C_23
REMARK    7  A    between atoms: C_30  and  O_31
REMARK    8  A    between atoms: O_31  and  C_32
REMARK                            x       y       z     vdW  Elec       q    Type
REMARK                         _______ _______ _______ _____ _____    ______ ____
ROOT
ATOM      1  C   UNL     1       1.089  13.183  19.319  0.00  0.00    +0.000 A 
ATOM      2  C   UNL     1       2.112  13.065  18.449  0.00  0.00    +0.000 A 
ATOM      3 CL   UNL     1       2.948  14.455  17.808  0.00  0.00    +0.000 Cl
ATOM      4  N   UNL     1       2.610  11.877  17.979  0.00  0.00    +0.000 NA
ATOM      5  C   UNL     1       2.037  10.770  18.369  0.00  0.00    +0.000 A 
ATOM      6  N   UNL     1       2.557   9.588  17.902  0.00  0.00    +0.000 N 
ATOM      7  C   UNL     1       0.837  10.776  19.349  0.00  0.00    +0.000 A 
ATOM      8  O   UNL     1       0.348   9.703  19.701  0.00  0.00    +0.000 OA
ATOM      9  N   UNL     1       0.431  12.040  19.779  0.00  0.00    +0.000 N 
ATOM     10  H   UNL     1       3.455   9.651  17.439  0.00  0.00    +0.000 HD
ENDROOT
BRANCH   1  14
ATOM     11  C   UNL     1       0.035  17.116  20.651  0.00  0.00    +0.000 A 
ATOM     12  C   UNL     1       0.759  16.259  21.498  0.00  0.00    +0.000 A 
ATOM     13  C   UNL     1       1.100  14.964  21.094  0.00  0.00    +0.000 A 
ATOM     14  C   UNL     1       0.676  14.497  19.851  0.00  0.00    +0.000 A 
ATOM     15  C   UNL     1      -0.148  15.311  19.063  0.00  0.00    +0.000 A 
ATOM     16  C   UNL     1      -0.471  16.620  19.443  0.00  0.00    +0.000 A 
BRANCH  11  18
ATOM     17  C   UNL     1      -0.487  18.631  22.389  0.00  0.00    +0.000 C 
ATOM     18  O   UNL     1      -0.199  18.419  21.006  0.00  0.00    +0.000 OA
ENDBRANCH  11  18
BRANCH  16  19
ATOM     19  O   UNL     1      -1.247  17.234  18.501  0.00  0.00    +0.000 OA
ATOM     20  C   UNL     1      -0.661  18.167  17.613  0.00  0.00    +0.000 C 
ENDBRANCH  16  19
ENDBRANCH   1  14
BRANCH   9  21
ATOM     21  C   UNL     1      -0.661  12.074  20.691  0.00  0.00    +0.000 A 
ATOM     22  C   UNL     1      -1.947  12.392  20.239  0.00  0.00    +0.000 A 
ATOM     23  C   UNL     1      -3.000  12.480  21.149  0.00  0.00    +0.000 A 
ATOM     24  C   UNL     1      -2.771  12.257  22.507  0.00  0.00    +0.000 A 
ATOM     25  C   UNL     1      -1.488  11.946  22.959  0.00  0.00    +0.000 A 
ATOM     26  C   UNL     1      -0.430  11.860  22.054  0.00  0.00    +0.000 A 
ENDBRANCH   9  21
BRANCH   6  27
ATOM     27  C   UNL     1       1.816   8.354  17.751  0.00  0.00    +0.000 C 
BRANCH  27  28
ATOM     28  C   UNL     1       2.564   7.167  18.324  0.00  0.00    +0.000 A 
ATOM     29  C   UNL     1       3.674   6.659  17.630  0.00  0.00    +0.000 A 
ATOM     30  C   UNL     1       4.405   5.584  18.139  0.00  0.00    +0.000 A 
ATOM     31  C   UNL     1       4.043   5.008  19.354  0.00  0.00    +0.000 A 
ATOM     32  C   UNL     1       2.967   5.522  20.072  0.00  0.00    +0.000 A 
ATOM     33  C   UNL     1       2.243   6.606  19.570  0.00  0.00    +0.000 A 
ENDBRANCH  27  28
ENDBRANCH   6  27
TORSDOF 6
ENDMDL
MODEL 4
REMARK VINA RESULT:      -6.9      1.382      1.842
REMARK  Name = 
REMARK  8 active torsions:
REMARK  status: ('A' for Active; 'I' for Inactive)
REMARK    1  A    between atoms: C_1  and  O_2
REMARK    2  A    between atoms: O_2  and  C_3
REMARK    3  A    between atoms: C_6  and  C_7
REMARK    4  A    between atoms: N_12  and  C_13
REMARK    5  A    between atoms: C_13  and  C_14
REMARK    6  A    between atoms: N_22  and  C_23
REMARK    7  A    between atoms: C_30  and  O_31
REMARK    8  A    between atoms: O_31  and  C_32
REMARK                            x       y       z     vdW  Elec       q    Type
REMARK                         _______ _______ _______ _____ _____    ______ ____
ROOT
ATOM      1  C   UNL     1      -0.032  11.211  21.189  0.00  0.00    +0.000 A 
ATOM      2  C   UNL     1      -0.029   9.916  21.565  0.00  0.00    +0.000 A 
ATOM      3 CL   UNL     1      -0.791   9.378  23.038  0.00  0.00    +0.000 Cl
ATOM      4  N   UNL     1       0.550   8.893  20.858  0.00  0.00    +0.000 NA
ATOM      5  C   UNL     1       1.178   9.188  19.751  0.00  0.00    +0.000 A 
ATOM      6  N   UNL     1       1.739   8.150  19.046  0.00  0.00    +0.000 N 
ATOM      7  C   UNL     1       1.264  10.642  19.225  0.00  0.00    +0.000 A 
ATOM      8  O   UNL     1       1.851  10.860  18.166  0.00  0.00    +0.000 OA
ATOM      9  N   UNL     1       0.620  11.595  20.015  0.00  0.00    +0.000 N 
ATOM     10  H   UNL     1       1.469   7.220  19.337  0.00  0.00    +0.000 HD
ENDROOT
BRANCH   1  14
ATOM     11  C   UNL     1      -2.284  14.260  23.185  0.00  0.00    +0.000 A 
ATOM     12  C   UNL     1      -0.879  14.313  23.182  0.00  0.00    +0.000 A 
ATOM     13  C   UNL     1      -0.120  13.320  22.554  0.00  0.00    +0.000 A 
ATOM     14  C   UNL     1      -0.763  12.236  21.959  0.00  0.00    +0.000 A 
ATOM     15  C   UNL     1      -2.155  12.126  22.070  0.00  0.00    +0.000 A 
ATOM     16  C   UNL     1      -2.928  13.128  22.671  0.00  0.00    +0.000 A 
BRANCH  11  18
ATOM     17  C   UNL     1      -3.156  15.289  25.126  0.00  0.00    +0.000 C 
ATOM     18  O   UNL     1      -3.023  15.290  23.704  0.00  0.00    +0.000 OA
ENDBRANCH  11  18
BRANCH  16  19
ATOM     19  O   UNL     1      -4.259  12.823  22.625  0.00  0.00    +0.000 OA
ATOM     20  C   UNL     1      -4.900  12.677  21.372  0.00  0.00    +0.000 C 
ENDBRANCH  16  19
ENDBRANCH   1  14
BRANCH   9  21
ATOM     21  C   UNL     1       0.671  12.938  19.548  0.00  0.00    +0.000 A 
ATOM     22  C   UNL     1       1.824  13.708  19.740  0.00  0.00    +0.000 A 
ATOM     23  C   UNL     1       1.845  15.041  19.331  0.00  0.00    +0.000 A 
ATOM     24  C   UNL     1       0.718  15.608  18.736  0.00  0.00    +0.000 A 
ATOM     25  C   UNL     1      -0.434  14.843  18.549  0.00  0.00    +0.000 A 
ATOM     26  C   UNL     1      -0.462  13.510  18.959  0.00  0.00    +0.000 A 
ENDBRANCH   9  21
BRANCH   6  27
ATOM     27  C   UNL     1       2.875   8.267  18.158  0.00  0.00    +0.000 C 
BRANCH  27  28
ATOM     28  C   UNL     1       3.416   6.913  17.744  0.00  0.00    +0.000 A 
ATOM     29  C   UNL     1       2.694   5.756  18.083  0.00  0.00    +0.000 A 
ATOM     30  C   UNL     1       3.146   4.493  17.696  0.00  0.00    +0.000 A 
ATOM     31  C   UNL     1       4.320   4.368  16.957  0.00  0.00    +0.000 A 
ATOM     32  C   UNL     1       5.028   5.507  16.582  0.00  0.00    +0.000 A 
ATOM     33  C   UNL     1       4.570   6.772  16.958  0.00  0.00    +0.000 A 
ENDBRANCH  27  28
ENDBRANCH   6  27
TORSDOF 6
ENDMDL
MODEL 5
REMARK VINA RESULT:      -6.8      0.815      1.785
REMARK  Name = 
REMARK  8 active torsions:
REMARK  status: ('A' for Active; 'I' for Inactive)
REMARK    1  A    between atoms: C_1  and  O_2
REMARK    2  A    between atoms: O_2  and  C_3
REMARK    3  A    between atoms: C_6  and  C_7
REMARK    4  A    between atoms: N_12  and  C_13
REMARK    5  A    between atoms: C_13  and  C_14
REMARK    6  A    between atoms: N_22  and  C_23
REMARK    7  A    between atoms: C_30  and  O_31
REMARK    8  A    between atoms: O_31  and  C_32
REMARK                            x       y       z     vdW  Elec       q    Type
REMARK                         _______ _______ _______ _____ _____    ______ ____
ROOT
ATOM      1  C   UNL     1       0.178  10.385  21.668  0.00  0.00    +0.000 A 
ATOM      2  C   UNL     1       0.488   9.335  22.456  0.00  0.00    +0.000 A 
ATOM      3 CL   UNL     1       0.137   9.325  24.164  0.00  0.00    +0.000 Cl
ATOM      4  N   UNL     1       1.092   8.181  22.026  0.00  0.00    +0.000 NA
ATOM      5  C   UNL     1       1.428   8.094  20.767  0.00  0.00    +0.000 A 
ATOM      6  N   UNL     1       2.019   6.926  20.349  0.00  0.00    +0.000 N 
ATOM      7  C   UNL     1       1.147   9.242  19.767  0.00  0.00    +0.000 A 
ATOM      8  O   UNL     1       1.466   9.098  18.587  0.00  0.00    +0.000 OA
ATOM      9  N   UNL     1       0.508  10.357  20.311  0.00  0.00    +0.000 N 
ATOM     10  H   UNL     1       1.982   6.153  21.001  0.00  0.00    +0.000 HD
ENDROOT
BRANCH   1  14
ATOM     11  C   UNL     1      -1.775  13.784  23.395  0.00  0.00    +0.000 A 
ATOM     12  C   UNL     1      -2.470  12.569  23.259  0.00  0.00    +0.000 A 
ATOM     13  C   UNL     1      -1.862  11.450  22.682  0.00  0.00    +0.000 A 
ATOM     14  C   UNL     1      -0.561  11.551  22.191  0.00  0.00    +0.000 A 
ATOM     15  C   UNL     1       0.082  12.795  22.219  0.00  0.00    +0.000 A 
ATOM     16  C   UNL     1      -0.505  13.916  22.820  0.00  0.00    +0.000 A 
BRANCH  11  18
ATOM     17  C   UNL     1      -3.742  15.009  23.863  0.00  0.00    +0.000 C 
ATOM     18  O   UNL     1      -2.337  14.842  24.060  0.00  0.00    +0.000 OA
ENDBRANCH  11  18
BRANCH  16  19
ATOM     19  O   UNL     1       0.323  15.001  22.765  0.00  0.00    +0.000 OA
ATOM     20  C   UNL     1       1.375  15.030  21.819  0.00  0.00    +0.000 C 
ENDBRANCH  16  19
ENDBRANCH   1  14
BRANCH   9  21
ATOM     21  C   UNL     1       0.224  11.422  19.411  0.00  0.00    +0.000 A 
ATOM     22  C   UNL     1       1.195  12.393  19.140  0.00  0.00    +0.000 A 
ATOM     23  C   UNL     1       0.889  13.465  18.302  0.00  0.00    +0.000 A 
ATOM     24  C   UNL     1      -0.383  13.572  17.739  0.00  0.00    +0.000 A 
ATOM     25  C   UNL     1      -1.353  12.607  18.012  0.00  0.00    +0.000 A 
ATOM     26  C   UNL     1      -1.053  11.534  18.853  0.00  0.00    +0.000 A 
ENDBRANCH   9  21
BRANCH   6  27
ATOM     27  C   UNL     1       2.919   6.805  19.223  0.00  0.00    +0.000 C 
BRANCH  27  28
ATOM     28  C   UNL     1       2.797   5.459  18.538  0.00  0.00    +0.000 A 
ATOM     29  C   UNL     1       3.816   5.041  17.666  0.00  0.00    +0.000 A 
ATOM     30  C   UNL     1       3.752   3.796  17.037  0.00  0.00    +0.000 A 
ATOM     31  C   UNL     1       2.675   2.947  17.279  0.00  0.00    +0.000 A 
ATOM     32  C   UNL     1       1.674   3.331  18.168  0.00  0.00    +0.000 A 
ATOM     33  C   UNL     1       1.743   4.571  18.807  0.00  0.00    +0.000 A 
ENDBRANCH  27  28
ENDBRANCH   6  27
TORSDOF 6
ENDMDL
MODEL 6
REMARK VINA RESULT:      -6.8      1.304      1.959
REMARK  Name = 
REMARK  8 active torsions:
REMARK  status: ('A' for Active; 'I' for Inactive)
REMARK    1  A    between atoms: C_1  and  O_2
REMARK    2  A    between atoms: O_2  and  C_3
REMARK    3  A    between atoms: C_6  and  C_7
REMARK    4  A    between atoms: N_12  and  C_13
REMARK    5  A    between atoms: C_13  and  C_14
REMARK    6  A    between atoms: N_22  and  C_23
REMARK    7  A    between atoms: C_30  and  O_31
REMARK    8  A    between atoms: O_31  and  C_32
REMARK                            x       y       z     vdW  Elec       q    Type
REMARK                         _______ _______ _______ _____ _____    ______ ____
ROOT
ATOM      1  C   UNL     1      -0.043  11.261  21.333  0.00  0.00    +0.000 A 
ATOM      2  C   UNL     1      -0.032   9.960  21.687  0.00  0.00    +0.000 A 
ATOM      3 CL   UNL     1      -0.751   9.399  23.173  0.00  0.00    +0.000 Cl
ATOM      4  N   UNL     1       0.523   8.949  20.945  0.00  0.00    +0.000 NA
ATOM      5  C   UNL     1       1.119   9.261  19.826  0.00  0.00    +0.000 A 
ATOM      6  N   UNL     1       1.657   8.235  19.087  0.00  0.00    +0.000 N 
ATOM      7  C   UNL     1       1.193  10.723  19.322  0.00  0.00    +0.000 A 
ATOM      8  O   UNL     1       1.748  10.959  18.249  0.00  0.00    +0.000 OA
ATOM      9  N   UNL     1       0.575  11.664  20.147  0.00  0.00    +0.000 N 
ATOM     10  H   UNL     1       1.393   7.300  19.370  0.00  0.00    +0.000 HD
ENDROOT
BRANCH   1  14
ATOM     11  C   UNL     1      -2.264  14.242  23.463  0.00  0.00    +0.000 A 
ATOM     12  C   UNL     1      -0.892  14.430  23.219  0.00  0.00    +0.000 A 
ATOM     13  C   UNL     1      -0.140  13.463  22.542  0.00  0.00    +0.000 A 
ATOM     14  C   UNL     1      -0.748  12.275  22.142  0.00  0.00    +0.000 A 
ATOM     15  C   UNL     1      -2.083  12.041  22.495  0.00  0.00    +0.000 A 
ATOM     16  C   UNL     1      -2.855  13.013  23.146  0.00  0.00    +0.000 A 
BRANCH  11  18
ATOM     17  C   UNL     1      -2.797  15.455  25.420  0.00  0.00    +0.000 C 
ATOM     18  O   UNL     1      -3.018  15.238  24.026  0.00  0.00    +0.000 OA
ENDBRANCH  11  18
BRANCH  16  19
ATOM     19  O   UNL     1      -4.135  12.579  23.347  0.00  0.00    +0.000 OA
ATOM     20  C   UNL     1      -4.572  12.277  24.658  0.00  0.00    +0.000 C 
ENDBRANCH  16  19
ENDBRANCH   1  14
BRANCH   9  21
ATOM     21  C   UNL     1       0.615  13.016  19.701  0.00  0.00    +0.000 A 
ATOM     22  C   UNL     1      -0.484  13.570  19.034  0.00  0.00    +0.000 A 
ATOM     23  C   UNL     1      -0.415  14.876  18.550  0.00  0.00    +0.000 A 
ATOM     24  C   UNL     1       0.748  15.626  18.726  0.00  0.00    +0.000 A 
ATOM     25  C   UNL     1       1.846  15.073  19.386  0.00  0.00    +0.000 A 
ATOM     26  C   UNL     1       1.783  13.765  19.870  0.00  0.00    +0.000 A 
ENDBRANCH   9  21
BRANCH   6  27
ATOM     27  C   UNL     1       2.765   8.364  18.167  0.00  0.00    +0.000 C 
BRANCH  27  28
ATOM     28  C   UNL     1       3.332   7.017  17.765  0.00  0.00    +0.000 A 
ATOM     29  C   UNL     1       2.619   5.852  18.088  0.00  0.00    +0.000 A 
ATOM     30  C   UNL     1       3.095   4.594  17.711  0.00  0.00    +0.000 A 
ATOM     31  C   UNL     1       4.286   4.485  16.998  0.00  0.00    +0.000 A 
ATOM     32  C   UNL     1       4.988   5.633  16.639  0.00  0.00    +0.000 A 
ATOM     33  C   UNL     1       4.506   6.891  17.005  0.00  0.00    +0.000 A 
ENDBRANCH  27  28
ENDBRANCH   6  27
TORSDOF 6
ENDMDL
MODEL 7
REMARK VINA RESULT:      -6.7      1.596      2.166
REMARK  Name = 
REMARK  8 active torsions:
REMARK  status: ('A' for Active; 'I' for Inactive)
REMARK    1  A    between atoms: C_1  and  O_2
REMARK    2  A    between atoms: O_2  and  C_3
REMARK    3  A    between atoms: C_6  and  C_7
REMARK    4  A    between atoms: N_12  and  C_13
REMARK    5  A    between atoms: C_13  and  C_14
REMARK    6  A    between atoms: N_22  and  C_23
REMARK    7  A    between atoms: C_30  and  O_31
REMARK    8  A    between atoms: O_31  and  C_32
REMARK                            x       y       z     vdW  Elec       q    Type
REMARK                         _______ _______ _______ _____ _____    ______ ____
ROOT
ATOM      1  C   UNL     1      -0.207  11.863  21.278  0.00  0.00    +0.000 A 
ATOM      2  C   UNL     1      -0.283  10.574  21.666  0.00  0.00    +0.000 A 
ATOM      3 CL   UNL     1      -1.093  10.095  23.134  0.00  0.00    +0.000 Cl
ATOM      4  N   UNL     1       0.244   9.513  20.975  0.00  0.00    +0.000 NA
ATOM      5  C   UNL     1       0.901   9.760  19.873  0.00  0.00    +0.000 A 
ATOM      6  N   UNL     1       1.409   8.685  19.184  0.00  0.00    +0.000 N 
ATOM      7  C   UNL     1       1.078  11.201  19.336  0.00  0.00    +0.000 A 
ATOM      8  O   UNL     1       1.688  11.375  18.281  0.00  0.00    +0.000 OA
ATOM      9  N   UNL     1       0.481  12.198  20.109  0.00  0.00    +0.000 N 
ATOM     10  H   UNL     1       1.082   7.775  19.480  0.00  0.00    +0.000 HD
ENDROOT
BRANCH   1  14
ATOM     11  C   UNL     1      -2.264  15.084  23.213  0.00  0.00    +0.000 A 
ATOM     12  C   UNL     1      -0.877  14.933  23.386  0.00  0.00    +0.000 A 
ATOM     13  C   UNL     1      -0.184  13.879  22.781  0.00  0.00    +0.000 A 
ATOM     14  C   UNL     1      -0.885  12.937  22.030  0.00  0.00    +0.000 A 
ATOM     15  C   UNL     1      -2.282  13.023  21.962  0.00  0.00    +0.000 A 
ATOM     16  C   UNL     1      -2.983  14.090  22.540  0.00  0.00    +0.000 A 
BRANCH  11  18
ATOM     17  C   UNL     1      -3.388  16.044  25.058  0.00  0.00    +0.000 C 
ATOM     18  O   UNL     1      -2.917  16.178  23.716  0.00  0.00    +0.000 OA
ENDBRANCH  11  18
BRANCH  16  19
ATOM     19  O   UNL     1      -4.326  13.985  22.308  0.00  0.00    +0.000 OA
ATOM     20  C   UNL     1      -4.850  12.789  21.762  0.00  0.00    +0.000 C 
ENDBRANCH  16  19
ENDBRANCH   1  14
BRANCH   9  21
ATOM     21  C   UNL     1       0.615  13.532  19.631  0.00  0.00    +0.000 A 
ATOM     22  C   UNL     1      -0.429  14.133  18.918  0.00  0.00    +0.000 A 
ATOM     23  C   UNL     1      -0.267  15.419  18.403  0.00  0.00    +0.000 A 
ATOM     24  C   UNL     1       0.934  16.103  18.594  0.00  0.00    +0.000 A 
ATOM     25  C   UNL     1       1.977  15.502  19.300  0.00  0.00    +0.000 A 
ATOM     26  C   UNL     1       1.822  14.214  19.815  0.00  0.00    +0.000 A 
ENDBRANCH   9  21
BRANCH   6  27
ATOM     27  C   UNL     1       2.560   8.727  18.309  0.00  0.00    +0.000 C 
BRANCH  27  28
ATOM     28  C   UNL     1       3.033   7.340  17.923  0.00  0.00    +0.000 A 
ATOM     29  C   UNL     1       4.253   7.198  17.242  0.00  0.00    +0.000 A 
ATOM     30  C   UNL     1       4.734   5.934  16.893  0.00  0.00    +0.000 A 
ATOM     31  C   UNL     1       4.009   4.794  17.229  0.00  0.00    +0.000 A 
ATOM     32  C   UNL     1       2.815   4.915  17.935  0.00  0.00    +0.000 A 
ATOM     33  C   UNL     1       2.338   6.177  18.295  0.00  0.00    +0.000 A 
ENDBRANCH  27  28
ENDBRANCH   6  27
TORSDOF 6
ENDMDL
MODEL 8
REMARK VINA RESULT:      -6.7      2.907      4.380
REMARK  Name = 
REMARK  8 active torsions:
REMARK  status: ('A' for Active; 'I' for Inactive)
REMARK    1  A    between atoms: C_1  and  O_2
REMARK    2  A    between atoms: O_2  and  C_3
REMARK    3  A    between atoms: C_6  and  C_7
REMARK    4  A    between atoms: N_12  and  C_13
REMARK    5  A    between atoms: C_13  and  C_14
REMARK    6  A    between atoms: N_22  and  C_23
REMARK    7  A    between atoms: C_30  and  O_31
REMARK    8  A    between atoms: O_31  and  C_32
REMARK                            x       y       z     vdW  Elec       q    Type
REMARK                         _______ _______ _______ _____ _____    ______ ____
ROOT
ATOM      1  C   UNL     1       1.109  13.121  19.349  0.00  0.00    +0.000 A 
ATOM      2  C   UNL     1       2.106  12.965  18.455  0.00  0.00    +0.000 A 
ATOM      3 CL   UNL     1       2.955  14.326  17.770  0.00  0.00    +0.000 Cl
ATOM      4  N   UNL     1       2.565  11.759  17.991  0.00  0.00    +0.000 NA
ATOM      5  C   UNL     1       1.977  10.672  18.414  0.00  0.00    +0.000 A 
ATOM      6  N   UNL     1       2.458   9.471  17.951  0.00  0.00    +0.000 N 
ATOM      7  C   UNL     1       0.805  10.720  19.425  0.00  0.00    +0.000 A 
ATOM      8  O   UNL     1       0.301   9.664  19.806  0.00  0.00    +0.000 OA
ATOM      9  N   UNL     1       0.438  12.000  19.844  0.00  0.00    +0.000 N 
ATOM     10  H   UNL     1       3.344   9.507  17.465  0.00  0.00    +0.000 HD
ENDROOT
BRANCH   1  14
ATOM     11  C   UNL     1       0.173  17.097  20.641  0.00  0.00    +0.000 A 
ATOM     12  C   UNL     1       0.929  16.249  21.470  0.00  0.00    +0.000 A 
ATOM     13  C   UNL     1       1.233  14.940  21.080  0.00  0.00    +0.000 A 
ATOM     14  C   UNL     1       0.740  14.452  19.871  0.00  0.00    +0.000 A 
ATOM     15  C   UNL     1      -0.112  15.259  19.107  0.00  0.00    +0.000 A 
ATOM     16  C   UNL     1      -0.400  16.580  19.473  0.00  0.00    +0.000 A 
BRANCH  11  18
ATOM     17  C   UNL     1      -0.542  18.631  22.291  0.00  0.00    +0.000 C 
ATOM     18  O   UNL     1      -0.026  18.410  20.977  0.00  0.00    +0.000 OA
ENDBRANCH  11  18
BRANCH  16  19
ATOM     19  O   UNL     1      -1.215  17.183  18.557  0.00  0.00    +0.000 OA
ATOM     20  C   UNL     1      -0.660  18.067  17.602  0.00  0.00    +0.000 C 
ENDBRANCH  16  19
ENDBRANCH   1  14
BRANCH   9  21
ATOM     21  C   UNL     1      -0.628  12.073  20.785  0.00  0.00    +0.000 A 
ATOM     22  C   UNL     1      -0.405  11.750  22.128  0.00  0.00    +0.000 A 
ATOM     23  C   UNL     1      -1.467  11.769  23.032  0.00  0.00    +0.000 A 
ATOM     24  C   UNL     1      -2.750  12.104  22.596  0.00  0.00    +0.000 A 
ATOM     25  C   UNL     1      -2.973  12.422  21.256  0.00  0.00    +0.000 A 
ATOM     26  C   UNL     1      -1.915  12.401  20.347  0.00  0.00    +0.000 A 
ENDBRANCH   9  21
BRANCH   6  27
ATOM     27  C   UNL     1       1.686   8.253  17.840  0.00  0.00    +0.000 C 
BRANCH  27  28
ATOM     28  C   UNL     1       2.568   7.021  17.807  0.00  0.00    +0.000 A 
ATOM     29  C   UNL     1       3.920   7.157  17.455  0.00  0.00    +0.000 A 
ATOM     30  C   UNL     1       4.771   6.050  17.439  0.00  0.00    +0.000 A 
ATOM     31  C   UNL     1       4.284   4.792  17.785  0.00  0.00    +0.000 A 
ATOM     32  C   UNL     1       2.954   4.645  18.171  0.00  0.00    +0.000 A 
ATOM     33  C   UNL     1       2.106   5.754  18.199  0.00  0.00    +0.000 A 
ENDBRANCH  27  28
ENDBRANCH   6  27
TORSDOF 6
ENDMDL
MODEL 9
REMARK VINA RESULT:      -6.7      2.914      4.412
REMARK  Name = 
REMARK  8 active torsions:
REMARK  status: ('A' for Active; 'I' for Inactive)
REMARK    1  A    between atoms: C_1  and  O_2
REMARK    2  A    between atoms: O_2  and  C_3
REMARK    3  A    between atoms: C_6  and  C_7
REMARK    4  A    between atoms: N_12  and  C_13
REMARK    5  A    between atoms: C_13  and  C_14
REMARK    6  A    between atoms: N_22  and  C_23
REMARK    7  A    between atoms: C_30  and  O_31
REMARK    8  A    between atoms: O_31  and  C_32
REMARK                            x       y       z     vdW  Elec       q    Type
REMARK                         _______ _______ _______ _____ _____    ______ ____
ROOT
ATOM      1  C   UNL     1       1.068  13.515  19.165  0.00  0.00    +0.000 A 
ATOM      2  C   UNL     1       2.104  13.353  18.317  0.00  0.00    +0.000 A 
ATOM      3 CL   UNL     1       2.952  14.710  17.622  0.00  0.00    +0.000 Cl
ATOM      4  N   UNL     1       2.608  12.143  17.914  0.00  0.00    +0.000 NA
ATOM      5  C   UNL     1       2.027  11.058  18.350  0.00  0.00    +0.000 A 
ATOM      6  N   UNL     1       2.553   9.853  17.949  0.00  0.00    +0.000 N 
ATOM      7  C   UNL     1       0.813  11.112  19.310  0.00  0.00    +0.000 A 
ATOM      8  O   UNL     1       0.317  10.058  19.707  0.00  0.00    +0.000 OA
ATOM      9  N   UNL     1       0.402  12.396  19.670  0.00  0.00    +0.000 N 
ATOM     10  H   UNL     1       3.457   9.893  17.498  0.00  0.00    +0.000 HD
ENDROOT
BRANCH   1  14
ATOM     11  C   UNL     1      -0.254  17.277  20.731  0.00  0.00    +0.000 A 
ATOM     12  C   UNL     1      -0.733  16.828  19.488  0.00  0.00    +0.000 A 
ATOM     13  C   UNL     1      -0.303  15.612  18.945  0.00  0.00    +0.000 A 
ATOM     14  C   UNL     1       0.649  14.854  19.625  0.00  0.00    +0.000 A 
ATOM     15  C   UNL     1       1.212  15.365  20.802  0.00  0.00    +0.000 A 
ATOM     16  C   UNL     1       0.769  16.566  21.370  0.00  0.00    +0.000 A 
BRANCH  11  18
ATOM     17  C   UNL     1      -1.960  18.228  22.063  0.00  0.00    +0.000 C 
ATOM     18  O   UNL     1      -0.761  18.412  21.308  0.00  0.00    +0.000 OA
ENDBRANCH  11  18
BRANCH  16  19
ATOM     19  O   UNL     1       1.430  16.840  22.534  0.00  0.00    +0.000 OA
ATOM     20  C   UNL     1       2.845  16.835  22.551  0.00  0.00    +0.000 C 
ENDBRANCH  16  19
ENDBRANCH   1  14
BRANCH   9  21
ATOM     21  C   UNL     1      -0.704  12.477  20.563  0.00  0.00    +0.000 A 
ATOM     22  C   UNL     1      -0.505  12.346  21.943  0.00  0.00    +0.000 A 
ATOM     23  C   UNL     1      -1.601  12.368  22.806  0.00  0.00    +0.000 A 
ATOM     24  C   UNL     1      -2.891  12.515  22.296  0.00  0.00    +0.000 A 
ATOM     25  C   UNL     1      -3.089  12.641  20.920  0.00  0.00    +0.000 A 
ATOM     26  C   UNL     1      -1.998  12.616  20.052  0.00  0.00    +0.000 A 
ENDBRANCH   9  21
BRANCH   6  27
ATOM     27  C   UNL     1       1.812   8.614  17.849  0.00  0.00    +0.000 C 
BRANCH  27  28
ATOM     28  C   UNL     1       2.651   7.416  18.244  0.00  0.00    +0.000 A 
ATOM     29  C   UNL     1       3.801   7.111  17.498  0.00  0.00    +0.000 A 
ATOM     30  C   UNL     1       4.615   6.031  17.847  0.00  0.00    +0.000 A 
ATOM     31  C   UNL     1       4.296   5.247  18.953  0.00  0.00    +0.000 A 
ATOM     32  C   UNL     1       3.179   5.558  19.725  0.00  0.00    +0.000 A 
ATOM     33  C   UNL     1       2.372   6.645  19.384  0.00  0.00    +0.000 A 
ENDBRANCH  27  28
ENDBRANCH   6  27
TORSDOF 6
ENDMDL
