MODEL 1
REMARK VINA RESULT:      -7.6      0.000      0.000
REMARK  Name = 
REMARK  8 active torsions:
REMARK  status: ('A' for Active; 'I' for Inactive)
REMARK    1  A    between atoms: C_1  and  C_2
REMARK    2  A    between atoms: C_2  and  C_4
REMARK    3  A    between atoms: C_8  and  S_9
REMARK    4  A    between atoms: S_9  and  N_12
REMARK    5  A    between atoms: N_12  and  C_13
REMARK    6  A    between atoms: C_13  and  C_14
REMARK    7  A    between atoms: C_14  and  C_15
REMARK    8  A    between atoms: C_15  and  N_16
REMARK                            x       y       z     vdW  Elec       q    Type
REMARK                         _______ _______ _______ _____ _____    ______ ____
ROOT
ATOM      1  S   UNL     1       6.960   4.934  16.200  0.00  0.00    +0.000 S 
ATOM      2  O   UNL     1       8.043   4.152  16.962  0.00  0.00    +0.000 OA
ATOM      3  O   UNL     1       7.249   6.381  16.629  0.00  0.00    +0.000 OA
ENDROOT
BRANCH   1   8
ATOM      4  C   UNL     1       6.216   3.663  12.387  0.00  0.00    +0.000 A 
ATOM      5  C   UNL     1       7.127   4.442  11.646  0.00  0.00    +0.000 A 
ATOM      6  C   UNL     1       7.971   5.352  12.289  0.00  0.00    +0.000 A 
ATOM      7  C   UNL     1       7.920   5.495  13.674  0.00  0.00    +0.000 A 
ATOM      8  C   UNL     1       7.023   4.729  14.425  0.00  0.00    +0.000 A 
ATOM      9  C   UNL     1       6.175   3.818  13.787  0.00  0.00    +0.000 A 
BRANCH   4  11
ATOM     10  C   UNL     1       3.959   3.114  11.187  0.00  0.00    +0.000 C 
ATOM     11  C   UNL     1       5.311   2.701  11.696  0.00  0.00    +0.000 C 
ATOM     12  O   UNL     1       5.668   1.544  11.534  0.00  0.00    +0.000 OA
ENDBRANCH   4  11
ENDBRANCH   1   8
BRANCH   1  13
ATOM     13  N   UNL     1       5.415   4.541  16.970  0.00  0.00    +0.000 NA
ATOM     14  H   UNL     1       5.611   3.811  17.694  0.00  0.00    +0.000 HD
BRANCH  13  15
ATOM     15  C   UNL     1       4.843   5.716  17.629  0.00  0.00    +0.000 C 
BRANCH  15  16
ATOM     16  C   UNL     1       4.923   5.562  19.152  0.00  0.00    +0.000 C 
BRANCH  16  17
ATOM     17  C   UNL     1       3.560   5.148  19.736  0.00  0.00    +0.000 C 
BRANCH  17  18
ATOM     18  N   UNL     1       3.086   3.827  19.252  0.00  0.00    +0.000 NA
ATOM     19  C   UNL     1       1.629   3.850  18.990  0.00  0.00    +0.000 C 
ATOM     20  C   UNL     1       0.824   3.836  20.307  0.00  0.00    +0.000 C 
ATOM     21  O   UNL     1       1.158   2.706  21.092  0.00  0.00    +0.000 OA
ATOM     22  C   UNL     1       2.536   2.738  21.417  0.00  0.00    +0.000 C 
ATOM     23  C   UNL     1       3.390   2.686  20.141  0.00  0.00    +0.000 C 
ENDBRANCH  17  18
ENDBRANCH  16  17
ENDBRANCH  15  16
ENDBRANCH  13  15
ENDBRANCH   1  13
TORSDOF 7
ENDMDL
MODEL 2
REMARK VINA RESULT:      -7.4      1.175      1.494
REMARK  Name = 
REMARK  8 active torsions:
REMARK  status: ('A' for Active; 'I' for Inactive)
REMARK    1  A    between atoms: C_1  and  C_2
REMARK    2  A    between atoms: C_2  and  C_4
REMARK    3  A    between atoms: C_8  and  S_9
REMARK    4  A    between atoms: S_9  and  N_12
REMARK    5  A    between atoms: N_12  and  C_13
REMARK    6  A    between atoms: C_13  and  C_14
REMARK    7  A    between atoms: C_14  and  C_15
REMARK    8  A    between atoms: C_15  and  N_16
REMARK                            x       y       z     vdW  Elec       q    Type
REMARK                         _______ _______ _______ _____ _____    ______ ____
ROOT
ATOM      1  S   UNL     1       6.943   5.235  16.136  0.00  0.00    +0.000 S 
ATOM      2  O   UNL     1       7.790   4.279  16.994  0.00  0.00    +0.000 OA
ATOM      3  O   UNL     1       7.533   6.604  16.506  0.00  0.00    +0.000 OA
ENDROOT
BRANCH   1   8
ATOM      4  C   UNL     1       6.233   3.732  12.402  0.00  0.00    +0.000 A 
ATOM      5  C   UNL     1       7.173   4.441  11.628  0.00  0.00    +0.000 A 
ATOM      6  C   UNL     1       8.028   5.374  12.225  0.00  0.00    +0.000 A 
ATOM      7  C   UNL     1       7.957   5.608  13.597  0.00  0.00    +0.000 A 
ATOM      8  C   UNL     1       7.030   4.912  14.380  0.00  0.00    +0.000 A 
ATOM      9  C   UNL     1       6.173   3.980  13.788  0.00  0.00    +0.000 A 
BRANCH   4  11
ATOM     10  C   UNL     1       3.957   3.140  11.260  0.00  0.00    +0.000 C 
ATOM     11  C   UNL     1       5.319   2.747  11.759  0.00  0.00    +0.000 C 
ATOM     12  O   UNL     1       5.674   1.584  11.631  0.00  0.00    +0.000 OA
ENDBRANCH   4  11
ENDBRANCH   1   8
BRANCH   1  13
ATOM     13  N   UNL     1       5.320   5.244  16.841  0.00  0.00    +0.000 NA
ATOM     14  H   UNL     1       4.640   5.234  16.046  0.00  0.00    +0.000 HD
BRANCH  13  15
ATOM     15  C   UNL     1       5.099   4.054  17.664  0.00  0.00    +0.000 C 
BRANCH  15  16
ATOM     16  C   UNL     1       4.097   3.115  16.982  0.00  0.00    +0.000 C 
BRANCH  16  17
ATOM     17  C   UNL     1       3.158   2.466  18.016  0.00  0.00    +0.000 C 
BRANCH  17  18
ATOM     18  N   UNL     1       1.750   2.923  17.905  0.00  0.00    +0.000 NA
ATOM     19  C   UNL     1       1.665   4.399  17.979  0.00  0.00    +0.000 C 
ATOM     20  C   UNL     1       1.881   4.900  19.423  0.00  0.00    +0.000 C 
ATOM     21  O   UNL     1       0.943   4.314  20.307  0.00  0.00    +0.000 OA
ATOM     22  C   UNL     1       1.092   2.906  20.301  0.00  0.00    +0.000 C 
ATOM     23  C   UNL     1       0.821   2.344  18.897  0.00  0.00    +0.000 C 
ENDBRANCH  17  18
ENDBRANCH  16  17
ENDBRANCH  15  16
ENDBRANCH  13  15
ENDBRANCH   1  13
TORSDOF 7
ENDMDL
MODEL 3
REMARK VINA RESULT:      -7.3      5.052      8.254
REMARK  Name = 
REMARK  8 active torsions:
REMARK  status: ('A' for Active; 'I' for Inactive)
REMARK    1  A    between atoms: C_1  and  C_2
REMARK    2  A    between atoms: C_2  and  C_4
REMARK    3  A    between atoms: C_8  and  S_9
REMARK    4  A    between atoms: S_9  and  N_12
REMARK    5  A    between atoms: N_12  and  C_13
REMARK    6  A    between atoms: C_13  and  C_14
REMARK    7  A    between atoms: C_14  and  C_15
REMARK    8  A    between atoms: C_15  and  N_16
REMARK                            x       y       z     vdW  Elec       q    Type
REMARK                         _______ _______ _______ _____ _____    ______ ____
ROOT
ATOM      1  S   UNL     1       7.151   5.367  17.357  0.00  0.00    +0.000 S 
ATOM      2  O   UNL     1       7.958   4.888  18.577  0.00  0.00    +0.000 OA
ATOM      3  O   UNL     1       7.709   4.478  16.236  0.00  0.00    +0.000 OA
ENDROOT
BRANCH   1   8
ATOM      4  C   UNL     1       3.217   6.128  18.163  0.00  0.00    +0.000 A 
ATOM      5  C   UNL     1       2.611   4.912  17.793  0.00  0.00    +0.000 A 
ATOM      6  C   UNL     1       3.383   3.854  17.301  0.00  0.00    +0.000 A 
ATOM      7  C   UNL     1       4.764   3.996  17.174  0.00  0.00    +0.000 A 
ATOM      8  C   UNL     1       5.381   5.197  17.538  0.00  0.00    +0.000 A 
ATOM      9  C   UNL     1       4.614   6.257  18.030  0.00  0.00    +0.000 A 
BRANCH   4  11
ATOM     10  C   UNL     1       1.959   8.390  17.792  0.00  0.00    +0.000 C 
ATOM     11  C   UNL     1       2.389   7.256  18.679  0.00  0.00    +0.000 C 
ATOM     12  O   UNL     1       2.047   7.269  19.852  0.00  0.00    +0.000 OA
ENDBRANCH   4  11
ENDBRANCH   1   8
BRANCH   1  13
ATOM     13  N   UNL     1       7.737   6.992  16.971  0.00  0.00    +0.000 NA
ATOM     14  H   UNL     1       6.951   7.496  16.498  0.00  0.00    +0.000 HD
BRANCH  13  15
ATOM     15  C   UNL     1       8.101   7.722  18.186  0.00  0.00    +0.000 C 
BRANCH  15  16
ATOM     16  C   UNL     1       8.297   9.210  17.873  0.00  0.00    +0.000 C 
BRANCH  16  17
ATOM     17  C   UNL     1       9.072   9.912  19.004  0.00  0.00    +0.000 C 
BRANCH  17  18
ATOM     18  N   UNL     1       9.171  11.382  18.829  0.00  0.00    +0.000 NA
ATOM     19  C   UNL     1      10.262  11.732  17.891  0.00  0.00    +0.000 C 
ATOM     20  C   UNL     1      11.645  11.556  18.553  0.00  0.00    +0.000 C 
ATOM     21  O   UNL     1      11.746  12.339  19.728  0.00  0.00    +0.000 OA
ATOM     22  C   UNL     1      10.757  11.938  20.659  0.00  0.00    +0.000 C 
ATOM     23  C   UNL     1       9.353  12.154  20.076  0.00  0.00    +0.000 C 
ENDBRANCH  17  18
ENDBRANCH  16  17
ENDBRANCH  15  16
ENDBRANCH  13  15
ENDBRANCH   1  13
TORSDOF 7
ENDMDL
MODEL 4
REMARK VINA RESULT:      -7.2      1.095      1.344
REMARK  Name = 
REMARK  8 active torsions:
REMARK  status: ('A' for Active; 'I' for Inactive)
REMARK    1  A    between atoms: C_1  and  C_2
REMARK    2  A    between atoms: C_2  and  C_4
REMARK    3  A    between atoms: C_8  and  S_9
REMARK    4  A    between atoms: S_9  and  N_12
REMARK    5  A    between atoms: N_12  and  C_13
REMARK    6  A    between atoms: C_13  and  C_14
REMARK    7  A    between atoms: C_14  and  C_15
REMARK    8  A    between atoms: C_15  and  N_16
REMARK                            x       y       z     vdW  Elec       q    Type
REMARK                         _______ _______ _______ _____ _____    ______ ____
ROOT
ATOM      1  S   UNL     1       6.562   4.789  16.333  0.00  0.00    +0.000 S 
ATOM      2  O   UNL     1       5.628   3.735  16.953  0.00  0.00    +0.000 OA
ATOM      3  O   UNL     1       7.868   4.552  17.106  0.00  0.00    +0.000 OA
ENDROOT
BRANCH   1   8
ATOM      4  C   UNL     1       6.143   3.622  12.439  0.00  0.00    +0.000 A 
ATOM      5  C   UNL     1       7.130   4.400  11.802  0.00  0.00    +0.000 A 
ATOM      6  C   UNL     1       7.929   5.278  12.541  0.00  0.00    +0.000 A 
ATOM      7  C   UNL     1       7.756   5.389  13.919  0.00  0.00    +0.000 A 
ATOM      8  C   UNL     1       6.781   4.624  14.567  0.00  0.00    +0.000 A 
ATOM      9  C   UNL     1       5.978   3.745  13.832  0.00  0.00    +0.000 A 
BRANCH   4  11
ATOM     10  C   UNL     1       3.935   3.107  11.135  0.00  0.00    +0.000 C 
ATOM     11  C   UNL     1       5.287   2.695  11.645  0.00  0.00    +0.000 C 
ATOM     12  O   UNL     1       5.685   1.566  11.398  0.00  0.00    +0.000 OA
ENDBRANCH   4  11
ENDBRANCH   1   8
BRANCH   1  13
ATOM     13  N   UNL     1       5.990   6.366  16.898  0.00  0.00    +0.000 NA
ATOM     14  H   UNL     1       6.490   7.093  16.335  0.00  0.00    +0.000 HD
BRANCH  13  15
ATOM     15  C   UNL     1       4.550   6.510  16.681  0.00  0.00    +0.000 C 
BRANCH  15  16
ATOM     16  C   UNL     1       3.813   6.570  18.024  0.00  0.00    +0.000 C 
BRANCH  16  17
ATOM     17  C   UNL     1       2.735   5.473  18.109  0.00  0.00    +0.000 C 
BRANCH  17  18
ATOM     18  N   UNL     1       3.098   4.356  19.017  0.00  0.00    +0.000 NA
ATOM     19  C   UNL     1       2.639   3.059  18.472  0.00  0.00    +0.000 C 
ATOM     20  C   UNL     1       1.112   2.897  18.623  0.00  0.00    +0.000 C 
ATOM     21  O   UNL     1       0.723   3.019  19.979  0.00  0.00    +0.000 OA
ATOM     22  C   UNL     1       1.083   4.297  20.470  0.00  0.00    +0.000 C 
ATOM     23  C   UNL     1       2.606   4.488  20.405  0.00  0.00    +0.000 C 
ENDBRANCH  17  18
ENDBRANCH  16  17
ENDBRANCH  15  16
ENDBRANCH  13  15
ENDBRANCH   1  13
TORSDOF 7
ENDMDL
MODEL 5
REMARK VINA RESULT:      -7.1      1.175      1.492
REMARK  Name = 
REMARK  8 active torsions:
REMARK  status: ('A' for Active; 'I' for Inactive)
REMARK    1  A    between atoms: C_1  and  C_2
REMARK    2  A    between atoms: C_2  and  C_4
REMARK    3  A    between atoms: C_8  and  S_9
REMARK    4  A    between atoms: S_9  and  N_12
REMARK    5  A    between atoms: N_12  and  C_13
REMARK    6  A    between atoms: C_13  and  C_14
REMARK    7  A    between atoms: C_14  and  C_15
REMARK    8  A    between atoms: C_15  and  N_16
REMARK                            x       y       z     vdW  Elec       q    Type
REMARK                         _______ _______ _______ _____ _____    ______ ____
ROOT
ATOM      1  S   UNL     1       6.338   5.417  16.033  0.00  0.00    +0.000 S 
ATOM      2  O   UNL     1       7.380   6.376  16.634  0.00  0.00    +0.000 OA
ATOM      3  O   UNL     1       5.043   6.235  16.157  0.00  0.00    +0.000 OA
ENDROOT
BRANCH   1   8
ATOM      4  C   UNL     1       6.110   3.638  12.360  0.00  0.00    +0.000 A 
ATOM      5  C   UNL     1       7.212   4.214  11.698  0.00  0.00    +0.000 A 
ATOM      6  C   UNL     1       8.032   5.138  12.352  0.00  0.00    +0.000 A 
ATOM      7  C   UNL     1       7.764   5.498  13.672  0.00  0.00    +0.000 A 
ATOM      8  C   UNL     1       6.675   4.935  14.344  0.00  0.00    +0.000 A 
ATOM      9  C   UNL     1       5.852   4.011  13.694  0.00  0.00    +0.000 A 
BRANCH   4  11
ATOM     10  C   UNL     1       3.872   3.041  11.148  0.00  0.00    +0.000 C 
ATOM     11  C   UNL     1       5.234   2.660  11.655  0.00  0.00    +0.000 C 
ATOM     12  O   UNL     1       5.623   1.515  11.479  0.00  0.00    +0.000 OA
ENDBRANCH   4  11
ENDBRANCH   1   8
BRANCH   1  13
ATOM     13  N   UNL     1       6.142   4.093  17.191  0.00  0.00    +0.000 NA
ATOM     14  H   UNL     1       6.852   3.364  16.946  0.00  0.00    +0.000 HD
BRANCH  13  15
ATOM     15  C   UNL     1       6.390   4.551  18.558  0.00  0.00    +0.000 C 
BRANCH  15  16
ATOM     16  C   UNL     1       5.148   4.323  19.429  0.00  0.00    +0.000 C 
BRANCH  16  17
ATOM     17  C   UNL     1       4.043   3.604  18.633  0.00  0.00    +0.000 C 
BRANCH  17  18
ATOM     18  N   UNL     1       2.892   4.478  18.297  0.00  0.00    +0.000 NA
ATOM     19  C   UNL     1       2.622   5.441  19.389  0.00  0.00    +0.000 C 
ATOM     20  C   UNL     1       1.950   4.748  20.593  0.00  0.00    +0.000 C 
ATOM     21  O   UNL     1       0.749   4.108  20.202  0.00  0.00    +0.000 OA
ATOM     22  C   UNL     1       1.026   3.123  19.223  0.00  0.00    +0.000 C 
ATOM     23  C   UNL     1       1.637   3.769  17.970  0.00  0.00    +0.000 C 
ENDBRANCH  17  18
ENDBRANCH  16  17
ENDBRANCH  15  16
ENDBRANCH  13  15
ENDBRANCH   1  13
TORSDOF 7
ENDMDL
MODEL 6
REMARK VINA RESULT:      -7.1      1.067      1.291
REMARK  Name = 
REMARK  8 active torsions:
REMARK  status: ('A' for Active; 'I' for Inactive)
REMARK    1  A    between atoms: C_1  and  C_2
REMARK    2  A    between atoms: C_2  and  C_4
REMARK    3  A    between atoms: C_8  and  S_9
REMARK    4  A    between atoms: S_9  and  N_12
REMARK    5  A    between atoms: N_12  and  C_13
REMARK    6  A    between atoms: C_13  and  C_14
REMARK    7  A    between atoms: C_14  and  C_15
REMARK    8  A    between atoms: C_15  and  N_16
REMARK                            x       y       z     vdW  Elec       q    Type
REMARK                         _______ _______ _______ _____ _____    ______ ____
ROOT
ATOM      1  S   UNL     1       6.509   5.267  16.088  0.00  0.00    +0.000 S 
ATOM      2  O   UNL     1       7.225   4.313  17.059  0.00  0.00    +0.000 OA
ATOM      3  O   UNL     1       7.111   6.627  16.474  0.00  0.00    +0.000 OA
ENDROOT
BRANCH   1   8
ATOM      4  C   UNL     1       6.139   3.650  12.352  0.00  0.00    +0.000 A 
ATOM      5  C   UNL     1       7.173   4.306  11.655  0.00  0.00    +0.000 A 
ATOM      6  C   UNL     1       7.990   5.236  12.306  0.00  0.00    +0.000 A 
ATOM      7  C   UNL     1       7.787   5.522  13.655  0.00  0.00    +0.000 A 
ATOM      8  C   UNL     1       6.765   4.879  14.361  0.00  0.00    +0.000 A 
ATOM      9  C   UNL     1       5.945   3.949  13.715  0.00  0.00    +0.000 A 
BRANCH   4  11
ATOM     10  C   UNL     1       3.902   3.042  11.143  0.00  0.00    +0.000 C 
ATOM     11  C   UNL     1       5.265   2.667  11.651  0.00  0.00    +0.000 C 
ATOM     12  O   UNL     1       5.657   1.522  11.482  0.00  0.00    +0.000 OA
ENDBRANCH   4  11
ENDBRANCH   1   8
BRANCH   1  13
ATOM     13  N   UNL     1       4.823   5.358  16.618  0.00  0.00    +0.000 NA
ATOM     14  H   UNL     1       4.243   5.541  15.766  0.00  0.00    +0.000 HD
BRANCH  13  15
ATOM     15  C   UNL     1       4.393   4.094  17.218  0.00  0.00    +0.000 C 
BRANCH  15  16
ATOM     16  C   UNL     1       2.877   3.923  17.065  0.00  0.00    +0.000 C 
BRANCH  16  17
ATOM     17  C   UNL     1       2.146   4.303  18.367  0.00  0.00    +0.000 C 
BRANCH  17  18
ATOM     18  N   UNL     1       1.567   3.138  19.081  0.00  0.00    +0.000 NA
ATOM     19  C   UNL     1       0.967   3.551  20.370  0.00  0.00    +0.000 C 
ATOM     20  C   UNL     1       2.055   3.858  21.421  0.00  0.00    +0.000 C 
ATOM     21  O   UNL     1       2.899   2.738  21.616  0.00  0.00    +0.000 OA
ATOM     22  C   UNL     1       3.542   2.404  20.399  0.00  0.00    +0.000 C 
ATOM     23  C   UNL     1       2.505   2.023  19.331  0.00  0.00    +0.000 C 
ENDBRANCH  17  18
ENDBRANCH  16  17
ENDBRANCH  15  16
ENDBRANCH  13  15
ENDBRANCH   1  13
TORSDOF 7
ENDMDL
MODEL 7
REMARK VINA RESULT:      -7.1      1.238      1.344
REMARK  Name = 
REMARK  8 active torsions:
REMARK  status: ('A' for Active; 'I' for Inactive)
REMARK    1  A    between atoms: C_1  and  C_2
REMARK    2  A    between atoms: C_2  and  C_4
REMARK    3  A    between atoms: C_8  and  S_9
REMARK    4  A    between atoms: S_9  and  N_12
REMARK    5  A    between atoms: N_12  and  C_13
REMARK    6  A    between atoms: C_13  and  C_14
REMARK    7  A    between atoms: C_14  and  C_15
REMARK    8  A    between atoms: C_15  and  N_16
REMARK                            x       y       z     vdW  Elec       q    Type
REMARK                         _______ _______ _______ _____ _____    ______ ____
ROOT
ATOM      1  S   UNL     1       7.129   5.160  16.192  0.00  0.00    +0.000 S 
ATOM      2  O   UNL     1       8.071   4.232  16.978  0.00  0.00    +0.000 OA
ATOM      3  O   UNL     1       7.659   6.550  16.571  0.00  0.00    +0.000 OA
ENDROOT
BRANCH   1   8
ATOM      4  C   UNL     1       6.301   3.730  12.453  0.00  0.00    +0.000 A 
ATOM      5  C   UNL     1       7.172   4.499  11.656  0.00  0.00    +0.000 A 
ATOM      6  C   UNL     1       8.014   5.451  12.239  0.00  0.00    +0.000 A 
ATOM      7  C   UNL     1       8.001   5.645  13.619  0.00  0.00    +0.000 A 
ATOM      8  C   UNL     1       7.143   4.889  14.424  0.00  0.00    +0.000 A 
ATOM      9  C   UNL     1       6.298   3.936  13.847  0.00  0.00    +0.000 A 
BRANCH   4  11
ATOM     10  C   UNL     1       5.902   1.381  11.375  0.00  0.00    +0.000 C 
ATOM     11  C   UNL     1       5.398   2.723  11.826  0.00  0.00    +0.000 C 
ATOM     12  O   UNL     1       4.215   2.986  11.669  0.00  0.00    +0.000 OA
ENDBRANCH   4  11
ENDBRANCH   1   8
BRANCH   1  13
ATOM     13  N   UNL     1       5.546   5.056  16.977  0.00  0.00    +0.000 NA
ATOM     14  H   UNL     1       5.238   4.058  16.916  0.00  0.00    +0.000 HD
BRANCH  13  15
ATOM     15  C   UNL     1       5.634   5.437  18.387  0.00  0.00    +0.000 C 
BRANCH  15  16
ATOM     16  C   UNL     1       4.232   5.523  19.003  0.00  0.00    +0.000 C 
BRANCH  16  17
ATOM     17  C   UNL     1       3.760   4.141  19.492  0.00  0.00    +0.000 C 
BRANCH  17  18
ATOM     18  N   UNL     1       3.471   3.190  18.390  0.00  0.00    +0.000 NA
ATOM     19  C   UNL     1       2.472   3.752  17.453  0.00  0.00    +0.000 C 
ATOM     20  C   UNL     1       1.055   3.723  18.064  0.00  0.00    +0.000 C 
ATOM     21  O   UNL     1       0.689   2.406  18.431  0.00  0.00    +0.000 OA
ATOM     22  C   UNL     1       1.596   1.906  19.397  0.00  0.00    +0.000 C 
ATOM     23  C   UNL     1       3.018   1.849  18.818  0.00  0.00    +0.000 C 
ENDBRANCH  17  18
ENDBRANCH  16  17
ENDBRANCH  15  16
ENDBRANCH  13  15
ENDBRANCH   1  13
TORSDOF 7
ENDMDL
MODEL 8
REMARK VINA RESULT:      -7.1      5.039      8.388
REMARK  Name = 
REMARK  8 active torsions:
REMARK  status: ('A' for Active; 'I' for Inactive)
REMARK    1  A    between atoms: C_1  and  C_2
REMARK    2  A    between atoms: C_2  and  C_4
REMARK    3  A    between atoms: C_8  and  S_9
REMARK    4  A    between atoms: S_9  and  N_12
REMARK    5  A    between atoms: N_12  and  C_13
REMARK    6  A    between atoms: C_13  and  C_14
REMARK    7  A    between atoms: C_14  and  C_15
REMARK    8  A    between atoms: C_15  and  N_16
REMARK                            x       y       z     vdW  Elec       q    Type
REMARK                         _______ _______ _______ _____ _____    ______ ____
ROOT
ATOM      1  S   UNL     1       7.150   5.777  17.524  0.00  0.00    +0.000 S 
ATOM      2  O   UNL     1       7.989   4.489  17.565  0.00  0.00    +0.000 OA
ATOM      3  O   UNL     1       7.364   6.253  16.079  0.00  0.00    +0.000 OA
ENDROOT
BRANCH   1   8
ATOM      4  C   UNL     1       3.634   4.191  18.875  0.00  0.00    +0.000 A 
ATOM      5  C   UNL     1       2.713   5.196  18.517  0.00  0.00    +0.000 A 
ATOM      6  C   UNL     1       3.144   6.355  17.864  0.00  0.00    +0.000 A 
ATOM      7  C   UNL     1       4.494   6.525  17.560  0.00  0.00    +0.000 A 
ATOM      8  C   UNL     1       5.421   5.537  17.909  0.00  0.00    +0.000 A 
ATOM      9  C   UNL     1       4.995   4.377  18.562  0.00  0.00    +0.000 A 
BRANCH   4  11
ATOM     10  C   UNL     1       1.780   2.423  19.398  0.00  0.00    +0.000 C 
ATOM     11  C   UNL     1       3.170   2.961  19.579  0.00  0.00    +0.000 C 
ATOM     12  O   UNL     1       3.934   2.368  20.327  0.00  0.00    +0.000 OA
ENDBRANCH   4  11
ENDBRANCH   1   8
BRANCH   1  13
ATOM     13  N   UNL     1       8.005   6.968  18.516  0.00  0.00    +0.000 NA
ATOM     14  H   UNL     1       8.987   6.625  18.628  0.00  0.00    +0.000 HD
BRANCH  13  15
ATOM     15  C   UNL     1       8.035   8.275  17.858  0.00  0.00    +0.000 C 
BRANCH  15  16
ATOM     16  C   UNL     1       8.814   9.282  18.712  0.00  0.00    +0.000 C 
BRANCH  16  17
ATOM     17  C   UNL     1       8.830  10.672  18.047  0.00  0.00    +0.000 C 
BRANCH  17  18
ATOM     18  N   UNL     1       9.276  11.757  18.955  0.00  0.00    +0.000 NA
ATOM     19  C   UNL     1       9.349  13.050  18.240  0.00  0.00    +0.000 C 
ATOM     20  C   UNL     1      10.579  13.106  17.309  0.00  0.00    +0.000 C 
ATOM     21  O   UNL     1      11.773  12.886  18.037  0.00  0.00    +0.000 OA
ATOM     22  C   UNL     1      11.737  11.608  18.644  0.00  0.00    +0.000 C 
ATOM     23  C   UNL     1      10.566  11.518  19.635  0.00  0.00    +0.000 C 
ENDBRANCH  17  18
ENDBRANCH  16  17
ENDBRANCH  15  16
ENDBRANCH  13  15
ENDBRANCH   1  13
TORSDOF 7
ENDMDL
MODEL 9
REMARK VINA RESULT:      -7.0      1.321      1.704
REMARK  Name = 
REMARK  8 active torsions:
REMARK  status: ('A' for Active; 'I' for Inactive)
REMARK    1  A    between atoms: C_1  and  C_2
REMARK    2  A    between atoms: C_2  and  C_4
REMARK    3  A    between atoms: C_8  and  S_9
REMARK    4  A    between atoms: S_9  and  N_12
REMARK    5  A    between atoms: N_12  and  C_13
REMARK    6  A    between atoms: C_13  and  C_14
REMARK    7  A    between atoms: C_14  and  C_15
REMARK    8  A    between atoms: C_15  and  N_16
REMARK                            x       y       z     vdW  Elec       q    Type
REMARK                         _______ _______ _______ _____ _____    ______ ____
ROOT
ATOM      1  S   UNL     1       6.271   5.234  16.118  0.00  0.00    +0.000 S 
ATOM      2  O   UNL     1       6.125   4.003  17.029  0.00  0.00    +0.000 OA
ATOM      3  O   UNL     1       7.425   5.994  16.790  0.00  0.00    +0.000 OA
ENDROOT
BRANCH   1   8
ATOM      4  C   UNL     1       6.097   3.625  12.365  0.00  0.00    +0.000 A 
ATOM      5  C   UNL     1       7.184   4.262  11.733  0.00  0.00    +0.000 A 
ATOM      6  C   UNL     1       7.976   5.177  12.432  0.00  0.00    +0.000 A 
ATOM      7  C   UNL     1       7.698   5.466  13.767  0.00  0.00    +0.000 A 
ATOM      8  C   UNL     1       6.624   4.842  14.409  0.00  0.00    +0.000 A 
ATOM      9  C   UNL     1       5.827   3.927  13.714  0.00  0.00    +0.000 A 
BRANCH   4  11
ATOM     10  C   UNL     1       3.886   3.029  11.103  0.00  0.00    +0.000 C 
ATOM     11  C   UNL     1       5.250   2.657  11.611  0.00  0.00    +0.000 C 
ATOM     12  O   UNL     1       5.665   1.528  11.397  0.00  0.00    +0.000 OA
ENDBRANCH   4  11
ENDBRANCH   1   8
BRANCH   1  13
ATOM     13  N   UNL     1       4.847   6.245  16.401  0.00  0.00    +0.000 NA
ATOM     14  H   UNL     1       4.012   5.691  16.098  0.00  0.00    +0.000 HD
BRANCH  13  15
ATOM     15  C   UNL     1       4.706   6.568  17.822  0.00  0.00    +0.000 C 
BRANCH  15  16
ATOM     16  C   UNL     1       3.273   6.293  18.290  0.00  0.00    +0.000 C 
BRANCH  16  17
ATOM     17  C   UNL     1       2.770   4.938  17.758  0.00  0.00    +0.000 C 
BRANCH  17  18
ATOM     18  N   UNL     1       2.160   4.081  18.805  0.00  0.00    +0.000 NA
ATOM     19  C   UNL     1       3.059   3.952  19.974  0.00  0.00    +0.000 C 
ATOM     20  C   UNL     1       4.243   3.010  19.667  0.00  0.00    +0.000 C 
ATOM     21  O   UNL     1       3.782   1.733  19.265  0.00  0.00    +0.000 OA
ATOM     22  C   UNL     1       2.997   1.853  18.092  0.00  0.00    +0.000 C 
ATOM     23  C   UNL     1       1.764   2.729  18.359  0.00  0.00    +0.000 C 
ENDBRANCH  17  18
ENDBRANCH  16  17
ENDBRANCH  15  16
ENDBRANCH  13  15
ENDBRANCH   1  13
TORSDOF 7
ENDMDL
