MODEL 1
REMARK VINA RESULT:      -9.4      0.000      0.000
REMARK  Name = 
REMARK  8 active torsions:
REMARK  status: ('A' for Active; 'I' for Inactive)
REMARK    1  A    between atoms: C_1  and  O_2
REMARK    2  A    between atoms: O_2  and  C_3
REMARK    3  A    between atoms: C_6  and  N_7
REMARK    4  A    between atoms: N_9  and  N_10
REMARK    5  A    between atoms: N_13  and  C_14
REMARK    6  A    between atoms: C_18  and  C_19
REMARK    7  A    between atoms: C_31  and  O_32
REMARK    8  A    between atoms: O_32  and  C_33
REMARK                            x       y       z     vdW  Elec       q    Type
REMARK                         _______ _______ _______ _____ _____    ______ ____
ROOT
ATOM      1  N   UNL     1       2.565   6.038  18.941  0.00  0.00    +0.000 N 
ATOM      2  C   UNL     1       3.628   5.608  18.166  0.00  0.00    +0.000 A 
ATOM      3  N   UNL     1       4.816   6.255  18.423  0.00  0.00    +0.000 N 
ATOM      4  N   UNL     1       3.529   4.533  17.445  0.00  0.00    +0.000 NA
ATOM      5  C   UNL     1       3.031   3.458  18.202  0.00  0.00    +0.000 A 
ATOM      6  C   UNL     1       3.504   2.199  17.853  0.00  0.00    +0.000 A 
ATOM      7  C   UNL     1       3.780   1.278  18.854  0.00  0.00    +0.000 A 
ATOM      8  C   UNL     1       3.546   1.614  20.192  0.00  0.00    +0.000 A 
ATOM      9  C   UNL     1       2.890   2.806  20.520  0.00  0.00    +0.000 A 
ATOM     10  C   UNL     1       2.576   3.700  19.504  0.00  0.00    +0.000 A 
ATOM     11  C   UNL     1       2.032   5.062  19.764  0.00  0.00    +0.000 A 
ATOM     12  O   UNL     1       1.224   5.209  20.671  0.00  0.00    +0.000 OA
ATOM     13  H   UNL     1       4.968   6.336  19.439  0.00  0.00    +0.000 HD
ENDROOT
BRANCH   1  17
ATOM     14  C   UNL     1       1.443  10.204  18.917  0.00  0.00    +0.000 A 
ATOM     15  C   UNL     1       1.959   9.602  17.756  0.00  0.00    +0.000 A 
ATOM     16  C   UNL     1       2.315   8.232  17.712  0.00  0.00    +0.000 A 
ATOM     17  C   UNL     1       2.157   7.427  18.842  0.00  0.00    +0.000 A 
ATOM     18  C   UNL     1       1.656   8.068  19.993  0.00  0.00    +0.000 A 
ATOM     19  C   UNL     1       1.308   9.419  20.062  0.00  0.00    +0.000 A 
BRANCH  14  21
ATOM     20  C   UNL     1       2.020  12.480  18.505  0.00  0.00    +0.000 C 
ATOM     21  O   UNL     1       1.100  11.524  19.015  0.00  0.00    +0.000 OA
ENDBRANCH  14  21
BRANCH  19  22
ATOM     22  O   UNL     1       0.818   9.755  21.288  0.00  0.00    +0.000 OA
ATOM     23  C   UNL     1      -0.184   8.935  21.870  0.00  0.00    +0.000 C 
ENDBRANCH  19  22
ENDBRANCH   1  17
BRANCH   3  24
ATOM     24  N   UNL     1       5.963   5.698  17.829  0.00  0.00    +0.000 N 
ATOM     25  C   UNL     1       6.068   5.959  16.478  0.00  0.00    +0.000 C 
ATOM     26  O   UNL     1       5.534   6.946  15.981  0.00  0.00    +0.000 OA
ATOM     27  N   UNL     1       6.766   4.969  15.830  0.00  0.00    +0.000 N 
ATOM     28  H   UNL     1       6.169   4.771  18.180  0.00  0.00    +0.000 HD
ATOM     29  H   UNL     1       7.248   4.309  16.421  0.00  0.00    +0.000 HD
BRANCH  27  30
ATOM     30  C   UNL     1       6.916   4.803  14.444  0.00  0.00    +0.000 A 
ATOM     31  C   UNL     1       7.801   5.546  13.659  0.00  0.00    +0.000 A 
ATOM     32  C   UNL     1       7.889   5.310  12.287  0.00  0.00    +0.000 A 
ATOM     33  C   UNL     1       7.100   4.333  11.691  0.00  0.00    +0.000 A 
ATOM     34  C   UNL     1       6.204   3.584  12.459  0.00  0.00    +0.000 A 
ATOM     35  C   UNL     1       5.340   2.529  11.837  0.00  0.00    +0.000 C 
ATOM     36  C   UNL     1       6.107   3.838  13.833  0.00  0.00    +0.000 A 
ENDBRANCH  27  30
ENDBRANCH   3  24
TORSDOF 5
ENDMDL
MODEL 2
REMARK VINA RESULT:      -8.9      2.102      7.477
REMARK  Name = 
REMARK  8 active torsions:
REMARK  status: ('A' for Active; 'I' for Inactive)
REMARK    1  A    between atoms: C_1  and  O_2
REMARK    2  A    between atoms: O_2  and  C_3
REMARK    3  A    between atoms: C_6  and  N_7
REMARK    4  A    between atoms: N_9  and  N_10
REMARK    5  A    between atoms: N_13  and  C_14
REMARK    6  A    between atoms: C_18  and  C_19
REMARK    7  A    between atoms: C_31  and  O_32
REMARK    8  A    between atoms: O_32  and  C_33
REMARK                            x       y       z     vdW  Elec       q    Type
REMARK                         _______ _______ _______ _____ _____    ______ ____
ROOT
ATOM      1  N   UNL     1       4.019   4.288  17.708  0.00  0.00    +0.000 N 
ATOM      2  C   UNL     1       3.726   5.248  18.661  0.00  0.00    +0.000 A 
ATOM      3  N   UNL     1       3.159   6.395  18.155  0.00  0.00    +0.000 N 
ATOM      4  N   UNL     1       3.775   4.960  19.927  0.00  0.00    +0.000 NA
ATOM      5  C   UNL     1       3.063   3.781  20.208  0.00  0.00    +0.000 A 
ATOM      6  C   UNL     1       2.446   3.728  21.451  0.00  0.00    +0.000 A 
ATOM      7  C   UNL     1       1.190   3.146  21.559  0.00  0.00    +0.000 A 
ATOM      8  C   UNL     1       0.581   2.592  20.428  0.00  0.00    +0.000 A 
ATOM      9  C   UNL     1       1.287   2.477  19.226  0.00  0.00    +0.000 A 
ATOM     10  C   UNL     1       2.562   3.022  19.143  0.00  0.00    +0.000 A 
ATOM     11  C   UNL     1       3.329   3.100  17.868  0.00  0.00    +0.000 A 
ATOM     12  O   UNL     1       3.256   2.166  17.080  0.00  0.00    +0.000 OA
ATOM     13  H   UNL     1       2.425   6.162  17.470  0.00  0.00    +0.000 HD
ENDROOT
BRANCH   1  17
ATOM     14  C   UNL     1       7.023   5.305  14.782  0.00  0.00    +0.000 A 
ATOM     15  C   UNL     1       5.986   4.414  14.453  0.00  0.00    +0.000 A 
ATOM     16  C   UNL     1       4.965   4.074  15.374  0.00  0.00    +0.000 A 
ATOM     17  C   UNL     1       4.960   4.627  16.656  0.00  0.00    +0.000 A 
ATOM     18  C   UNL     1       6.025   5.500  16.958  0.00  0.00    +0.000 A 
ATOM     19  C   UNL     1       7.047   5.842  16.069  0.00  0.00    +0.000 A 
BRANCH  14  21
ATOM     20  C   UNL     1       7.898   5.308  12.565  0.00  0.00    +0.000 C 
ATOM     21  O   UNL     1       8.039   5.653  13.936  0.00  0.00    +0.000 OA
ENDBRANCH  14  21
BRANCH  19  22
ATOM     22  O   UNL     1       7.919   6.734  16.618  0.00  0.00    +0.000 OA
ATOM     23  C   UNL     1       7.418   7.720  17.506  0.00  0.00    +0.000 C 
ENDBRANCH  19  22
ENDBRANCH   1  17
BRANCH   3  24
ATOM     24  N   UNL     1       2.636   7.295  19.101  0.00  0.00    +0.000 N 
ATOM     25  C   UNL     1       1.793   8.243  18.556  0.00  0.00    +0.000 C 
ATOM     26  O   UNL     1       1.184   8.023  17.513  0.00  0.00    +0.000 OA
ATOM     27  N   UNL     1       1.799   9.401  19.294  0.00  0.00    +0.000 N 
ATOM     28  H   UNL     1       3.321   7.570  19.794  0.00  0.00    +0.000 HD
ATOM     29  H   UNL     1       2.251   9.350  20.194  0.00  0.00    +0.000 HD
BRANCH  27  30
ATOM     30  C   UNL     1       1.213  10.630  18.951  0.00  0.00    +0.000 A 
ATOM     31  C   UNL     1       1.938  11.773  18.606  0.00  0.00    +0.000 A 
ATOM     32  C   UNL     1       1.273  12.953  18.273  0.00  0.00    +0.000 A 
ATOM     33  C   UNL     1      -0.116  13.000  18.279  0.00  0.00    +0.000 A 
ATOM     34  C   UNL     1      -0.859  11.868  18.628  0.00  0.00    +0.000 A 
ATOM     35  C   UNL     1      -2.358  11.898  18.646  0.00  0.00    +0.000 C 
ATOM     36  C   UNL     1      -0.185  10.692  18.978  0.00  0.00    +0.000 A 
ENDBRANCH  27  30
ENDBRANCH   3  24
TORSDOF 5
ENDMDL
MODEL 3
REMARK VINA RESULT:      -8.8      2.021      7.473
REMARK  Name = 
REMARK  8 active torsions:
REMARK  status: ('A' for Active; 'I' for Inactive)
REMARK    1  A    between atoms: C_1  and  O_2
REMARK    2  A    between atoms: O_2  and  C_3
REMARK    3  A    between atoms: C_6  and  N_7
REMARK    4  A    between atoms: N_9  and  N_10
REMARK    5  A    between atoms: N_13  and  C_14
REMARK    6  A    between atoms: C_18  and  C_19
REMARK    7  A    between atoms: C_31  and  O_32
REMARK    8  A    between atoms: O_32  and  C_33
REMARK                            x       y       z     vdW  Elec       q    Type
REMARK                         _______ _______ _______ _____ _____    ______ ____
ROOT
ATOM      1  N   UNL     1       4.033   4.281  17.703  0.00  0.00    +0.000 N 
ATOM      2  C   UNL     1       3.745   5.243  18.654  0.00  0.00    +0.000 A 
ATOM      3  N   UNL     1       3.176   6.389  18.148  0.00  0.00    +0.000 N 
ATOM      4  N   UNL     1       3.801   4.959  19.920  0.00  0.00    +0.000 NA
ATOM      5  C   UNL     1       3.090   3.782  20.209  0.00  0.00    +0.000 A 
ATOM      6  C   UNL     1       2.479   3.732  21.456  0.00  0.00    +0.000 A 
ATOM      7  C   UNL     1       1.223   3.151  21.572  0.00  0.00    +0.000 A 
ATOM      8  C   UNL     1       0.607   2.595  20.445  0.00  0.00    +0.000 A 
ATOM      9  C   UNL     1       1.308   2.476  19.240  0.00  0.00    +0.000 A 
ATOM     10  C   UNL     1       2.583   3.020  19.149  0.00  0.00    +0.000 A 
ATOM     11  C   UNL     1       3.343   3.094  17.869  0.00  0.00    +0.000 A 
ATOM     12  O   UNL     1       3.265   2.158  17.085  0.00  0.00    +0.000 OA
ATOM     13  H   UNL     1       2.439   6.154  17.468  0.00  0.00    +0.000 HD
ENDROOT
BRANCH   1  17
ATOM     14  C   UNL     1       7.020   5.300  14.759  0.00  0.00    +0.000 A 
ATOM     15  C   UNL     1       6.014   4.365  14.455  0.00  0.00    +0.000 A 
ATOM     16  C   UNL     1       5.000   4.021  15.382  0.00  0.00    +0.000 A 
ATOM     17  C   UNL     1       4.969   4.616  16.645  0.00  0.00    +0.000 A 
ATOM     18  C   UNL     1       6.003   5.532  16.923  0.00  0.00    +0.000 A 
ATOM     19  C   UNL     1       7.019   5.879  16.029  0.00  0.00    +0.000 A 
BRANCH  14  21
ATOM     20  C   UNL     1       7.861   5.348  12.531  0.00  0.00    +0.000 C 
ATOM     21  O   UNL     1       8.029   5.653  13.908  0.00  0.00    +0.000 OA
ENDBRANCH  14  21
BRANCH  19  22
ATOM     22  O   UNL     1       7.857   6.816  16.552  0.00  0.00    +0.000 OA
ATOM     23  C   UNL     1       7.545   7.382  17.815  0.00  0.00    +0.000 C 
ENDBRANCH  19  22
ENDBRANCH   1  17
BRANCH   3  24
ATOM     24  N   UNL     1       2.659   7.292  19.095  0.00  0.00    +0.000 N 
ATOM     25  C   UNL     1       1.811   8.237  18.552  0.00  0.00    +0.000 C 
ATOM     26  O   UNL     1       1.196   8.012  17.513  0.00  0.00    +0.000 OA
ATOM     27  N   UNL     1       1.821   9.399  19.284  0.00  0.00    +0.000 N 
ATOM     28  H   UNL     1       3.349   7.571  19.781  0.00  0.00    +0.000 HD
ATOM     29  H   UNL     1       2.280   9.351  20.181  0.00  0.00    +0.000 HD
BRANCH  27  30
ATOM     30  C   UNL     1       1.232  10.625  18.941  0.00  0.00    +0.000 A 
ATOM     31  C   UNL     1      -0.147  10.830  18.845  0.00  0.00    +0.000 A 
ATOM     32  C   UNL     1      -0.648  12.085  18.502  0.00  0.00    +0.000 A 
ATOM     33  C   UNL     1       0.220  13.143  18.256  0.00  0.00    +0.000 A 
ATOM     34  C   UNL     1       1.603  12.956  18.340  0.00  0.00    +0.000 A 
ATOM     35  C   UNL     1       2.557  14.081  18.074  0.00  0.00    +0.000 C 
ATOM     36  C   UNL     1       2.099  11.688  18.667  0.00  0.00    +0.000 A 
ENDBRANCH  27  30
ENDBRANCH   3  24
TORSDOF 5
ENDMDL
MODEL 4
REMARK VINA RESULT:      -8.6      0.933      1.042
REMARK  Name = 
REMARK  8 active torsions:
REMARK  status: ('A' for Active; 'I' for Inactive)
REMARK    1  A    between atoms: C_1  and  O_2
REMARK    2  A    between atoms: O_2  and  C_3
REMARK    3  A    between atoms: C_6  and  N_7
REMARK    4  A    between atoms: N_9  and  N_10
REMARK    5  A    between atoms: N_13  and  C_14
REMARK    6  A    between atoms: C_18  and  C_19
REMARK    7  A    between atoms: C_31  and  O_32
REMARK    8  A    between atoms: O_32  and  C_33
REMARK                            x       y       z     vdW  Elec       q    Type
REMARK                         _______ _______ _______ _____ _____    ______ ____
ROOT
ATOM      1  N   UNL     1       2.211   6.646  19.284  0.00  0.00    +0.000 N 
ATOM      2  C   UNL     1       3.079   5.856  18.552  0.00  0.00    +0.000 A 
ATOM      3  N   UNL     1       4.384   6.292  18.555  0.00  0.00    +0.000 N 
ATOM      4  N   UNL     1       2.704   4.691  18.115  0.00  0.00    +0.000 NA
ATOM      5  C   UNL     1       2.121   3.928  19.142  0.00  0.00    +0.000 A 
ATOM      6  C   UNL     1       2.319   2.555  19.064  0.00  0.00    +0.000 A 
ATOM      7  C   UNL     1       2.549   1.837  20.230  0.00  0.00    +0.000 A 
ATOM      8  C   UNL     1       2.543   2.496  21.465  0.00  0.00    +0.000 A 
ATOM      9  C   UNL     1       2.152   3.836  21.552  0.00  0.00    +0.000 A 
ATOM     10  C   UNL     1       1.879   4.532  20.381  0.00  0.00    +0.000 A 
ATOM     11  C   UNL     1       1.619   5.999  20.353  0.00  0.00    +0.000 A 
ATOM     12  O   UNL     1       0.966   6.498  21.260  0.00  0.00    +0.000 OA
ATOM     13  H   UNL     1       4.671   6.561  19.508  0.00  0.00    +0.000 HD
ENDROOT
BRANCH   1  17
ATOM     14  C   UNL     1       1.715  10.840  18.395  0.00  0.00    +0.000 A 
ATOM     15  C   UNL     1       2.510  10.029  17.567  0.00  0.00    +0.000 A 
ATOM     16  C   UNL     1       2.679   8.643  17.806  0.00  0.00    +0.000 A 
ATOM     17  C   UNL     1       2.045   8.034  18.891  0.00  0.00    +0.000 A 
ATOM     18  C   UNL     1       1.272   8.880  19.711  0.00  0.00    +0.000 A 
ATOM     19  C   UNL     1       1.100  10.250  19.500  0.00  0.00    +0.000 A 
BRANCH  14  21
ATOM     20  C   UNL     1       2.407  13.060  18.917  0.00  0.00    +0.000 C 
ATOM     21  O   UNL     1       1.534  12.184  18.217  0.00  0.00    +0.000 OA
ENDBRANCH  14  21
BRANCH  19  22
ATOM     22  O   UNL     1       0.272  10.807  20.428  0.00  0.00    +0.000 OA
ATOM     23  C   UNL     1       0.397  10.404  21.783  0.00  0.00    +0.000 C 
ENDBRANCH  19  22
ENDBRANCH   1  17
BRANCH   3  24
ATOM     24  N   UNL     1       5.334   5.402  18.022  0.00  0.00    +0.000 N 
ATOM     25  C   UNL     1       5.770   5.750  16.759  0.00  0.00    +0.000 C 
ATOM     26  O   UNL     1       5.735   6.917  16.377  0.00  0.00    +0.000 OA
ATOM     27  N   UNL     1       6.162   4.646  16.042  0.00  0.00    +0.000 N 
ATOM     28  H   UNL     1       5.119   4.436  18.230  0.00  0.00    +0.000 HD
ATOM     29  H   UNL     1       6.252   3.789  16.567  0.00  0.00    +0.000 HD
BRANCH  27  30
ATOM     30  C   UNL     1       6.489   4.590  14.678  0.00  0.00    +0.000 A 
ATOM     31  C   UNL     1       7.541   5.300  14.097  0.00  0.00    +0.000 A 
ATOM     32  C   UNL     1       7.799   5.181  12.731  0.00  0.00    +0.000 A 
ATOM     33  C   UNL     1       7.012   4.353  11.940  0.00  0.00    +0.000 A 
ATOM     34  C   UNL     1       5.949   3.639  12.502  0.00  0.00    +0.000 A 
ATOM     35  C   UNL     1       5.085   2.744  11.666  0.00  0.00    +0.000 C 
ATOM     36  C   UNL     1       5.686   3.777  13.870  0.00  0.00    +0.000 A 
ENDBRANCH  27  30
ENDBRANCH   3  24
TORSDOF 5
ENDMDL
MODEL 5
REMARK VINA RESULT:      -8.6      2.042      7.769
REMARK  Name = 
REMARK  8 active torsions:
REMARK  status: ('A' for Active; 'I' for Inactive)
REMARK    1  A    between atoms: C_1  and  O_2
REMARK    2  A    between atoms: O_2  and  C_3
REMARK    3  A    between atoms: C_6  and  N_7
REMARK    4  A    between atoms: N_9  and  N_10
REMARK    5  A    between atoms: N_13  and  C_14
REMARK    6  A    between atoms: C_18  and  C_19
REMARK    7  A    between atoms: C_31  and  O_32
REMARK    8  A    between atoms: O_32  and  C_33
REMARK                            x       y       z     vdW  Elec       q    Type
REMARK                         _______ _______ _______ _____ _____    ______ ____
ROOT
ATOM      1  N   UNL     1       3.983   4.006  17.634  0.00  0.00    +0.000 N 
ATOM      2  C   UNL     1       4.054   4.696  18.831  0.00  0.00    +0.000 A 
ATOM      3  N   UNL     1       3.815   6.047  18.722  0.00  0.00    +0.000 N 
ATOM      4  N   UNL     1       4.107   4.057  19.960  0.00  0.00    +0.000 NA
ATOM      5  C   UNL     1       3.102   3.079  20.038  0.00  0.00    +0.000 A 
ATOM      6  C   UNL     1       2.586   2.837  21.306  0.00  0.00    +0.000 A 
ATOM      7  C   UNL     1       1.226   2.600  21.450  0.00  0.00    +0.000 A 
ATOM      8  C   UNL     1       0.402   2.573  20.320  0.00  0.00    +0.000 A 
ATOM      9  C   UNL     1       0.955   2.623  19.036  0.00  0.00    +0.000 A 
ATOM     10  C   UNL     1       2.325   2.814  18.904  0.00  0.00    +0.000 A 
ATOM     11  C   UNL     1       2.987   3.047  17.590  0.00  0.00    +0.000 A 
ATOM     12  O   UNL     1       2.586   2.430  16.612  0.00  0.00    +0.000 OA
ATOM     13  H   UNL     1       2.998   6.220  18.118  0.00  0.00    +0.000 HD
ENDROOT
BRANCH   1  17
ATOM     14  C   UNL     1       6.929   5.107  14.679  0.00  0.00    +0.000 A 
ATOM     15  C   UNL     1       5.921   4.179  14.364  0.00  0.00    +0.000 A 
ATOM     16  C   UNL     1       4.919   3.809  15.294  0.00  0.00    +0.000 A 
ATOM     17  C   UNL     1       4.904   4.370  16.573  0.00  0.00    +0.000 A 
ATOM     18  C   UNL     1       5.940   5.281  16.861  0.00  0.00    +0.000 A 
ATOM     19  C   UNL     1       6.943   5.653  15.963  0.00  0.00    +0.000 A 
BRANCH  14  21
ATOM     20  C   UNL     1       7.750   5.196  12.444  0.00  0.00    +0.000 C 
ATOM     21  O   UNL     1       7.927   5.484  13.823  0.00  0.00    +0.000 OA
ENDBRANCH  14  21
BRANCH  19  22
ATOM     22  O   UNL     1       7.788   6.578  16.499  0.00  0.00    +0.000 OA
ATOM     23  C   UNL     1       7.441   7.183  17.735  0.00  0.00    +0.000 C 
ENDBRANCH  19  22
ENDBRANCH   1  17
BRANCH   3  24
ATOM     24  N   UNL     1       3.649   6.744  19.932  0.00  0.00    +0.000 N 
ATOM     25  C   UNL     1       2.344   7.118  20.180  0.00  0.00    +0.000 C 
ATOM     26  O   UNL     1       1.404   6.495  19.694  0.00  0.00    +0.000 OA
ATOM     27  N   UNL     1       2.286   8.251  20.955  0.00  0.00    +0.000 N 
ATOM     28  H   UNL     1       4.401   7.398  20.108  0.00  0.00    +0.000 HD
ATOM     29  H   UNL     1       3.155   8.543  21.376  0.00  0.00    +0.000 HD
BRANCH  27  30
ATOM     30  C   UNL     1       1.149   9.018  21.256  0.00  0.00    +0.000 A 
ATOM     31  C   UNL     1       0.601   9.135  22.535  0.00  0.00    +0.000 A 
ATOM     32  C   UNL     1      -0.529   9.924  22.746  0.00  0.00    +0.000 A 
ATOM     33  C   UNL     1      -1.117  10.602  21.685  0.00  0.00    +0.000 A 
ATOM     34  C   UNL     1      -0.587  10.493  20.396  0.00  0.00    +0.000 A 
ATOM     35  C   UNL     1      -1.208  11.212  19.237  0.00  0.00    +0.000 C 
ATOM     36  C   UNL     1       0.537   9.684  20.189  0.00  0.00    +0.000 A 
ENDBRANCH  27  30
ENDBRANCH   3  24
TORSDOF 5
ENDMDL
MODEL 6
REMARK VINA RESULT:      -8.4      3.917      8.668
REMARK  Name = 
REMARK  8 active torsions:
REMARK  status: ('A' for Active; 'I' for Inactive)
REMARK    1  A    between atoms: C_1  and  O_2
REMARK    2  A    between atoms: O_2  and  C_3
REMARK    3  A    between atoms: C_6  and  N_7
REMARK    4  A    between atoms: N_9  and  N_10
REMARK    5  A    between atoms: N_13  and  C_14
REMARK    6  A    between atoms: C_18  and  C_19
REMARK    7  A    between atoms: C_31  and  O_32
REMARK    8  A    between atoms: O_32  and  C_33
REMARK                            x       y       z     vdW  Elec       q    Type
REMARK                         _______ _______ _______ _____ _____    ______ ____
ROOT
ATOM      1  N   UNL     1       0.414  13.892  20.212  0.00  0.00    +0.000 N 
ATOM      2  C   UNL     1       1.342  13.023  19.668  0.00  0.00    +0.000 A 
ATOM      3  N   UNL     1       0.811  12.098  18.798  0.00  0.00    +0.000 N 
ATOM      4  N   UNL     1       2.615  13.243  19.804  0.00  0.00    +0.000 NA
ATOM      5  C   UNL     1       2.942  14.564  19.454  0.00  0.00    +0.000 A 
ATOM      6  C   UNL     1       4.196  14.748  18.884  0.00  0.00    +0.000 A 
ATOM      7  C   UNL     1       4.341  15.655  17.843  0.00  0.00    +0.000 A 
ATOM      8  C   UNL     1       3.236  16.394  17.406  0.00  0.00    +0.000 A 
ATOM      9  C   UNL     1       2.027  16.346  18.109  0.00  0.00    +0.000 A 
ATOM     10  C   UNL     1       1.908  15.468  19.180  0.00  0.00    +0.000 A 
ATOM     11  C   UNL     1       0.620  15.220  19.885  0.00  0.00    +0.000 A 
ATOM     12  O   UNL     1      -0.138  16.163  20.072  0.00  0.00    +0.000 OA
ATOM     13  H   UNL     1       0.145  12.551  18.155  0.00  0.00    +0.000 HD
ENDROOT
BRANCH   1  17
ATOM     14  C   UNL     1      -2.595  12.211  22.808  0.00  0.00    +0.000 A 
ATOM     15  C   UNL     1      -2.925  13.248  21.918  0.00  0.00    +0.000 A 
ATOM     16  C   UNL     1      -1.976  13.810  21.031  0.00  0.00    +0.000 A 
ATOM     17  C   UNL     1      -0.662  13.338  21.014  0.00  0.00    +0.000 A 
ATOM     18  C   UNL     1      -0.361  12.313  21.933  0.00  0.00    +0.000 A 
ATOM     19  C   UNL     1      -1.278  11.750  22.823  0.00  0.00    +0.000 A 
BRANCH  14  21
ATOM     20  C   UNL     1      -4.192  12.521  24.550  0.00  0.00    +0.000 C 
ATOM     21  O   UNL     1      -3.469  11.646  23.695  0.00  0.00    +0.000 OA
ENDBRANCH  14  21
BRANCH  19  22
ATOM     22  O   UNL     1      -0.719  10.753  23.565  0.00  0.00    +0.000 OA
ATOM     23  C   UNL     1      -0.254   9.588  22.902  0.00  0.00    +0.000 C 
ENDBRANCH  19  22
ENDBRANCH   1  17
BRANCH   3  24
ATOM     24  N   UNL     1       1.738  11.350  18.050  0.00  0.00    +0.000 N 
ATOM     25  C   UNL     1       1.518   9.988  18.098  0.00  0.00    +0.000 C 
ATOM     26  O   UNL     1       0.398   9.536  18.321  0.00  0.00    +0.000 OA
ATOM     27  N   UNL     1       2.685   9.286  17.925  0.00  0.00    +0.000 N 
ATOM     28  H   UNL     1       2.681  11.710  18.131  0.00  0.00    +0.000 HD
ATOM     29  H   UNL     1       3.481   9.822  17.616  0.00  0.00    +0.000 HD
BRANCH  27  30
ATOM     30  C   UNL     1       2.879   7.905  18.091  0.00  0.00    +0.000 A 
ATOM     31  C   UNL     1       3.622   7.109  17.216  0.00  0.00    +0.000 A 
ATOM     32  C   UNL     1       3.767   5.744  17.460  0.00  0.00    +0.000 A 
ATOM     33  C   UNL     1       3.177   5.166  18.578  0.00  0.00    +0.000 A 
ATOM     34  C   UNL     1       2.424   5.944  19.462  0.00  0.00    +0.000 A 
ATOM     35  C   UNL     1       1.774   5.340  20.670  0.00  0.00    +0.000 C 
ATOM     36  C   UNL     1       2.267   7.311  19.200  0.00  0.00    +0.000 A 
ENDBRANCH  27  30
ENDBRANCH   3  24
TORSDOF 5
ENDMDL
MODEL 7
REMARK VINA RESULT:      -8.4      3.926      8.532
REMARK  Name = 
REMARK  8 active torsions:
REMARK  status: ('A' for Active; 'I' for Inactive)
REMARK    1  A    between atoms: C_1  and  O_2
REMARK    2  A    between atoms: O_2  and  C_3
REMARK    3  A    between atoms: C_6  and  N_7
REMARK    4  A    between atoms: N_9  and  N_10
REMARK    5  A    between atoms: N_13  and  C_14
REMARK    6  A    between atoms: C_18  and  C_19
REMARK    7  A    between atoms: C_31  and  O_32
REMARK    8  A    between atoms: O_32  and  C_33
REMARK                            x       y       z     vdW  Elec       q    Type
REMARK                         _______ _______ _______ _____ _____    ______ ____
ROOT
ATOM      1  N   UNL     1       0.362  13.892  20.049  0.00  0.00    +0.000 N 
ATOM      2  C   UNL     1       1.256  12.972  19.529  0.00  0.00    +0.000 A 
ATOM      3  N   UNL     1       0.699  12.078  18.644  0.00  0.00    +0.000 N 
ATOM      4  N   UNL     1       2.534  13.123  19.701  0.00  0.00    +0.000 NA
ATOM      5  C   UNL     1       2.943  14.424  19.361  0.00  0.00    +0.000 A 
ATOM      6  C   UNL     1       4.220  14.538  18.826  0.00  0.00    +0.000 A 
ATOM      7  C   UNL     1       4.443  15.436  17.790  0.00  0.00    +0.000 A 
ATOM      8  C   UNL     1       3.392  16.234  17.324  0.00  0.00    +0.000 A 
ATOM      9  C   UNL     1       2.164  16.252  17.994  0.00  0.00    +0.000 A 
ATOM     10  C   UNL     1       1.968  15.383  19.059  0.00  0.00    +0.000 A 
ATOM     11  C   UNL     1       0.649  15.206  19.729  0.00  0.00    +0.000 A 
ATOM     12  O   UNL     1      -0.061  16.189  19.896  0.00  0.00    +0.000 OA
ATOM     13  H   UNL     1       0.076  12.566  17.983  0.00  0.00    +0.000 HD
ENDROOT
BRANCH   1  17
ATOM     14  C   UNL     1      -2.811  12.405  22.569  0.00  0.00    +0.000 A 
ATOM     15  C   UNL     1      -3.081  13.372  21.585  0.00  0.00    +0.000 A 
ATOM     16  C   UNL     1      -2.075  13.868  20.719  0.00  0.00    +0.000 A 
ATOM     17  C   UNL     1      -0.765  13.398  20.820  0.00  0.00    +0.000 A 
ATOM     18  C   UNL     1      -0.526  12.444  21.830  0.00  0.00    +0.000 A 
ATOM     19  C   UNL     1      -1.499  11.948  22.701  0.00  0.00    +0.000 A 
BRANCH  14  21
ATOM     20  C   UNL     1      -4.150  12.746  24.510  0.00  0.00    +0.000 C 
ATOM     21  O   UNL     1      -3.741  11.907  23.438  0.00  0.00    +0.000 OA
ENDBRANCH  14  21
BRANCH  19  22
ATOM     22  O   UNL     1      -0.992  11.010  23.548  0.00  0.00    +0.000 OA
ATOM     23  C   UNL     1      -0.389   9.849  22.999  0.00  0.00    +0.000 C 
ENDBRANCH  19  22
ENDBRANCH   1  17
BRANCH   3  24
ATOM     24  N   UNL     1       1.603  11.280  17.921  0.00  0.00    +0.000 N 
ATOM     25  C   UNL     1       1.417   9.925  18.107  0.00  0.00    +0.000 C 
ATOM     26  O   UNL     1       0.321   9.476  18.429  0.00  0.00    +0.000 OA
ATOM     27  N   UNL     1       2.590   9.230  17.939  0.00  0.00    +0.000 N 
ATOM     28  H   UNL     1       2.541  11.662  17.918  0.00  0.00    +0.000 HD
ATOM     29  H   UNL     1       3.357   9.749  17.540  0.00  0.00    +0.000 HD
BRANCH  27  30
ATOM     30  C   UNL     1       2.823   7.875  18.221  0.00  0.00    +0.000 A 
ATOM     31  C   UNL     1       2.290   7.204  19.324  0.00  0.00    +0.000 A 
ATOM     32  C   UNL     1       2.570   5.853  19.526  0.00  0.00    +0.000 A 
ATOM     33  C   UNL     1       3.378   5.163  18.630  0.00  0.00    +0.000 A 
ATOM     34  C   UNL     1       3.927   5.819  17.524  0.00  0.00    +0.000 A 
ATOM     35  C   UNL     1       4.805   5.096  16.548  0.00  0.00    +0.000 C 
ATOM     36  C   UNL     1       3.656   7.180  17.338  0.00  0.00    +0.000 A 
ENDBRANCH  27  30
ENDBRANCH   3  24
TORSDOF 5
ENDMDL
MODEL 8
REMARK VINA RESULT:      -8.3      4.724     10.200
REMARK  Name = 
REMARK  8 active torsions:
REMARK  status: ('A' for Active; 'I' for Inactive)
REMARK    1  A    between atoms: C_1  and  O_2
REMARK    2  A    between atoms: O_2  and  C_3
REMARK    3  A    between atoms: C_6  and  N_7
REMARK    4  A    between atoms: N_9  and  N_10
REMARK    5  A    between atoms: N_13  and  C_14
REMARK    6  A    between atoms: C_18  and  C_19
REMARK    7  A    between atoms: C_31  and  O_32
REMARK    8  A    between atoms: O_32  and  C_33
REMARK                            x       y       z     vdW  Elec       q    Type
REMARK                         _______ _______ _______ _____ _____    ______ ____
ROOT
ATOM      1  N   UNL     1       1.197   9.944  19.687  0.00  0.00    +0.000 N 
ATOM      2  C   UNL     1       0.534  10.716  18.750  0.00  0.00    +0.000 A 
ATOM      3  N   UNL     1      -0.480  10.061  18.090  0.00  0.00    +0.000 N 
ATOM      4  N   UNL     1       0.723  12.000  18.698  0.00  0.00    +0.000 NA
ATOM      5  C   UNL     1       0.594  12.584  19.970  0.00  0.00    +0.000 A 
ATOM      6  C   UNL     1       0.081  13.875  19.995  0.00  0.00    +0.000 A 
ATOM      7  C   UNL     1      -0.799  14.234  21.007  0.00  0.00    +0.000 A 
ATOM      8  C   UNL     1      -1.129  13.308  22.003  0.00  0.00    +0.000 A 
ATOM      9  C   UNL     1      -0.461  12.081  22.080  0.00  0.00    +0.000 A 
ATOM     10  C   UNL     1       0.453  11.752  21.087  0.00  0.00    +0.000 A 
ATOM     11  C   UNL     1       1.090  10.409  20.985  0.00  0.00    +0.000 A 
ATOM     12  O   UNL     1       1.414   9.833  22.015  0.00  0.00    +0.000 OA
ATOM     13  H   UNL     1      -1.053   9.522  18.756  0.00  0.00    +0.000 HD
ENDROOT
BRANCH   1  17
ATOM     14  C   UNL     1       3.023   6.233  18.456  0.00  0.00    +0.000 A 
ATOM     15  C   UNL     1       3.096   7.367  17.629  0.00  0.00    +0.000 A 
ATOM     16  C   UNL     1       2.534   8.611  18.005  0.00  0.00    +0.000 A 
ATOM     17  C   UNL     1       1.883   8.747  19.233  0.00  0.00    +0.000 A 
ATOM     18  C   UNL     1       1.811   7.585  20.027  0.00  0.00    +0.000 A 
ATOM     19  C   UNL     1       2.349   6.346  19.672  0.00  0.00    +0.000 A 
BRANCH  14  21
ATOM     20  C   UNL     1       4.858   4.716  18.556  0.00  0.00    +0.000 C 
ATOM     21  O   UNL     1       3.534   5.006  18.131  0.00  0.00    +0.000 OA
ENDBRANCH  14  21
BRANCH  19  22
ATOM     22  O   UNL     1       2.163   5.414  20.648  0.00  0.00    +0.000 OA
ATOM     23  C   UNL     1       1.191   4.400  20.447  0.00  0.00    +0.000 C 
ENDBRANCH  19  22
ENDBRANCH   1  17
BRANCH   3  24
ATOM     24  N   UNL     1      -1.325  10.865  17.303  0.00  0.00    +0.000 N 
ATOM     25  C   UNL     1      -2.452  11.302  17.970  0.00  0.00    +0.000 C 
ATOM     26  O   UNL     1      -2.460  11.412  19.193  0.00  0.00    +0.000 OA
ATOM     27  N   UNL     1      -3.495  11.518  17.103  0.00  0.00    +0.000 N 
ATOM     28  H   UNL     1      -1.403  10.529  16.352  0.00  0.00    +0.000 HD
ATOM     29  H   UNL     1      -3.262  11.509  16.122  0.00  0.00    +0.000 HD
BRANCH  27  30
ATOM     30  C   UNL     1      -4.832  11.789  17.433  0.00  0.00    +0.000 A 
ATOM     31  C   UNL     1      -5.619  12.743  16.784  0.00  0.00    +0.000 A 
ATOM     32  C   UNL     1      -6.943  12.943  17.174  0.00  0.00    +0.000 A 
ATOM     33  C   UNL     1      -7.490  12.194  18.208  0.00  0.00    +0.000 A 
ATOM     34  C   UNL     1      -6.716  11.238  18.874  0.00  0.00    +0.000 A 
ATOM     35  C   UNL     1      -7.284  10.422  19.996  0.00  0.00    +0.000 C 
ATOM     36  C   UNL     1      -5.383  11.055  18.490  0.00  0.00    +0.000 A 
ENDBRANCH  27  30
ENDBRANCH   3  24
TORSDOF 5
ENDMDL
MODEL 9
REMARK VINA RESULT:      -8.3      1.991      7.818
REMARK  Name = 
REMARK  8 active torsions:
REMARK  status: ('A' for Active; 'I' for Inactive)
REMARK    1  A    between atoms: C_1  and  O_2
REMARK    2  A    between atoms: O_2  and  C_3
REMARK    3  A    between atoms: C_6  and  N_7
REMARK    4  A    between atoms: N_9  and  N_10
REMARK    5  A    between atoms: N_13  and  C_14
REMARK    6  A    between atoms: C_18  and  C_19
REMARK    7  A    between atoms: C_31  and  O_32
REMARK    8  A    between atoms: O_32  and  C_33
REMARK                            x       y       z     vdW  Elec       q    Type
REMARK                         _______ _______ _______ _____ _____    ______ ____
ROOT
ATOM      1  N   UNL     1       4.079   4.025  17.709  0.00  0.00    +0.000 N 
ATOM      2  C   UNL     1       4.012   4.849  18.819  0.00  0.00    +0.000 A 
ATOM      3  N   UNL     1       3.651   6.147  18.540  0.00  0.00    +0.000 N 
ATOM      4  N   UNL     1       4.059   4.350  20.017  0.00  0.00    +0.000 NA
ATOM      5  C   UNL     1       3.150   3.288  20.161  0.00  0.00    +0.000 A 
ATOM      6  C   UNL     1       2.586   3.139  21.422  0.00  0.00    +0.000 A 
ATOM      7  C   UNL     1       1.249   2.782  21.528  0.00  0.00    +0.000 A 
ATOM      8  C   UNL     1       0.499   2.544  20.371  0.00  0.00    +0.000 A 
ATOM      9  C   UNL     1       1.121   2.506  19.118  0.00  0.00    +0.000 A 
ATOM     10  C   UNL     1       2.471   2.819  19.030  0.00  0.00    +0.000 A 
ATOM     11  C   UNL     1       3.185   2.970  17.730  0.00  0.00    +0.000 A 
ATOM     12  O   UNL     1       2.903   2.210  16.814  0.00  0.00    +0.000 OA
ATOM     13  H   UNL     1       2.858   6.167  17.882  0.00  0.00    +0.000 HD
ENDROOT
BRANCH   1  17
ATOM     14  C   UNL     1       7.078   5.073  14.789  0.00  0.00    +0.000 A 
ATOM     15  C   UNL     1       6.157   4.046  14.521  0.00  0.00    +0.000 A 
ATOM     16  C   UNL     1       5.140   3.687  15.440  0.00  0.00    +0.000 A 
ATOM     17  C   UNL     1       5.022   4.360  16.658  0.00  0.00    +0.000 A 
ATOM     18  C   UNL     1       5.975   5.370  16.902  0.00  0.00    +0.000 A 
ATOM     19  C   UNL     1       6.991   5.734  16.015  0.00  0.00    +0.000 A 
BRANCH  14  21
ATOM     20  C   UNL     1       7.855   5.312  12.549  0.00  0.00    +0.000 C 
ATOM     21  O   UNL     1       8.087   5.446  13.944  0.00  0.00    +0.000 OA
ENDBRANCH  14  21
BRANCH  19  22
ATOM     22  O   UNL     1       7.739   6.766  16.497  0.00  0.00    +0.000 OA
ATOM     23  C   UNL     1       7.596   7.134  17.859  0.00  0.00    +0.000 C 
ENDBRANCH  19  22
ENDBRANCH   1  17
BRANCH   3  24
ATOM     24  N   UNL     1       3.348   6.956  19.651  0.00  0.00    +0.000 N 
ATOM     25  C   UNL     1       2.075   7.490  19.614  0.00  0.00    +0.000 C 
ATOM     26  O   UNL     1       1.174   6.937  18.989  0.00  0.00    +0.000 OA
ATOM     27  N   UNL     1       2.013   8.682  20.294  0.00  0.00    +0.000 N 
ATOM     28  H   UNL     1       4.128   7.535  19.933  0.00  0.00    +0.000 HD
ATOM     29  H   UNL     1       2.816   8.910  20.860  0.00  0.00    +0.000 HD
BRANCH  27  30
ATOM     30  C   UNL     1       0.944   9.592  20.319  0.00  0.00    +0.000 A 
ATOM     31  C   UNL     1       0.408  10.199  19.181  0.00  0.00    +0.000 A 
ATOM     32  C   UNL     1      -0.659  11.089  19.297  0.00  0.00    +0.000 A 
ATOM     33  C   UNL     1      -1.200  11.375  20.544  0.00  0.00    +0.000 A 
ATOM     34  C   UNL     1      -0.673  10.782  21.696  0.00  0.00    +0.000 A 
ATOM     35  C   UNL     1      -1.238  11.081  23.052  0.00  0.00    +0.000 C 
ATOM     36  C   UNL     1       0.411   9.904  21.574  0.00  0.00    +0.000 A 
ENDBRANCH  27  30
ENDBRANCH   3  24
TORSDOF 5
ENDMDL
