MODEL 1
REMARK VINA RESULT:      -5.4      0.000      0.000
REMARK  Name = 
REMARK  5 active torsions:
REMARK  status: ('A' for Active; 'I' for Inactive)
REMARK    1  A    between atoms: O_1  and  C_2
REMARK    2  A    between atoms: C_2  and  C_3
REMARK    3  A    between atoms: C_3  and  O_4
REMARK    4  A    between atoms: C_3  and  C_5
REMARK    5  A    between atoms: C_5  and  N_6
REMARK                            x       y       z     vdW  Elec       q    Type
REMARK                         _______ _______ _______ _____ _____    ______ ____
ROOT
ATOM      1  C   UNL     1       5.061   5.724  18.856  0.00  0.00    +0.000 C 
ENDROOT
BRANCH   1   2
ATOM      2  N   UNL     1       3.814   4.903  18.791  0.00  0.00    +0.000 N 
ATOM      3  C   UNL     1       3.143   4.776  17.620  0.00  0.00    +0.000 A 
ATOM      4  C   UNL     1       1.951   4.057  17.561  0.00  0.00    +0.000 A 
ATOM      5  C   UNL     1       1.455   3.449  18.708  0.00  0.00    +0.000 A 
ATOM      6  C   UNL     1       2.155   3.584  19.897  0.00  0.00    +0.000 A 
ATOM      7 BR   UNL     1       1.523   2.766  21.475  0.00  0.00    +0.000 Br
ATOM      8  C   UNL     1       3.325   4.332  19.925  0.00  0.00    +0.000 A 
ENDBRANCH   1   2
BRANCH   1   9
ATOM      9  C   UNL     1       6.310   4.839  18.900  0.00  0.00    +0.000 C 
BRANCH   9  10
ATOM     10  O   UNL     1       7.180   5.265  19.959  0.00  0.00    +0.000 OA
ATOM     11  H   UNL     1       6.582   5.507  20.703  0.00  0.00    +0.000 HD
ENDBRANCH   9  10
BRANCH   9  12
ATOM     12  C   UNL     1       7.105   4.928  17.593  0.00  0.00    +0.000 C 
BRANCH  12  13
ATOM     13  O   UNL     1       8.225   4.055  17.725  0.00  0.00    +0.000 OA
ATOM     14  H   UNL     1       8.112   3.322  17.090  0.00  0.00    +0.000 HD
ENDBRANCH  12  13
ENDBRANCH   9  12
ENDBRANCH   1   9
TORSDOF 5
ENDMDL
MODEL 2
REMARK VINA RESULT:      -5.2      1.317      1.687
REMARK  Name = 
REMARK  5 active torsions:
REMARK  status: ('A' for Active; 'I' for Inactive)
REMARK    1  A    between atoms: O_1  and  C_2
REMARK    2  A    between atoms: C_2  and  C_3
REMARK    3  A    between atoms: C_3  and  O_4
REMARK    4  A    between atoms: C_3  and  C_5
REMARK    5  A    between atoms: C_5  and  N_6
REMARK                            x       y       z     vdW  Elec       q    Type
REMARK                         _______ _______ _______ _____ _____    ______ ____
ROOT
ATOM      1  C   UNL     1       5.940   4.486  18.508  0.00  0.00    +0.000 C 
ENDROOT
BRANCH   1   2
ATOM      2  N   UNL     1       4.549   3.940  18.449  0.00  0.00    +0.000 N 
ATOM      3  C   UNL     1       3.975   3.667  17.252  0.00  0.00    +0.000 A 
ATOM      4  C   UNL     1       2.661   3.208  17.185  0.00  0.00    +0.000 A 
ATOM      5  C   UNL     1       1.939   3.011  18.356  0.00  0.00    +0.000 A 
ATOM      6  C   UNL     1       2.541   3.290  19.573  0.00  0.00    +0.000 A 
ATOM      7 BR   UNL     1       1.601   3.026  21.186  0.00  0.00    +0.000 Br
ATOM      8  C   UNL     1       3.844   3.773  19.600  0.00  0.00    +0.000 A 
ENDBRANCH   1   2
BRANCH   1   9
ATOM      9  C   UNL     1       6.480   4.788  17.108  0.00  0.00    +0.000 C 
BRANCH   9  10
ATOM     10  O   UNL     1       7.862   4.411  17.020  0.00  0.00    +0.000 OA
ATOM     11  H   UNL     1       8.063   4.392  16.056  0.00  0.00    +0.000 HD
ENDBRANCH   9  10
BRANCH   9  12
ATOM     12  C   UNL     1       6.393   6.283  16.783  0.00  0.00    +0.000 C 
BRANCH  12  13
ATOM     13  O   UNL     1       7.716   6.724  16.487  0.00  0.00    +0.000 OA
ATOM     14  H   UNL     1       8.031   6.228  15.707  0.00  0.00    +0.000 HD
ENDBRANCH  12  13
ENDBRANCH   9  12
ENDBRANCH   1   9
TORSDOF 5
ENDMDL
MODEL 3
REMARK VINA RESULT:      -5.1      1.005      1.385
REMARK  Name = 
REMARK  5 active torsions:
REMARK  status: ('A' for Active; 'I' for Inactive)
REMARK    1  A    between atoms: O_1  and  C_2
REMARK    2  A    between atoms: C_2  and  C_3
REMARK    3  A    between atoms: C_3  and  O_4
REMARK    4  A    between atoms: C_3  and  C_5
REMARK    5  A    between atoms: C_5  and  N_6
REMARK                            x       y       z     vdW  Elec       q    Type
REMARK                         _______ _______ _______ _____ _____    ______ ____
ROOT
ATOM      1  C   UNL     1       5.470   4.659  18.612  0.00  0.00    +0.000 C 
ENDROOT
BRANCH   1   2
ATOM      2  N   UNL     1       4.007   4.365  18.705  0.00  0.00    +0.000 N 
ATOM      3  C   UNL     1       3.173   4.735  17.703  0.00  0.00    +0.000 A 
ATOM      4  C   UNL     1       1.801   4.513  17.805  0.00  0.00    +0.000 A 
ATOM      5  C   UNL     1       1.286   3.892  18.937  0.00  0.00    +0.000 A 
ATOM      6  C   UNL     1       2.152   3.516  19.951  0.00  0.00    +0.000 A 
ATOM      7 BR   UNL     1       1.496   2.660  21.498  0.00  0.00    +0.000 Br
ATOM      8  C   UNL     1       3.511   3.778  19.828  0.00  0.00    +0.000 A 
ENDBRANCH   1   2
BRANCH   1   9
ATOM      9  C   UNL     1       5.945   4.667  17.156  0.00  0.00    +0.000 C 
BRANCH   9  10
ATOM     10  O   UNL     1       5.852   3.347  16.599  0.00  0.00    +0.000 OA
ATOM     11  H   UNL     1       6.718   2.922  16.796  0.00  0.00    +0.000 HD
ENDBRANCH   9  10
BRANCH   9  12
ATOM     12  C   UNL     1       7.409   5.106  17.046  0.00  0.00    +0.000 C 
BRANCH  12  13
ATOM     13  O   UNL     1       8.204   4.047  17.575  0.00  0.00    +0.000 OA
ATOM     14  H   UNL     1       7.985   3.233  17.084  0.00  0.00    +0.000 HD
ENDBRANCH  12  13
ENDBRANCH   9  12
ENDBRANCH   1   9
TORSDOF 5
ENDMDL
MODEL 4
REMARK VINA RESULT:      -5.1      1.118      1.311
REMARK  Name = 
REMARK  5 active torsions:
REMARK  status: ('A' for Active; 'I' for Inactive)
REMARK    1  A    between atoms: O_1  and  C_2
REMARK    2  A    between atoms: C_2  and  C_3
REMARK    3  A    between atoms: C_3  and  O_4
REMARK    4  A    between atoms: C_3  and  C_5
REMARK    5  A    between atoms: C_5  and  N_6
REMARK                            x       y       z     vdW  Elec       q    Type
REMARK                         _______ _______ _______ _____ _____    ______ ____
ROOT
ATOM      1  C   UNL     1       5.498   5.427  18.466  0.00  0.00    +0.000 C 
ENDROOT
BRANCH   1   2
ATOM      2  N   UNL     1       4.112   4.885  18.609  0.00  0.00    +0.000 N 
ATOM      3  C   UNL     1       3.205   5.067  17.618  0.00  0.00    +0.000 A 
ATOM      4  C   UNL     1       1.896   4.612  17.765  0.00  0.00    +0.000 A 
ATOM      5  C   UNL     1       1.522   3.951  18.929  0.00  0.00    +0.000 A 
ATOM      6  C   UNL     1       2.462   3.770  19.931  0.00  0.00    +0.000 A 
ATOM      7 BR   UNL     1       2.000   2.869  21.522  0.00  0.00    +0.000 Br
ATOM      8  C   UNL     1       3.751   4.261  19.762  0.00  0.00    +0.000 A 
ENDBRANCH   1   2
BRANCH   1   9
ATOM      9  C   UNL     1       6.320   4.602  17.473  0.00  0.00    +0.000 C 
BRANCH   9  10
ATOM     10  O   UNL     1       7.572   4.222  18.063  0.00  0.00    +0.000 OA
ATOM     11  H   UNL     1       8.032   5.070  18.262  0.00  0.00    +0.000 HD
ENDBRANCH   9  10
BRANCH   9  12
ATOM     12  C   UNL     1       6.638   5.403  16.205  0.00  0.00    +0.000 C 
BRANCH  12  13
ATOM     13  O   UNL     1       7.091   6.688  16.626  0.00  0.00    +0.000 OA
ATOM     14  H   UNL     1       7.075   7.281  15.851  0.00  0.00    +0.000 HD
ENDBRANCH  12  13
ENDBRANCH   9  12
ENDBRANCH   1   9
TORSDOF 5
ENDMDL
MODEL 5
REMARK VINA RESULT:      -5.0      1.464      1.815
REMARK  Name = 
REMARK  5 active torsions:
REMARK  status: ('A' for Active; 'I' for Inactive)
REMARK    1  A    between atoms: O_1  and  C_2
REMARK    2  A    between atoms: C_2  and  C_3
REMARK    3  A    between atoms: C_3  and  O_4
REMARK    4  A    between atoms: C_3  and  C_5
REMARK    5  A    between atoms: C_5  and  N_6
REMARK                            x       y       z     vdW  Elec       q    Type
REMARK                         _______ _______ _______ _____ _____    ______ ____
ROOT
ATOM      1  C   UNL     1       6.043   5.084  18.895  0.00  0.00    +0.000 C 
ENDROOT
BRANCH   1   2
ATOM      2  N   UNL     1       4.567   5.010  18.670  0.00  0.00    +0.000 N 
ATOM      3  C   UNL     1       3.880   6.116  18.292  0.00  0.00    +0.000 A 
ATOM      4  C   UNL     1       2.496   6.070  18.132  0.00  0.00    +0.000 A 
ATOM      5  C   UNL     1       1.817   4.876  18.345  0.00  0.00    +0.000 A 
ATOM      6  C   UNL     1       2.534   3.753  18.728  0.00  0.00    +0.000 A 
ATOM      7 BR   UNL     1       1.653   2.111  19.016  0.00  0.00    +0.000 Br
ATOM      8  C   UNL     1       3.909   3.843  18.905  0.00  0.00    +0.000 A 
ENDBRANCH   1   2
BRANCH   1   9
ATOM      9  C   UNL     1       6.818   4.783  17.610  0.00  0.00    +0.000 C 
BRANCH   9  10
ATOM     10  O   UNL     1       8.029   4.076  17.917  0.00  0.00    +0.000 OA
ATOM     11  H   UNL     1       8.686   4.388  17.253  0.00  0.00    +0.000 HD
ENDBRANCH   9  10
BRANCH   9  12
ATOM     12  C   UNL     1       7.215   6.071  16.880  0.00  0.00    +0.000 C 
BRANCH  12  13
ATOM     13  O   UNL     1       7.505   5.714  15.530  0.00  0.00    +0.000 OA
ATOM     14  H   UNL     1       8.418   5.371  15.499  0.00  0.00    +0.000 HD
ENDBRANCH  12  13
ENDBRANCH   9  12
ENDBRANCH   1   9
TORSDOF 5
ENDMDL
MODEL 6
REMARK VINA RESULT:      -5.0      3.644      4.852
REMARK  Name = 
REMARK  5 active torsions:
REMARK  status: ('A' for Active; 'I' for Inactive)
REMARK    1  A    between atoms: O_1  and  C_2
REMARK    2  A    between atoms: C_2  and  C_3
REMARK    3  A    between atoms: C_3  and  O_4
REMARK    4  A    between atoms: C_3  and  C_5
REMARK    5  A    between atoms: C_5  and  N_6
REMARK                            x       y       z     vdW  Elec       q    Type
REMARK                         _______ _______ _______ _____ _____    ______ ____
ROOT
ATOM      1  C   UNL     1       3.112   2.717  19.961  0.00  0.00    +0.000 C 
ENDROOT
BRANCH   1   2
ATOM      2  N   UNL     1       3.920   3.419  18.916  0.00  0.00    +0.000 N 
ATOM      3  C   UNL     1       3.569   3.330  17.610  0.00  0.00    +0.000 A 
ATOM      4  C   UNL     1       4.345   3.936  16.625  0.00  0.00    +0.000 A 
ATOM      5  C   UNL     1       5.480   4.653  16.986  0.00  0.00    +0.000 A 
ATOM      6  C   UNL     1       5.824   4.739  18.326  0.00  0.00    +0.000 A 
ATOM      7 BR   UNL     1       7.348   5.712  18.860  0.00  0.00    +0.000 Br
ATOM      8  C   UNL     1       5.041   4.098  19.279  0.00  0.00    +0.000 A 
ENDBRANCH   1   2
BRANCH   1   9
ATOM      9  C   UNL     1       2.492   3.710  20.947  0.00  0.00    +0.000 C 
BRANCH   9  10
ATOM     10  O   UNL     1       2.270   3.075  22.214  0.00  0.00    +0.000 OA
ATOM     11  H   UNL     1       1.701   3.699  22.720  0.00  0.00    +0.000 HD
ENDBRANCH   9  10
BRANCH   9  12
ATOM     12  C   UNL     1       1.135   4.222  20.449  0.00  0.00    +0.000 C 
BRANCH  12  13
ATOM     13  O   UNL     1       0.368   3.078  20.079  0.00  0.00    +0.000 OA
ATOM     14  H   UNL     1      -0.172   3.317  19.302  0.00  0.00    +0.000 HD
ENDBRANCH  12  13
ENDBRANCH   9  12
ENDBRANCH   1   9
TORSDOF 5
ENDMDL
MODEL 7
REMARK VINA RESULT:      -5.0      3.653      4.970
REMARK  Name = 
REMARK  5 active torsions:
REMARK  status: ('A' for Active; 'I' for Inactive)
REMARK    1  A    between atoms: O_1  and  C_2
REMARK    2  A    between atoms: C_2  and  C_3
REMARK    3  A    between atoms: C_3  and  O_4
REMARK    4  A    between atoms: C_3  and  C_5
REMARK    5  A    between atoms: C_5  and  N_6
REMARK                            x       y       z     vdW  Elec       q    Type
REMARK                         _______ _______ _______ _____ _____    ______ ____
ROOT
ATOM      1  C   UNL     1       3.460   3.945  17.743  0.00  0.00    +0.000 C 
ENDROOT
BRANCH   1   2
ATOM      2  N   UNL     1       4.707   4.399  17.054  0.00  0.00    +0.000 N 
ATOM      3  C   UNL     1       5.167   3.732  15.968  0.00  0.00    +0.000 A 
ATOM      4  C   UNL     1       6.357   4.115  15.352  0.00  0.00    +0.000 A 
ATOM      5  C   UNL     1       7.069   5.202  15.845  0.00  0.00    +0.000 A 
ATOM      6  C   UNL     1       6.584   5.877  16.954  0.00  0.00    +0.000 A 
ATOM      7 BR   UNL     1       7.513   7.364  17.647  0.00  0.00    +0.000 Br
ATOM      8  C   UNL     1       5.408   5.450  17.559  0.00  0.00    +0.000 A 
ENDBRANCH   1   2
BRANCH   1   9
ATOM      9  C   UNL     1       3.545   2.467  18.131  0.00  0.00    +0.000 C 
BRANCH   9  10
ATOM     10  O   UNL     1       2.325   1.794  17.784  0.00  0.00    +0.000 OA
ATOM     11  H   UNL     1       2.569   1.172  17.061  0.00  0.00    +0.000 HD
ENDBRANCH   9  10
BRANCH   9  12
ATOM     12  C   UNL     1       3.748   2.294  19.640  0.00  0.00    +0.000 C 
BRANCH  12  13
ATOM     13  O   UNL     1       5.154   2.226  19.868  0.00  0.00    +0.000 OA
ATOM     14  H   UNL     1       5.321   1.501  20.500  0.00  0.00    +0.000 HD
ENDBRANCH  12  13
ENDBRANCH   9  12
ENDBRANCH   1   9
TORSDOF 5
ENDMDL
MODEL 8
REMARK VINA RESULT:      -5.0      4.021      5.494
REMARK  Name = 
REMARK  5 active torsions:
REMARK  status: ('A' for Active; 'I' for Inactive)
REMARK    1  A    between atoms: O_1  and  C_2
REMARK    2  A    between atoms: C_2  and  C_3
REMARK    3  A    between atoms: C_3  and  O_4
REMARK    4  A    between atoms: C_3  and  C_5
REMARK    5  A    between atoms: C_5  and  N_6
REMARK                            x       y       z     vdW  Elec       q    Type
REMARK                         _______ _______ _______ _____ _____    ______ ____
ROOT
ATOM      1  C   UNL     1       3.457   4.328  18.498  0.00  0.00    +0.000 C 
ENDROOT
BRANCH   1   2
ATOM      2  N   UNL     1       4.787   4.389  17.816  0.00  0.00    +0.000 N 
ATOM      3  C   UNL     1       5.903   4.681  18.526  0.00  0.00    +0.000 A 
ATOM      4  C   UNL     1       7.139   4.793  17.891  0.00  0.00    +0.000 A 
ATOM      5  C   UNL     1       7.229   4.585  16.519  0.00  0.00    +0.000 A 
ATOM      6  C   UNL     1       6.079   4.283  15.807  0.00  0.00    +0.000 A 
ATOM      7 BR   UNL     1       6.159   3.982  13.947  0.00  0.00    +0.000 Br
ATOM      8  C   UNL     1       4.860   4.207  16.470  0.00  0.00    +0.000 A 
ENDBRANCH   1   2
BRANCH   1   9
ATOM      9  C   UNL     1       2.559   3.257  17.874  0.00  0.00    +0.000 C 
BRANCH   9  10
ATOM     10  O   UNL     1       1.322   3.841  17.440  0.00  0.00    +0.000 OA
ATOM     11  H   UNL     1       1.483   4.813  17.434  0.00  0.00    +0.000 HD
ENDBRANCH   9  10
BRANCH   9  12
ATOM     12  C   UNL     1       2.215   2.156  18.883  0.00  0.00    +0.000 C 
BRANCH  12  13
ATOM     13  O   UNL     1       0.915   1.675  18.550  0.00  0.00    +0.000 OA
ATOM     14  H   UNL     1       0.886   0.721  18.756  0.00  0.00    +0.000 HD
ENDBRANCH  12  13
ENDBRANCH   9  12
ENDBRANCH   1   9
TORSDOF 5
ENDMDL
MODEL 9
REMARK VINA RESULT:      -5.0      1.802      2.150
REMARK  Name = 
REMARK  5 active torsions:
REMARK  status: ('A' for Active; 'I' for Inactive)
REMARK    1  A    between atoms: O_1  and  C_2
REMARK    2  A    between atoms: C_2  and  C_3
REMARK    3  A    between atoms: C_3  and  O_4
REMARK    4  A    between atoms: C_3  and  C_5
REMARK    5  A    between atoms: C_5  and  N_6
REMARK                            x       y       z     vdW  Elec       q    Type
REMARK                         _______ _______ _______ _____ _____    ______ ____
ROOT
ATOM      1  C   UNL     1       5.758   5.364  17.284  0.00  0.00    +0.000 C 
ENDROOT
BRANCH   1   2
ATOM      2  N   UNL     1       4.459   4.742  17.686  0.00  0.00    +0.000 N 
ATOM      3  C   UNL     1       3.908   3.764  16.926  0.00  0.00    +0.000 A 
ATOM      4  C   UNL     1       2.673   3.216  17.264  0.00  0.00    +0.000 A 
ATOM      5  C   UNL     1       2.007   3.663  18.400  0.00  0.00    +0.000 A 
ATOM      6  C   UNL     1       2.586   4.660  19.169  0.00  0.00    +0.000 A 
ATOM      7 BR   UNL     1       1.723   5.287  20.725  0.00  0.00    +0.000 Br
ATOM      8  C   UNL     1       3.806   5.204  18.787  0.00  0.00    +0.000 A 
ENDBRANCH   1   2
BRANCH   1   9
ATOM      9  C   UNL     1       6.587   4.413  16.418  0.00  0.00    +0.000 C 
BRANCH   9  10
ATOM     10  O   UNL     1       7.950   4.396  16.869  0.00  0.00    +0.000 OA
ATOM     11  H   UNL     1       8.382   3.674  16.357  0.00  0.00    +0.000 HD
ENDBRANCH   9  10
BRANCH   9  12
ATOM     12  C   UNL     1       6.597   4.855  14.951  0.00  0.00    +0.000 C 
BRANCH  12  13
ATOM     13  O   UNL     1       7.867   5.453  14.703  0.00  0.00    +0.000 OA
ATOM     14  H   UNL     1       8.069   5.350  13.753  0.00  0.00    +0.000 HD
ENDBRANCH  12  13
ENDBRANCH   9  12
ENDBRANCH   1   9
TORSDOF 5
ENDMDL
