MODEL 1
REMARK VINA RESULT:      -7.9      0.000      0.000
REMARK  Name = 
REMARK  11 active torsions:
REMARK  status: ('A' for Active; 'I' for Inactive)
REMARK    1  A    between atoms: C_1  and  C_2
REMARK    2  A    between atoms: C_4  and  C_5
REMARK    3  A    between atoms: C_7  and  O_8
REMARK    4  A    between atoms: O_8  and  C_9
REMARK    5  A    between atoms: C_9  and  C_10
REMARK    6  A    between atoms: C_10  and  C_11
REMARK    7  A    between atoms: C_11  and  N_12
REMARK    8  A    between atoms: C_13  and  C_14
REMARK    9  A    between atoms: C_14  and  C_15
REMARK   10  A    between atoms: C_15  and  N_16
REMARK   11  A    between atoms: C_17  and  C_19
REMARK                            x       y       z     vdW  Elec       q    Type
REMARK                         _______ _______ _______ _____ _____    ______ ____
ROOT
ATOM      1  N   UNL     1       2.002   6.316  19.794  0.00  0.00    +0.000 N 
ATOM      2  C   UNL     1       2.211   6.516  18.439  0.00  0.00    +0.000 A 
ATOM      3  N   UNL     1       2.124   5.376  17.780  0.00  0.00    +0.000 NA
ATOM      4  C   UNL     1       1.888   4.412  18.721  0.00  0.00    +0.000 A 
ATOM      5  C   UNL     1       1.754   3.027  18.555  0.00  0.00    +0.000 A 
ATOM      6  C   UNL     1       1.507   2.230  19.678  0.00  0.00    +0.000 A 
ATOM      7  C   UNL     1       1.396   2.806  20.945  0.00  0.00    +0.000 A 
ATOM      8  C   UNL     1       1.530   4.186  21.131  0.00  0.00    +0.000 A 
ATOM      9  C   UNL     1       1.783   4.968  19.994  0.00  0.00    +0.000 A 
ENDROOT
BRANCH   1  10
ATOM     10  C   UNL     1       2.088   7.309  20.848  0.00  0.00    +0.000 C 
BRANCH  10  11
ATOM     11  C   UNL     1       0.784   8.014  21.210  0.00  0.00    +0.000 C 
BRANCH  11  12
ATOM     12  C   UNL     1       0.900   9.532  21.259  0.00  0.00    +0.000 C 
BRANCH  12  13
ATOM     13  O   UNL     1       0.975   9.972  19.903  0.00  0.00    +0.000 OA
BRANCH  13  20
ATOM     14  C   UNL     1      -2.437   9.996  16.305  0.00  0.00    +0.000 C 
ATOM     15  C   UNL     1      -1.912  10.474  17.625  0.00  0.00    +0.000 A 
ATOM     16  C   UNL     1      -2.595  11.447  18.370  0.00  0.00    +0.000 A 
ATOM     17  C   UNL     1      -2.081  11.904  19.590  0.00  0.00    +0.000 A 
ATOM     18  C   UNL     1      -2.797  12.943  20.401  0.00  0.00    +0.000 C 
ATOM     19  C   UNL     1      -0.875  11.374  20.060  0.00  0.00    +0.000 A 
ATOM     20  C   UNL     1      -0.199  10.389  19.341  0.00  0.00    +0.000 A 
ATOM     21  C   UNL     1      -0.709   9.948  18.122  0.00  0.00    +0.000 A 
ENDBRANCH  13  20
ENDBRANCH  12  13
ENDBRANCH  11  12
ENDBRANCH  10  11
ENDBRANCH   1  10
BRANCH   2  22
ATOM     22  C   UNL     1       2.510   7.845  17.823  0.00  0.00    +0.000 C 
BRANCH  22  23
ATOM     23  C   UNL     1       3.949   7.950  17.299  0.00  0.00    +0.000 C 
BRANCH  23  24
ATOM     24  N   UNL     1       4.692   6.695  17.399  0.00  0.00    +0.000 N 
ATOM     25  C   UNL     1       6.064   6.654  17.271  0.00  0.00    +0.000 C 
ATOM     26  O   UNL     1       6.740   7.656  17.060  0.00  0.00    +0.000 OA
ATOM     27  H   UNL     1       4.220   5.903  17.812  0.00  0.00    +0.000 HD
BRANCH  25  28
ATOM     28  C   UNL     1       6.664   5.254  17.402  0.00  0.00    +0.000 C 
ATOM     29  C   UNL     1       5.573   4.178  17.499  0.00  0.00    +0.000 C 
ATOM     30  C   UNL     1       4.880   3.870  16.171  0.00  0.00    +0.000 C 
ATOM     31  C   UNL     1       5.854   3.661  15.017  0.00  0.00    +0.000 C 
ATOM     32  C   UNL     1       6.916   4.753  14.930  0.00  0.00    +0.000 C 
ATOM     33  C   UNL     1       7.639   4.950  16.260  0.00  0.00    +0.000 C 
ENDBRANCH  25  28
ENDBRANCH  23  24
ENDBRANCH  22  23
ENDBRANCH   2  22
TORSDOF 9
ENDMDL
MODEL 2
REMARK VINA RESULT:      -7.8      1.858      4.530
REMARK  Name = 
REMARK  11 active torsions:
REMARK  status: ('A' for Active; 'I' for Inactive)
REMARK    1  A    between atoms: C_1  and  C_2
REMARK    2  A    between atoms: C_4  and  C_5
REMARK    3  A    between atoms: C_7  and  O_8
REMARK    4  A    between atoms: O_8  and  C_9
REMARK    5  A    between atoms: C_9  and  C_10
REMARK    6  A    between atoms: C_10  and  C_11
REMARK    7  A    between atoms: C_11  and  N_12
REMARK    8  A    between atoms: C_13  and  C_14
REMARK    9  A    between atoms: C_14  and  C_15
REMARK   10  A    between atoms: C_15  and  N_16
REMARK   11  A    between atoms: C_17  and  C_19
REMARK                            x       y       z     vdW  Elec       q    Type
REMARK                         _______ _______ _______ _____ _____    ______ ____
ROOT
ATOM      1  N   UNL     1       3.078   7.249  18.121  0.00  0.00    +0.000 N 
ATOM      2  C   UNL     1       3.009   6.747  19.410  0.00  0.00    +0.000 A 
ATOM      3  N   UNL     1       3.980   5.880  19.625  0.00  0.00    +0.000 NA
ATOM      4  C   UNL     1       4.674   5.789  18.450  0.00  0.00    +0.000 A 
ATOM      5  C   UNL     1       5.772   4.978  18.131  0.00  0.00    +0.000 A 
ATOM      6  C   UNL     1       6.325   5.061  16.849  0.00  0.00    +0.000 A 
ATOM      7  C   UNL     1       5.793   5.938  15.902  0.00  0.00    +0.000 A 
ATOM      8  C   UNL     1       4.695   6.752  16.201  0.00  0.00    +0.000 A 
ATOM      9  C   UNL     1       4.150   6.650  17.490  0.00  0.00    +0.000 A 
ENDROOT
BRANCH   1  10
ATOM     10  C   UNL     1       2.149   8.167  17.489  0.00  0.00    +0.000 C 
BRANCH  10  11
ATOM     11  C   UNL     1       2.403   9.651  17.735  0.00  0.00    +0.000 C 
BRANCH  11  12
ATOM     12  C   UNL     1       1.347  10.319  18.606  0.00  0.00    +0.000 C 
BRANCH  12  13
ATOM     13  O   UNL     1       0.163   9.532  18.474  0.00  0.00    +0.000 OA
BRANCH  13  20
ATOM     14  C   UNL     1      -3.454  12.621  19.874  0.00  0.00    +0.000 C 
ATOM     15  C   UNL     1      -2.815  11.712  18.869  0.00  0.00    +0.000 A 
ATOM     16  C   UNL     1      -3.413  11.471  17.623  0.00  0.00    +0.000 A 
ATOM     17  C   UNL     1      -2.819  10.599  16.702  0.00  0.00    +0.000 A 
ATOM     18  C   UNL     1      -3.442  10.329  15.365  0.00  0.00    +0.000 C 
ATOM     19  C   UNL     1      -1.615   9.972  17.039  0.00  0.00    +0.000 A 
ATOM     20  C   UNL     1      -0.998  10.222  18.265  0.00  0.00    +0.000 A 
ATOM     21  C   UNL     1      -1.601  11.081  19.181  0.00  0.00    +0.000 A 
ENDBRANCH  13  20
ENDBRANCH  12  13
ENDBRANCH  11  12
ENDBRANCH  10  11
ENDBRANCH   1  10
BRANCH   2  22
ATOM     22  C   UNL     1       1.963   7.131  20.406  0.00  0.00    +0.000 C 
BRANCH  22  23
ATOM     23  C   UNL     1       1.443   5.935  21.217  0.00  0.00    +0.000 C 
BRANCH  23  24
ATOM     24  N   UNL     1       1.243   4.734  20.409  0.00  0.00    +0.000 N 
ATOM     25  C   UNL     1       1.654   3.493  20.845  0.00  0.00    +0.000 C 
ATOM     26  O   UNL     1       2.215   3.320  21.922  0.00  0.00    +0.000 OA
ATOM     27  H   UNL     1       0.579   4.785  19.650  0.00  0.00    +0.000 HD
BRANCH  25  28
ATOM     28  C   UNL     1       1.363   2.356  19.864  0.00  0.00    +0.000 C 
ATOM     29  C   UNL     1       0.742   2.879  18.561  0.00  0.00    +0.000 C 
ATOM     30  C   UNL     1       1.738   3.568  17.627  0.00  0.00    +0.000 C 
ATOM     31  C   UNL     1       3.023   2.774  17.424  0.00  0.00    +0.000 C 
ATOM     32  C   UNL     1       3.631   2.282  18.734  0.00  0.00    +0.000 C 
ATOM     33  C   UNL     1       2.615   1.520  19.582  0.00  0.00    +0.000 C 
ENDBRANCH  25  28
ENDBRANCH  23  24
ENDBRANCH  22  23
ENDBRANCH   2  22
TORSDOF 9
ENDMDL
MODEL 3
REMARK VINA RESULT:      -7.7      3.246      9.818
REMARK  Name = 
REMARK  11 active torsions:
REMARK  status: ('A' for Active; 'I' for Inactive)
REMARK    1  A    between atoms: C_1  and  C_2
REMARK    2  A    between atoms: C_4  and  C_5
REMARK    3  A    between atoms: C_7  and  O_8
REMARK    4  A    between atoms: O_8  and  C_9
REMARK    5  A    between atoms: C_9  and  C_10
REMARK    6  A    between atoms: C_10  and  C_11
REMARK    7  A    between atoms: C_11  and  N_12
REMARK    8  A    between atoms: C_13  and  C_14
REMARK    9  A    between atoms: C_14  and  C_15
REMARK   10  A    between atoms: C_15  and  N_16
REMARK   11  A    between atoms: C_17  and  C_19
REMARK                            x       y       z     vdW  Elec       q    Type
REMARK                         _______ _______ _______ _____ _____    ______ ____
ROOT
ATOM      1  N   UNL     1      -0.325  10.288  19.202  0.00  0.00    +0.000 N 
ATOM      2  C   UNL     1      -1.195  11.325  18.911  0.00  0.00    +0.000 A 
ATOM      3  N   UNL     1      -1.679  11.853  20.020  0.00  0.00    +0.000 NA
ATOM      4  C   UNL     1      -1.142  11.130  21.049  0.00  0.00    +0.000 A 
ATOM      5  C   UNL     1      -1.363  11.254  22.428  0.00  0.00    +0.000 A 
ATOM      6  C   UNL     1      -0.690  10.394  23.301  0.00  0.00    +0.000 A 
ATOM      7  C   UNL     1       0.188   9.427  22.809  0.00  0.00    +0.000 A 
ATOM      8  C   UNL     1       0.418   9.285  21.436  0.00  0.00    +0.000 A 
ATOM      9  C   UNL     1      -0.270  10.153  20.575  0.00  0.00    +0.000 A 
ENDROOT
BRANCH   1  10
ATOM     10  C   UNL     1       0.348   9.420  18.254  0.00  0.00    +0.000 C 
BRANCH  10  11
ATOM     11  C   UNL     1       1.853   9.624  18.112  0.00  0.00    +0.000 C 
BRANCH  11  12
ATOM     12  C   UNL     1       2.595   8.393  17.605  0.00  0.00    +0.000 C 
BRANCH  12  13
ATOM     13  O   UNL     1       2.357   7.360  18.561  0.00  0.00    +0.000 OA
BRANCH  13  20
ATOM     14  C   UNL     1       5.356   4.106  16.324  0.00  0.00    +0.000 C 
ATOM     15  C   UNL     1       4.120   4.437  17.105  0.00  0.00    +0.000 A 
ATOM     16  C   UNL     1       3.204   3.440  17.472  0.00  0.00    +0.000 A 
ATOM     17  C   UNL     1       2.040   3.766  18.180  0.00  0.00    +0.000 A 
ATOM     18  C   UNL     1       1.049   2.714  18.582  0.00  0.00    +0.000 C 
ATOM     19  C   UNL     1       1.804   5.100  18.522  0.00  0.00    +0.000 A 
ATOM     20  C   UNL     1       2.719   6.098  18.184  0.00  0.00    +0.000 A 
ATOM     21  C   UNL     1       3.868   5.769  17.468  0.00  0.00    +0.000 A 
ENDBRANCH  13  20
ENDBRANCH  12  13
ENDBRANCH  11  12
ENDBRANCH  10  11
ENDBRANCH   1  10
BRANCH   2  22
ATOM     22  C   UNL     1      -1.544  11.766  17.526  0.00  0.00    +0.000 C 
BRANCH  22  23
ATOM     23  C   UNL     1      -2.957  11.341  17.102  0.00  0.00    +0.000 C 
BRANCH  23  24
ATOM     24  N   UNL     1      -4.005  12.203  17.646  0.00  0.00    +0.000 N 
ATOM     25  C   UNL     1      -5.135  11.682  18.238  0.00  0.00    +0.000 C 
ATOM     26  O   UNL     1      -5.336  10.477  18.338  0.00  0.00    +0.000 OA
ATOM     27  H   UNL     1      -3.775  13.173  17.810  0.00  0.00    +0.000 HD
BRANCH  25  28
ATOM     28  C   UNL     1      -6.120  12.737  18.745  0.00  0.00    +0.000 C 
ATOM     29  C   UNL     1      -7.458  12.108  19.159  0.00  0.00    +0.000 C 
ATOM     30  C   UNL     1      -7.411  11.361  20.492  0.00  0.00    +0.000 C 
ATOM     31  C   UNL     1      -6.730  12.153  21.603  0.00  0.00    +0.000 C 
ATOM     32  C   UNL     1      -5.394  12.751  21.173  0.00  0.00    +0.000 C 
ATOM     33  C   UNL     1      -5.523  13.563  19.887  0.00  0.00    +0.000 C 
ENDBRANCH  25  28
ENDBRANCH  23  24
ENDBRANCH  22  23
ENDBRANCH   2  22
TORSDOF 9
ENDMDL
MODEL 4
REMARK VINA RESULT:      -7.7      2.067      4.656
REMARK  Name = 
REMARK  11 active torsions:
REMARK  status: ('A' for Active; 'I' for Inactive)
REMARK    1  A    between atoms: C_1  and  C_2
REMARK    2  A    between atoms: C_4  and  C_5
REMARK    3  A    between atoms: C_7  and  O_8
REMARK    4  A    between atoms: O_8  and  C_9
REMARK    5  A    between atoms: C_9  and  C_10
REMARK    6  A    between atoms: C_10  and  C_11
REMARK    7  A    between atoms: C_11  and  N_12
REMARK    8  A    between atoms: C_13  and  C_14
REMARK    9  A    between atoms: C_14  and  C_15
REMARK   10  A    between atoms: C_15  and  N_16
REMARK   11  A    between atoms: C_17  and  C_19
REMARK                            x       y       z     vdW  Elec       q    Type
REMARK                         _______ _______ _______ _____ _____    ______ ____
ROOT
ATOM      1  N   UNL     1       3.202   7.085  18.071  0.00  0.00    +0.000 N 
ATOM      2  C   UNL     1       3.118   6.642  19.381  0.00  0.00    +0.000 A 
ATOM      3  N   UNL     1       4.107   5.814  19.657  0.00  0.00    +0.000 NA
ATOM      4  C   UNL     1       4.829   5.687  18.502  0.00  0.00    +0.000 A 
ATOM      5  C   UNL     1       5.956   4.894  18.244  0.00  0.00    +0.000 A 
ATOM      6  C   UNL     1       6.534   4.933  16.970  0.00  0.00    +0.000 A 
ATOM      7  C   UNL     1       5.999   5.749  15.973  0.00  0.00    +0.000 A 
ATOM      8  C   UNL     1       4.873   6.545  16.210  0.00  0.00    +0.000 A 
ATOM      9  C   UNL     1       4.303   6.488  17.491  0.00  0.00    +0.000 A 
ENDROOT
BRANCH   1  10
ATOM     10  C   UNL     1       2.261   7.946  17.378  0.00  0.00    +0.000 C 
BRANCH  10  11
ATOM     11  C   UNL     1       2.174   9.383  17.881  0.00  0.00    +0.000 C 
BRANCH  11  12
ATOM     12  C   UNL     1       0.755   9.839  18.196  0.00  0.00    +0.000 C 
BRANCH  12  13
ATOM     13  O   UNL     1       0.875  11.100  18.854  0.00  0.00    +0.000 OA
BRANCH  13  20
ATOM     14  C   UNL     1      -0.068   9.414  23.421  0.00  0.00    +0.000 C 
ATOM     15  C   UNL     1      -0.224  10.437  22.336  0.00  0.00    +0.000 A 
ATOM     16  C   UNL     1      -1.036  11.568  22.515  0.00  0.00    +0.000 A 
ATOM     17  C   UNL     1      -1.194  12.502  21.484  0.00  0.00    +0.000 A 
ATOM     18  C   UNL     1      -2.057  13.717  21.656  0.00  0.00    +0.000 C 
ATOM     19  C   UNL     1      -0.529  12.297  20.272  0.00  0.00    +0.000 A 
ATOM     20  C   UNL     1       0.300  11.190  20.090  0.00  0.00    +0.000 A 
ATOM     21  C   UNL     1       0.443  10.257  21.115  0.00  0.00    +0.000 A 
ENDBRANCH  13  20
ENDBRANCH  12  13
ENDBRANCH  11  12
ENDBRANCH  10  11
ENDBRANCH   1  10
BRANCH   2  22
ATOM     22  C   UNL     1       2.040   7.042  20.336  0.00  0.00    +0.000 C 
BRANCH  22  23
ATOM     23  C   UNL     1       1.483   5.858  21.138  0.00  0.00    +0.000 C 
BRANCH  23  24
ATOM     24  N   UNL     1       1.322   4.645  20.338  0.00  0.00    +0.000 N 
ATOM     25  C   UNL     1       1.666   3.404  20.829  0.00  0.00    +0.000 C 
ATOM     26  O   UNL     1       2.132   3.241  21.951  0.00  0.00    +0.000 OA
ATOM     27  H   UNL     1       0.724   4.696  19.525  0.00  0.00    +0.000 HD
BRANCH  25  28
ATOM     28  C   UNL     1       1.430   2.254  19.848  0.00  0.00    +0.000 C 
ATOM     29  C   UNL     1       0.767   2.744  18.553  0.00  0.00    +0.000 C 
ATOM     30  C   UNL     1       1.712   3.491  17.610  0.00  0.00    +0.000 C 
ATOM     31  C   UNL     1       3.038   2.771  17.393  0.00  0.00    +0.000 C 
ATOM     32  C   UNL     1       3.687   2.312  18.695  0.00  0.00    +0.000 C 
ATOM     33  C   UNL     1       2.724   1.492  19.551  0.00  0.00    +0.000 C 
ENDBRANCH  25  28
ENDBRANCH  23  24
ENDBRANCH  22  23
ENDBRANCH   2  22
TORSDOF 9
ENDMDL
MODEL 5
REMARK VINA RESULT:      -7.5      2.876      5.231
REMARK  Name = 
REMARK  11 active torsions:
REMARK  status: ('A' for Active; 'I' for Inactive)
REMARK    1  A    between atoms: C_1  and  C_2
REMARK    2  A    between atoms: C_4  and  C_5
REMARK    3  A    between atoms: C_7  and  O_8
REMARK    4  A    between atoms: O_8  and  C_9
REMARK    5  A    between atoms: C_9  and  C_10
REMARK    6  A    between atoms: C_10  and  C_11
REMARK    7  A    between atoms: C_11  and  N_12
REMARK    8  A    between atoms: C_13  and  C_14
REMARK    9  A    between atoms: C_14  and  C_15
REMARK   10  A    between atoms: C_15  and  N_16
REMARK   11  A    between atoms: C_17  and  C_19
REMARK                            x       y       z     vdW  Elec       q    Type
REMARK                         _______ _______ _______ _____ _____    ______ ____
ROOT
ATOM      1  N   UNL     1       0.346   9.799  19.124  0.00  0.00    +0.000 N 
ATOM      2  C   UNL     1       1.314   8.814  19.014  0.00  0.00    +0.000 A 
ATOM      3  N   UNL     1       1.632   8.338  20.203  0.00  0.00    +0.000 NA
ATOM      4  C   UNL     1       0.885   9.044  21.106  0.00  0.00    +0.000 A 
ATOM      5  C   UNL     1       0.873   8.959  22.505  0.00  0.00    +0.000 A 
ATOM      6  C   UNL     1       0.011   9.790  23.227  0.00  0.00    +0.000 A 
ATOM      7  C   UNL     1      -0.826  10.690  22.565  0.00  0.00    +0.000 A 
ATOM      8  C   UNL     1      -0.826  10.792  21.169  0.00  0.00    +0.000 A 
ATOM      9  C   UNL     1       0.050   9.955  20.463  0.00  0.00    +0.000 A 
ENDROOT
BRANCH   1  10
ATOM     10  C   UNL     1      -0.206  10.604  18.051  0.00  0.00    +0.000 C 
BRANCH  10  11
ATOM     11  C   UNL     1      -1.589  10.198  17.552  0.00  0.00    +0.000 C 
BRANCH  11  12
ATOM     12  C   UNL     1      -2.627  11.309  17.645  0.00  0.00    +0.000 C 
BRANCH  12  13
ATOM     13  O   UNL     1      -3.842  10.766  17.127  0.00  0.00    +0.000 OA
BRANCH  13  20
ATOM     14  C   UNL     1      -7.562  10.748  20.405  0.00  0.00    +0.000 C 
ATOM     15  C   UNL     1      -6.861  11.325  19.213  0.00  0.00    +0.000 A 
ATOM     16  C   UNL     1      -7.391  12.423  18.518  0.00  0.00    +0.000 A 
ATOM     17  C   UNL     1      -6.739  12.936  17.390  0.00  0.00    +0.000 A 
ATOM     18  C   UNL     1      -7.289  14.109  16.635  0.00  0.00    +0.000 C 
ATOM     19  C   UNL     1      -5.548  12.341  16.964  0.00  0.00    +0.000 A 
ATOM     20  C   UNL     1      -4.998  11.264  17.660  0.00  0.00    +0.000 A 
ATOM     21  C   UNL     1      -5.658  10.750  18.774  0.00  0.00    +0.000 A 
ENDBRANCH  13  20
ENDBRANCH  12  13
ENDBRANCH  11  12
ENDBRANCH  10  11
ENDBRANCH   1  10
BRANCH   2  22
ATOM     22  C   UNL     1       1.920   8.372  17.721  0.00  0.00    +0.000 C 
BRANCH  22  23
ATOM     23  C   UNL     1       3.360   7.863  17.880  0.00  0.00    +0.000 C 
BRANCH  23  24
ATOM     24  N   UNL     1       3.496   6.431  17.624  0.00  0.00    +0.000 N 
ATOM     25  C   UNL     1       3.544   5.514  18.652  0.00  0.00    +0.000 C 
ATOM     26  O   UNL     1       3.484   5.838  19.833  0.00  0.00    +0.000 OA
ATOM     27  H   UNL     1       3.300   6.101  16.689  0.00  0.00    +0.000 HD
BRANCH  25  28
ATOM     28  C   UNL     1       3.691   4.063  18.191  0.00  0.00    +0.000 C 
ATOM     29  C   UNL     1       3.971   3.121  19.371  0.00  0.00    +0.000 C 
ATOM     30  C   UNL     1       2.748   2.830  20.242  0.00  0.00    +0.000 C 
ATOM     31  C   UNL     1       1.509   2.459  19.434  0.00  0.00    +0.000 C 
ATOM     32  C   UNL     1       1.241   3.420  18.281  0.00  0.00    +0.000 C 
ATOM     33  C   UNL     1       2.470   3.599  17.392  0.00  0.00    +0.000 C 
ENDBRANCH  25  28
ENDBRANCH  23  24
ENDBRANCH  22  23
ENDBRANCH   2  22
TORSDOF 9
ENDMDL
MODEL 6
REMARK VINA RESULT:      -7.5      1.850      4.328
REMARK  Name = 
REMARK  11 active torsions:
REMARK  status: ('A' for Active; 'I' for Inactive)
REMARK    1  A    between atoms: C_1  and  C_2
REMARK    2  A    between atoms: C_4  and  C_5
REMARK    3  A    between atoms: C_7  and  O_8
REMARK    4  A    between atoms: O_8  and  C_9
REMARK    5  A    between atoms: C_9  and  C_10
REMARK    6  A    between atoms: C_10  and  C_11
REMARK    7  A    between atoms: C_11  and  N_12
REMARK    8  A    between atoms: C_13  and  C_14
REMARK    9  A    between atoms: C_14  and  C_15
REMARK   10  A    between atoms: C_15  and  N_16
REMARK   11  A    between atoms: C_17  and  C_19
REMARK                            x       y       z     vdW  Elec       q    Type
REMARK                         _______ _______ _______ _____ _____    ______ ____
ROOT
ATOM      1  N   UNL     1       3.198   7.236  18.107  0.00  0.00    +0.000 N 
ATOM      2  C   UNL     1       3.050   6.675  19.365  0.00  0.00    +0.000 A 
ATOM      3  N   UNL     1       3.925   5.705  19.548  0.00  0.00    +0.000 NA
ATOM      4  C   UNL     1       4.633   5.607  18.382  0.00  0.00    +0.000 A 
ATOM      5  C   UNL     1       5.652   4.709  18.036  0.00  0.00    +0.000 A 
ATOM      6  C   UNL     1       6.239   4.805  16.770  0.00  0.00    +0.000 A 
ATOM      7  C   UNL     1       5.818   5.780  15.865  0.00  0.00    +0.000 A 
ATOM      8  C   UNL     1       4.799   6.683  16.190  0.00  0.00    +0.000 A 
ATOM      9  C   UNL     1       4.218   6.568  17.462  0.00  0.00    +0.000 A 
ENDROOT
BRANCH   1  10
ATOM     10  C   UNL     1       2.378   8.275  17.512  0.00  0.00    +0.000 C 
BRANCH  10  11
ATOM     11  C   UNL     1       2.568   9.681  18.074  0.00  0.00    +0.000 C 
BRANCH  11  12
ATOM     12  C   UNL     1       1.321  10.551  17.986  0.00  0.00    +0.000 C 
BRANCH  12  13
ATOM     13  O   UNL     1       0.214   9.694  18.267  0.00  0.00    +0.000 OA
BRANCH  13  20
ATOM     14  C   UNL     1      -3.794  10.379  15.430  0.00  0.00    +0.000 C 
ATOM     15  C   UNL     1      -3.019  10.610  16.692  0.00  0.00    +0.000 A 
ATOM     16  C   UNL     1      -3.517  11.438  17.709  0.00  0.00    +0.000 A 
ATOM     17  C   UNL     1      -2.771  11.667  18.872  0.00  0.00    +0.000 A 
ATOM     18  C   UNL     1      -3.286  12.548  19.971  0.00  0.00    +0.000 C 
ATOM     19  C   UNL     1      -1.521  11.056  19.009  0.00  0.00    +0.000 A 
ATOM     20  C   UNL     1      -1.025  10.212  18.016  0.00  0.00    +0.000 A 
ATOM     21  C   UNL     1      -1.767   9.998  16.856  0.00  0.00    +0.000 A 
ENDBRANCH  13  20
ENDBRANCH  12  13
ENDBRANCH  11  12
ENDBRANCH  10  11
ENDBRANCH   1  10
BRANCH   2  22
ATOM     22  C   UNL     1       2.025   7.108  20.363  0.00  0.00    +0.000 C 
BRANCH  22  23
ATOM     23  C   UNL     1       1.504   5.949  21.225  0.00  0.00    +0.000 C 
BRANCH  23  24
ATOM     24  N   UNL     1       1.217   4.741  20.454  0.00  0.00    +0.000 N 
ATOM     25  C   UNL     1       1.581   3.491  20.905  0.00  0.00    +0.000 C 
ATOM     26  O   UNL     1       2.170   3.315  21.967  0.00  0.00    +0.000 OA
ATOM     27  H   UNL     1       0.529   4.809  19.716  0.00  0.00    +0.000 HD
BRANCH  25  28
ATOM     28  C   UNL     1       1.200   2.348  19.963  0.00  0.00    +0.000 C 
ATOM     29  C   UNL     1       0.626   2.874  18.640  0.00  0.00    +0.000 C 
ATOM     30  C   UNL     1       1.676   3.448  17.687  0.00  0.00    +0.000 C 
ATOM     31  C   UNL     1       2.892   2.545  17.518  0.00  0.00    +0.000 C 
ATOM     32  C   UNL     1       3.456   2.052  18.847  0.00  0.00    +0.000 C 
ATOM     33  C   UNL     1       2.380   1.405  19.716  0.00  0.00    +0.000 C 
ENDBRANCH  25  28
ENDBRANCH  23  24
ENDBRANCH  22  23
ENDBRANCH   2  22
TORSDOF 9
ENDMDL
MODEL 7
REMARK VINA RESULT:      -7.5      1.316      2.595
REMARK  Name = 
REMARK  11 active torsions:
REMARK  status: ('A' for Active; 'I' for Inactive)
REMARK    1  A    between atoms: C_1  and  C_2
REMARK    2  A    between atoms: C_4  and  C_5
REMARK    3  A    between atoms: C_7  and  O_8
REMARK    4  A    between atoms: O_8  and  C_9
REMARK    5  A    between atoms: C_9  and  C_10
REMARK    6  A    between atoms: C_10  and  C_11
REMARK    7  A    between atoms: C_11  and  N_12
REMARK    8  A    between atoms: C_13  and  C_14
REMARK    9  A    between atoms: C_14  and  C_15
REMARK   10  A    between atoms: C_15  and  N_16
REMARK   11  A    between atoms: C_17  and  C_19
REMARK                            x       y       z     vdW  Elec       q    Type
REMARK                         _______ _______ _______ _____ _____    ______ ____
ROOT
ATOM      1  N   UNL     1       1.982   6.277  19.858  0.00  0.00    +0.000 N 
ATOM      2  C   UNL     1       2.019   6.491  18.491  0.00  0.00    +0.000 A 
ATOM      3  N   UNL     1       1.914   5.350  17.836  0.00  0.00    +0.000 NA
ATOM      4  C   UNL     1       1.840   4.372  18.790  0.00  0.00    +0.000 A 
ATOM      5  C   UNL     1       1.758   2.982  18.628  0.00  0.00    +0.000 A 
ATOM      6  C   UNL     1       1.686   2.172  19.766  0.00  0.00    +0.000 A 
ATOM      7  C   UNL     1       1.695   2.737  21.042  0.00  0.00    +0.000 A 
ATOM      8  C   UNL     1       1.780   4.122  21.223  0.00  0.00    +0.000 A 
ATOM      9  C   UNL     1       1.857   4.919  20.071  0.00  0.00    +0.000 A 
ENDROOT
BRANCH   1  10
ATOM     10  C   UNL     1       2.140   7.271  20.904  0.00  0.00    +0.000 C 
BRANCH  10  11
ATOM     11  C   UNL     1       0.913   8.126  21.204  0.00  0.00    +0.000 C 
BRANCH  11  12
ATOM     12  C   UNL     1       1.100   9.077  22.379  0.00  0.00    +0.000 C 
BRANCH  12  13
ATOM     13  O   UNL     1       1.198  10.388  21.822  0.00  0.00    +0.000 OA
BRANCH  13  20
ATOM     14  C   UNL     1      -3.023  12.433  23.431  0.00  0.00    +0.000 C 
ATOM     15  C   UNL     1      -2.073  12.065  22.331  0.00  0.00    +0.000 A 
ATOM     16  C   UNL     1      -2.370  12.349  20.990  0.00  0.00    +0.000 A 
ATOM     17  C   UNL     1      -1.486  11.977  19.969  0.00  0.00    +0.000 A 
ATOM     18  C   UNL     1      -1.784  12.273  18.529  0.00  0.00    +0.000 C 
ATOM     19  C   UNL     1      -0.299  11.319  20.304  0.00  0.00    +0.000 A 
ATOM     20  C   UNL     1       0.019  11.051  21.636  0.00  0.00    +0.000 A 
ATOM     21  C   UNL     1      -0.871  11.413  22.645  0.00  0.00    +0.000 A 
ENDBRANCH  13  20
ENDBRANCH  12  13
ENDBRANCH  11  12
ENDBRANCH  10  11
ENDBRANCH   1  10
BRANCH   2  22
ATOM     22  C   UNL     1       2.176   7.835  17.855  0.00  0.00    +0.000 C 
BRANCH  22  23
ATOM     23  C   UNL     1       3.594   8.083  17.322  0.00  0.00    +0.000 C 
BRANCH  23  24
ATOM     24  N   UNL     1       4.468   6.918  17.446  0.00  0.00    +0.000 N 
ATOM     25  C   UNL     1       5.151   6.407  16.364  0.00  0.00    +0.000 C 
ATOM     26  O   UNL     1       5.063   6.887  15.238  0.00  0.00    +0.000 OA
ATOM     27  H   UNL     1       4.763   6.650  18.375  0.00  0.00    +0.000 HD
BRANCH  25  28
ATOM     28  C   UNL     1       6.013   5.186  16.686  0.00  0.00    +0.000 C 
ATOM     29  C   UNL     1       7.467   5.583  16.982  0.00  0.00    +0.000 C 
ATOM     30  C   UNL     1       7.672   6.220  18.357  0.00  0.00    +0.000 C 
ATOM     31  C   UNL     1       7.000   5.447  19.486  0.00  0.00    +0.000 C 
ATOM     32  C   UNL     1       5.552   5.082  19.176  0.00  0.00    +0.000 C 
ATOM     33  C   UNL     1       5.421   4.365  17.834  0.00  0.00    +0.000 C 
ENDBRANCH  25  28
ENDBRANCH  23  24
ENDBRANCH  22  23
ENDBRANCH   2  22
TORSDOF 9
ENDMDL
MODEL 8
REMARK VINA RESULT:      -7.5      1.992      7.421
REMARK  Name = 
REMARK  11 active torsions:
REMARK  status: ('A' for Active; 'I' for Inactive)
REMARK    1  A    between atoms: C_1  and  C_2
REMARK    2  A    between atoms: C_4  and  C_5
REMARK    3  A    between atoms: C_7  and  O_8
REMARK    4  A    between atoms: O_8  and  C_9
REMARK    5  A    between atoms: C_9  and  C_10
REMARK    6  A    between atoms: C_10  and  C_11
REMARK    7  A    between atoms: C_11  and  N_12
REMARK    8  A    between atoms: C_13  and  C_14
REMARK    9  A    between atoms: C_14  and  C_15
REMARK   10  A    between atoms: C_15  and  N_16
REMARK   11  A    between atoms: C_17  and  C_19
REMARK                            x       y       z     vdW  Elec       q    Type
REMARK                         _______ _______ _______ _____ _____    ______ ____
ROOT
ATOM      1  N   UNL     1       0.781   9.222  19.458  0.00  0.00    +0.000 N 
ATOM      2  C   UNL     1       1.240   8.533  20.569  0.00  0.00    +0.000 A 
ATOM      3  N   UNL     1       0.885   9.151  21.680  0.00  0.00    +0.000 NA
ATOM      4  C   UNL     1       0.212  10.276  21.290  0.00  0.00    +0.000 A 
ATOM      5  C   UNL     1      -0.339  11.296  22.077  0.00  0.00    +0.000 A 
ATOM      6  C   UNL     1      -0.993  12.360  21.446  0.00  0.00    +0.000 A 
ATOM      7  C   UNL     1      -1.096  12.405  20.056  0.00  0.00    +0.000 A 
ATOM      8  C   UNL     1      -0.548  11.398  19.252  0.00  0.00    +0.000 A 
ATOM      9  C   UNL     1       0.109  10.343  19.902  0.00  0.00    +0.000 A 
ENDROOT
BRANCH   1  10
ATOM     10  C   UNL     1       1.030   8.899  18.066  0.00  0.00    +0.000 C 
BRANCH  10  11
ATOM     11  C   UNL     1       2.481   8.990  17.606  0.00  0.00    +0.000 C 
BRANCH  11  12
ATOM     12  C   UNL     1       3.274   7.707  17.816  0.00  0.00    +0.000 C 
BRANCH  12  13
ATOM     13  O   UNL     1       3.872   7.394  16.558  0.00  0.00    +0.000 OA
BRANCH  13  20
ATOM     14  C   UNL     1       7.858   5.452  18.777  0.00  0.00    +0.000 C 
ATOM     15  C   UNL     1       6.938   5.581  17.601  0.00  0.00    +0.000 A 
ATOM     16  C   UNL     1       7.175   4.877  16.411  0.00  0.00    +0.000 A 
ATOM     17  C   UNL     1       6.322   5.026  15.311  0.00  0.00    +0.000 A 
ATOM     18  C   UNL     1       6.559   4.281  14.031  0.00  0.00    +0.000 C 
ATOM     19  C   UNL     1       5.225   5.886  15.413  0.00  0.00    +0.000 A 
ATOM     20  C   UNL     1       4.964   6.574  16.599  0.00  0.00    +0.000 A 
ATOM     21  C   UNL     1       5.824   6.431  17.685  0.00  0.00    +0.000 A 
ENDBRANCH  13  20
ENDBRANCH  12  13
ENDBRANCH  11  12
ENDBRANCH  10  11
ENDBRANCH   1  10
BRANCH   2  22
ATOM     22  C   UNL     1       2.042   7.274  20.505  0.00  0.00    +0.000 C 
BRANCH  22  23
ATOM     23  C   UNL     1       1.292   6.059  21.069  0.00  0.00    +0.000 C 
BRANCH  23  24
ATOM     24  N   UNL     1       1.475   4.847  20.272  0.00  0.00    +0.000 N 
ATOM     25  C   UNL     1       1.896   3.664  20.840  0.00  0.00    +0.000 C 
ATOM     26  O   UNL     1       2.151   3.556  22.035  0.00  0.00    +0.000 OA
ATOM     27  H   UNL     1       1.047   4.820  19.357  0.00  0.00    +0.000 HD
BRANCH  25  28
ATOM     28  C   UNL     1       2.032   2.507  19.850  0.00  0.00    +0.000 C 
ATOM     29  C   UNL     1       1.269   2.786  18.547  0.00  0.00    +0.000 C 
ATOM     30  C   UNL     1       1.956   3.793  17.623  0.00  0.00    +0.000 C 
ATOM     31  C   UNL     1       3.441   3.510  17.422  0.00  0.00    +0.000 C 
ATOM     32  C   UNL     1       4.180   3.256  18.732  0.00  0.00    +0.000 C 
ATOM     33  C   UNL     1       3.500   2.175  19.568  0.00  0.00    +0.000 C 
ENDBRANCH  25  28
ENDBRANCH  23  24
ENDBRANCH  22  23
ENDBRANCH   2  22
TORSDOF 9
ENDMDL
MODEL 9
REMARK VINA RESULT:      -7.5      2.011      7.286
REMARK  Name = 
REMARK  11 active torsions:
REMARK  status: ('A' for Active; 'I' for Inactive)
REMARK    1  A    between atoms: C_1  and  C_2
REMARK    2  A    between atoms: C_4  and  C_5
REMARK    3  A    between atoms: C_7  and  O_8
REMARK    4  A    between atoms: O_8  and  C_9
REMARK    5  A    between atoms: C_9  and  C_10
REMARK    6  A    between atoms: C_10  and  C_11
REMARK    7  A    between atoms: C_11  and  N_12
REMARK    8  A    between atoms: C_13  and  C_14
REMARK    9  A    between atoms: C_14  and  C_15
REMARK   10  A    between atoms: C_15  and  N_16
REMARK   11  A    between atoms: C_17  and  C_19
REMARK                            x       y       z     vdW  Elec       q    Type
REMARK                         _______ _______ _______ _____ _____    ______ ____
ROOT
ATOM      1  N   UNL     1       1.047   9.258  19.513  0.00  0.00    +0.000 N 
ATOM      2  C   UNL     1       1.284   8.403  20.576  0.00  0.00    +0.000 A 
ATOM      3  N   UNL     1       0.721   8.861  21.678  0.00  0.00    +0.000 NA
ATOM      4  C   UNL     1       0.134  10.049  21.338  0.00  0.00    +0.000 A 
ATOM      5  C   UNL     1      -0.560  10.958  22.148  0.00  0.00    +0.000 A 
ATOM      6  C   UNL     1      -1.083  12.119  21.570  0.00  0.00    +0.000 A 
ATOM      7  C   UNL     1      -0.916  12.369  20.207  0.00  0.00    +0.000 A 
ATOM      8  C   UNL     1      -0.222  11.476  19.383  0.00  0.00    +0.000 A 
ATOM      9  C   UNL     1       0.299  10.320  19.982  0.00  0.00    +0.000 A 
ENDROOT
BRANCH   1  10
ATOM     10  C   UNL     1       1.559   9.135  18.161  0.00  0.00    +0.000 C 
BRANCH  10  11
ATOM     11  C   UNL     1       2.179   7.789  17.800  0.00  0.00    +0.000 C 
BRANCH  11  12
ATOM     12  C   UNL     1       3.701   7.810  17.740  0.00  0.00    +0.000 C 
BRANCH  12  13
ATOM     13  O   UNL     1       4.054   7.430  16.410  0.00  0.00    +0.000 OA
BRANCH  13  20
ATOM     14  C   UNL     1       6.531   3.873  14.002  0.00  0.00    +0.000 C 
ATOM     15  C   UNL     1       6.322   4.754  15.196  0.00  0.00    +0.000 A 
ATOM     16  C   UNL     1       7.144   4.652  16.328  0.00  0.00    +0.000 A 
ATOM     17  C   UNL     1       6.921   5.462  17.448  0.00  0.00    +0.000 A 
ATOM     18  C   UNL     1       7.790   5.369  18.667  0.00  0.00    +0.000 C 
ATOM     19  C   UNL     1       5.868   6.381  17.424  0.00  0.00    +0.000 A 
ATOM     20  C   UNL     1       5.057   6.509  16.295  0.00  0.00    +0.000 A 
ATOM     21  C   UNL     1       5.276   5.690  15.189  0.00  0.00    +0.000 A 
ENDBRANCH  13  20
ENDBRANCH  12  13
ENDBRANCH  11  12
ENDBRANCH  10  11
ENDBRANCH   1  10
BRANCH   2  22
ATOM     22  C   UNL     1       2.086   7.145  20.480  0.00  0.00    +0.000 C 
BRANCH  22  23
ATOM     23  C   UNL     1       1.348   5.922  21.042  0.00  0.00    +0.000 C 
BRANCH  23  24
ATOM     24  N   UNL     1       1.520   4.721  20.228  0.00  0.00    +0.000 N 
ATOM     25  C   UNL     1       1.986   3.541  20.767  0.00  0.00    +0.000 C 
ATOM     26  O   UNL     1       2.291   3.428  21.950  0.00  0.00    +0.000 OA
ATOM     27  H   UNL     1       1.056   4.693  19.330  0.00  0.00    +0.000 HD
BRANCH  25  28
ATOM     28  C   UNL     1       2.103   2.395  19.762  0.00  0.00    +0.000 C 
ATOM     29  C   UNL     1       1.318   2.688  18.476  0.00  0.00    +0.000 C 
ATOM     30  C   UNL     1       1.990   3.704  17.552  0.00  0.00    +0.000 C 
ATOM     31  C   UNL     1       3.470   3.422  17.322  0.00  0.00    +0.000 C 
ATOM     32  C   UNL     1       4.233   3.153  18.616  0.00  0.00    +0.000 C 
ATOM     33  C   UNL     1       3.566   2.064  19.452  0.00  0.00    +0.000 C 
ENDBRANCH  25  28
ENDBRANCH  23  24
ENDBRANCH  22  23
ENDBRANCH   2  22
TORSDOF 9
ENDMDL
