MODEL 1
REMARK VINA RESULT:      -5.5      0.000      0.000
REMARK  Name = 
REMARK  18 active torsions:
REMARK  status: ('A' for Active; 'I' for Inactive)
REMARK    1  A    between atoms: C_1  and  C_2
REMARK    2  A    between atoms: C_2  and  C_3
REMARK    3  A    between atoms: C_3  and  C_4
REMARK    4  A    between atoms: C_4  and  C_5
REMARK    5  A    between atoms: C_5  and  C_6
REMARK    6  A    between atoms: C_6  and  C_7
REMARK    7  A    between atoms: C_7  and  C_8
REMARK    8  A    between atoms: C_8  and  C_9
REMARK    9  A    between atoms: C_9  and  C_10
REMARK   10  A    between atoms: C_10  and  C_11
REMARK   11  A    between atoms: C_11  and  C_12
REMARK   12  A    between atoms: C_12  and  C_13
REMARK   13  A    between atoms: C_13  and  C_14
REMARK   14  A    between atoms: C_14  and  C_15
REMARK   15  A    between atoms: C_15  and  C_16
REMARK   16  A    between atoms: C_16  and  C_17
REMARK   17  A    between atoms: C_17  and  O_19
REMARK   18  A    between atoms: O_19  and  C_20
REMARK                            x       y       z     vdW  Elec       q    Type
REMARK                         _______ _______ _______ _____ _____    ______ ____
ROOT
ATOM      1  C   UNL     1       3.748   3.944  17.110  0.00  0.00    +0.000 C 
ENDROOT
BRANCH   1   2
ATOM      2  C   UNL     1       2.562   3.009  17.256  0.00  0.00    +0.000 C 
BRANCH   2   3
ATOM      3  C   UNL     1       2.805   2.044  18.400  0.00  0.00    +0.000 C 
BRANCH   3   4
ATOM      4  C   UNL     1       1.648   2.102  19.378  0.00  0.00    +0.000 C 
BRANCH   4   5
ATOM      5  C   UNL     1       1.907   3.173  20.421  0.00  0.00    +0.000 C 
BRANCH   5   6
ATOM      6  C   UNL     1       1.335   4.497  19.953  0.00  0.00    +0.000 C 
BRANCH   6   7
ATOM      7  C   UNL     1       1.660   5.584  20.960  0.00  0.00    +0.000 C 
BRANCH   7   8
ATOM      8  C   UNL     1       2.122   6.835  20.239  0.00  0.00    +0.000 C 
BRANCH   8   9
ATOM      9  C   UNL     1       2.199   6.572  18.746  0.00  0.00    +0.000 C 
BRANCH   9  10
ATOM     10  C   UNL     1       2.601   7.841  18.017  0.00  0.00    +0.000 C 
BRANCH  10  12
ATOM     11  C   UNL     1       1.993  10.251  17.925  0.00  0.00    +0.000 C 
ATOM     12  C   UNL     1       1.455   8.838  18.027  0.00  0.00    +0.000 C 
ENDBRANCH  10  12
ENDBRANCH   9  10
ENDBRANCH   8   9
ENDBRANCH   7   8
ENDBRANCH   6   7
ENDBRANCH   5   6
ENDBRANCH   4   5
ENDBRANCH   3   4
ENDBRANCH   2   3
ENDBRANCH   1   2
BRANCH   1  13
ATOM     13  C   UNL     1       4.870   3.509  18.034  0.00  0.00    +0.000 C 
BRANCH  13  14
ATOM     14  C   UNL     1       4.991   4.482  19.198  0.00  0.00    +0.000 C 
BRANCH  14  15
ATOM     15  C   UNL     1       5.820   5.685  18.784  0.00  0.00    +0.000 C 
BRANCH  15  16
ATOM     16  C   UNL     1       6.956   5.288  17.863  0.00  0.00    +0.000 C 
BRANCH  16  17
ATOM     17  C   UNL     1       7.256   6.443  16.917  0.00  0.00    +0.000 C 
ATOM     18  O   UNL     1       7.134   7.608  17.232  0.00  0.00    +0.000 OA
BRANCH  17  19
ATOM     19  O   UNL     1       7.613   5.960  15.658  0.00  0.00    +0.000 OA
BRANCH  19  20
ATOM     20  C   UNL     1       6.836   4.803  15.223  0.00  0.00    +0.000 C 
ATOM     21  C   UNL     1       5.435   5.220  14.699  0.00  0.00    +0.000 C 
ATOM     22  C   UNL     1       5.466   4.036  13.726  0.00  0.00    +0.000 C 
ATOM     23  C   UNL     1       7.019   4.133  13.805  0.00  0.00    +0.000 C 
ENDBRANCH  19  20
ENDBRANCH  17  19
ENDBRANCH  16  17
ENDBRANCH  15  16
ENDBRANCH  14  15
ENDBRANCH  13  14
ENDBRANCH   1  13
TORSDOF 17
ENDMDL
MODEL 2
REMARK VINA RESULT:      -5.4      2.441      6.214
REMARK  Name = 
REMARK  18 active torsions:
REMARK  status: ('A' for Active; 'I' for Inactive)
REMARK    1  A    between atoms: C_1  and  C_2
REMARK    2  A    between atoms: C_2  and  C_3
REMARK    3  A    between atoms: C_3  and  C_4
REMARK    4  A    between atoms: C_4  and  C_5
REMARK    5  A    between atoms: C_5  and  C_6
REMARK    6  A    between atoms: C_6  and  C_7
REMARK    7  A    between atoms: C_7  and  C_8
REMARK    8  A    between atoms: C_8  and  C_9
REMARK    9  A    between atoms: C_9  and  C_10
REMARK   10  A    between atoms: C_10  and  C_11
REMARK   11  A    between atoms: C_11  and  C_12
REMARK   12  A    between atoms: C_12  and  C_13
REMARK   13  A    between atoms: C_13  and  C_14
REMARK   14  A    between atoms: C_14  and  C_15
REMARK   15  A    between atoms: C_15  and  C_16
REMARK   16  A    between atoms: C_16  and  C_17
REMARK   17  A    between atoms: C_17  and  O_19
REMARK   18  A    between atoms: O_19  and  C_20
REMARK                            x       y       z     vdW  Elec       q    Type
REMARK                         _______ _______ _______ _____ _____    ______ ____
ROOT
ATOM      1  C   UNL     1       1.321   4.569  19.427  0.00  0.00    +0.000 C 
ENDROOT
BRANCH   1   2
ATOM      2  C   UNL     1       0.895   3.180  19.865  0.00  0.00    +0.000 C 
BRANCH   2   3
ATOM      3  C   UNL     1       1.138   2.188  18.744  0.00  0.00    +0.000 C 
BRANCH   3   4
ATOM      4  C   UNL     1       2.133   2.762  17.754  0.00  0.00    +0.000 C 
BRANCH   4   5
ATOM      5  C   UNL     1       3.511   2.184  18.013  0.00  0.00    +0.000 C 
BRANCH   5   6
ATOM      6  C   UNL     1       4.543   3.294  18.022  0.00  0.00    +0.000 C 
BRANCH   6   7
ATOM      7  C   UNL     1       4.186   4.339  16.981  0.00  0.00    +0.000 C 
BRANCH   7   8
ATOM      8  C   UNL     1       5.138   4.242  15.805  0.00  0.00    +0.000 C 
BRANCH   8   9
ATOM      9  C   UNL     1       5.881   5.554  15.632  0.00  0.00    +0.000 C 
BRANCH   9  10
ATOM     10  C   UNL     1       5.503   6.514  16.745  0.00  0.00    +0.000 C 
BRANCH  10  12
ATOM     11  C   UNL     1       7.461   6.193  18.245  0.00  0.00    +0.000 C 
ATOM     12  C   UNL     1       6.749   7.163  17.324  0.00  0.00    +0.000 C 
ENDBRANCH  10  12
ENDBRANCH   9  10
ENDBRANCH   8   9
ENDBRANCH   7   8
ENDBRANCH   6   7
ENDBRANCH   5   6
ENDBRANCH   4   5
ENDBRANCH   3   4
ENDBRANCH   2   3
ENDBRANCH   1   2
BRANCH   1  13
ATOM     13  C   UNL     1       2.219   5.193  20.478  0.00  0.00    +0.000 C 
BRANCH  13  14
ATOM     14  C   UNL     1       3.069   6.288  19.853  0.00  0.00    +0.000 C 
BRANCH  14  15
ATOM     15  C   UNL     1       2.196   7.476  19.485  0.00  0.00    +0.000 C 
BRANCH  15  16
ATOM     16  C   UNL     1       2.310   7.816  18.013  0.00  0.00    +0.000 C 
BRANCH  16  17
ATOM     17  C   UNL     1       1.852   9.252  17.798  0.00  0.00    +0.000 C 
ATOM     18  O   UNL     1       2.618  10.174  17.613  0.00  0.00    +0.000 OA
BRANCH  17  19
ATOM     19  O   UNL     1       0.464   9.341  17.914  0.00  0.00    +0.000 OA
BRANCH  19  20
ATOM     20  C   UNL     1       0.001  10.544  18.599  0.00  0.00    +0.000 C 
ATOM     21  C   UNL     1      -1.447  10.919  18.180  0.00  0.00    +0.000 C 
ATOM     22  C   UNL     1      -1.680  11.503  19.579  0.00  0.00    +0.000 C 
ATOM     23  C   UNL     1      -0.573  10.525  20.070  0.00  0.00    +0.000 C 
ENDBRANCH  19  20
ENDBRANCH  17  19
ENDBRANCH  16  17
ENDBRANCH  15  16
ENDBRANCH  14  15
ENDBRANCH  13  14
ENDBRANCH   1  13
TORSDOF 17
ENDMDL
MODEL 3
REMARK VINA RESULT:      -5.4      2.213      4.159
REMARK  Name = 
REMARK  18 active torsions:
REMARK  status: ('A' for Active; 'I' for Inactive)
REMARK    1  A    between atoms: C_1  and  C_2
REMARK    2  A    between atoms: C_2  and  C_3
REMARK    3  A    between atoms: C_3  and  C_4
REMARK    4  A    between atoms: C_4  and  C_5
REMARK    5  A    between atoms: C_5  and  C_6
REMARK    6  A    between atoms: C_6  and  C_7
REMARK    7  A    between atoms: C_7  and  C_8
REMARK    8  A    between atoms: C_8  and  C_9
REMARK    9  A    between atoms: C_9  and  C_10
REMARK   10  A    between atoms: C_10  and  C_11
REMARK   11  A    between atoms: C_11  and  C_12
REMARK   12  A    between atoms: C_12  and  C_13
REMARK   13  A    between atoms: C_13  and  C_14
REMARK   14  A    between atoms: C_14  and  C_15
REMARK   15  A    between atoms: C_15  and  C_16
REMARK   16  A    between atoms: C_16  and  C_17
REMARK   17  A    between atoms: C_17  and  O_19
REMARK   18  A    between atoms: O_19  and  C_20
REMARK                            x       y       z     vdW  Elec       q    Type
REMARK                         _______ _______ _______ _____ _____    ______ ____
ROOT
ATOM      1  C   UNL     1       4.284   6.109  18.011  0.00  0.00    +0.000 C 
ENDROOT
BRANCH   1   2
ATOM      2  C   UNL     1       5.141   5.437  19.067  0.00  0.00    +0.000 C 
BRANCH   2   3
ATOM      3  C   UNL     1       4.268   4.609  19.989  0.00  0.00    +0.000 C 
BRANCH   3   4
ATOM      4  C   UNL     1       4.578   3.136  19.809  0.00  0.00    +0.000 C 
BRANCH   4   5
ATOM      5  C   UNL     1       4.635   2.798  18.331  0.00  0.00    +0.000 C 
BRANCH   5   6
ATOM      6  C   UNL     1       3.845   1.533  18.061  0.00  0.00    +0.000 C 
BRANCH   6   7
ATOM      7  C   UNL     1       2.390   1.877  17.807  0.00  0.00    +0.000 C 
BRANCH   7   8
ATOM      8  C   UNL     1       2.285   3.261  17.198  0.00  0.00    +0.000 C 
BRANCH   8   9
ATOM      9  C   UNL     1       1.238   4.074  17.938  0.00  0.00    +0.000 C 
BRANCH   9  10
ATOM     10  C   UNL     1       0.643   3.249  19.065  0.00  0.00    +0.000 C 
BRANCH  10  12
ATOM     11  C   UNL     1       1.277   2.838  21.434  0.00  0.00    +0.000 C 
ATOM     12  C   UNL     1       0.943   3.898  20.406  0.00  0.00    +0.000 C 
ENDBRANCH  10  12
ENDBRANCH   9  10
ENDBRANCH   8   9
ENDBRANCH   7   8
ENDBRANCH   6   7
ENDBRANCH   5   6
ENDBRANCH   4   5
ENDBRANCH   3   4
ENDBRANCH   2   3
ENDBRANCH   1   2
BRANCH   1  13
ATOM     13  C   UNL     1       5.138   7.026  17.155  0.00  0.00    +0.000 C 
BRANCH  13  14
ATOM     14  C   UNL     1       5.047   6.609  15.695  0.00  0.00    +0.000 C 
BRANCH  14  15
ATOM     15  C   UNL     1       5.432   5.148  15.548  0.00  0.00    +0.000 C 
BRANCH  15  16
ATOM     16  C   UNL     1       6.924   4.984  15.338  0.00  0.00    +0.000 C 
BRANCH  16  17
ATOM     17  C   UNL     1       7.190   4.696  13.867  0.00  0.00    +0.000 C 
ATOM     18  O   UNL     1       7.780   5.463  13.136  0.00  0.00    +0.000 OA
BRANCH  17  19
ATOM     19  O   UNL     1       6.604   3.485  13.496  0.00  0.00    +0.000 OA
BRANCH  19  20
ATOM     20  C   UNL     1       5.962   3.513  12.185  0.00  0.00    +0.000 C 
ATOM     21  C   UNL     1       5.805   2.084  11.595  0.00  0.00    +0.000 C 
ATOM     22  C   UNL     1       4.526   2.540  10.881  0.00  0.00    +0.000 C 
ATOM     23  C   UNL     1       4.398   3.616  11.999  0.00  0.00    +0.000 C 
ENDBRANCH  19  20
ENDBRANCH  17  19
ENDBRANCH  16  17
ENDBRANCH  15  16
ENDBRANCH  14  15
ENDBRANCH  13  14
ENDBRANCH   1  13
TORSDOF 17
ENDMDL
MODEL 4
REMARK VINA RESULT:      -5.2      2.509      4.702
REMARK  Name = 
REMARK  18 active torsions:
REMARK  status: ('A' for Active; 'I' for Inactive)
REMARK    1  A    between atoms: C_1  and  C_2
REMARK    2  A    between atoms: C_2  and  C_3
REMARK    3  A    between atoms: C_3  and  C_4
REMARK    4  A    between atoms: C_4  and  C_5
REMARK    5  A    between atoms: C_5  and  C_6
REMARK    6  A    between atoms: C_6  and  C_7
REMARK    7  A    between atoms: C_7  and  C_8
REMARK    8  A    between atoms: C_8  and  C_9
REMARK    9  A    between atoms: C_9  and  C_10
REMARK   10  A    between atoms: C_10  and  C_11
REMARK   11  A    between atoms: C_11  and  C_12
REMARK   12  A    between atoms: C_12  and  C_13
REMARK   13  A    between atoms: C_13  and  C_14
REMARK   14  A    between atoms: C_14  and  C_15
REMARK   15  A    between atoms: C_15  and  C_16
REMARK   16  A    between atoms: C_16  and  C_17
REMARK   17  A    between atoms: C_17  and  O_19
REMARK   18  A    between atoms: O_19  and  C_20
REMARK                            x       y       z     vdW  Elec       q    Type
REMARK                         _______ _______ _______ _____ _____    ______ ____
ROOT
ATOM      1  C   UNL     1       1.970   4.360  20.561  0.00  0.00    +0.000 C 
ENDROOT
BRANCH   1   2
ATOM      2  C   UNL     1       1.499   5.793  20.721  0.00  0.00    +0.000 C 
BRANCH   2   3
ATOM      3  C   UNL     1       2.458   6.733  20.016  0.00  0.00    +0.000 C 
BRANCH   3   4
ATOM      4  C   UNL     1       2.108   6.818  18.544  0.00  0.00    +0.000 C 
BRANCH   4   5
ATOM      5  C   UNL     1       2.697   8.082  17.946  0.00  0.00    +0.000 C 
BRANCH   5   6
ATOM      6  C   UNL     1       1.590   9.069  17.632  0.00  0.00    +0.000 C 
BRANCH   6   7
ATOM      7  C   UNL     1       0.996   9.605  18.920  0.00  0.00    +0.000 C 
BRANCH   7   8
ATOM      8  C   UNL     1       0.103  10.793  18.622  0.00  0.00    +0.000 C 
BRANCH   8   9
ATOM      9  C   UNL     1      -1.354  10.393  18.762  0.00  0.00    +0.000 C 
BRANCH   9  10
ATOM     10  C   UNL     1      -1.879   9.875  17.435  0.00  0.00    +0.000 C 
BRANCH  10  12
ATOM     11  C   UNL     1      -2.864  10.547  15.253  0.00  0.00    +0.000 C 
ATOM     12  C   UNL     1      -2.563  10.994  16.669  0.00  0.00    +0.000 C 
ENDBRANCH  10  12
ENDBRANCH   9  10
ENDBRANCH   8   9
ENDBRANCH   7   8
ENDBRANCH   6   7
ENDBRANCH   5   6
ENDBRANCH   4   5
ENDBRANCH   3   4
ENDBRANCH   2   3
ENDBRANCH   1   2
BRANCH   1  13
ATOM     13  C   UNL     1       0.842   3.498  20.025  0.00  0.00    +0.000 C 
BRANCH  13  14
ATOM     14  C   UNL     1       1.363   2.109  19.690  0.00  0.00    +0.000 C 
BRANCH  14  15
ATOM     15  C   UNL     1       2.879   2.132  19.595  0.00  0.00    +0.000 C 
BRANCH  15  16
ATOM     16  C   UNL     1       3.354   1.795  18.196  0.00  0.00    +0.000 C 
BRANCH  16  17
ATOM     17  C   UNL     1       3.400   3.070  17.367  0.00  0.00    +0.000 C 
ATOM     18  O   UNL     1       2.432   3.526  16.794  0.00  0.00    +0.000 OA
BRANCH  17  19
ATOM     19  O   UNL     1       4.702   3.571  17.318  0.00  0.00    +0.000 OA
BRANCH  19  20
ATOM     20  C   UNL     1       4.779   5.028  17.349  0.00  0.00    +0.000 C 
ATOM     21  C   UNL     1       6.134   5.516  17.932  0.00  0.00    +0.000 C 
ATOM     22  C   UNL     1       6.055   6.754  17.029  0.00  0.00    +0.000 C 
ATOM     23  C   UNL     1       5.165   5.893  16.086  0.00  0.00    +0.000 C 
ENDBRANCH  19  20
ENDBRANCH  17  19
ENDBRANCH  16  17
ENDBRANCH  15  16
ENDBRANCH  14  15
ENDBRANCH  13  14
ENDBRANCH   1  13
TORSDOF 17
ENDMDL
MODEL 5
REMARK VINA RESULT:      -5.2      2.552      4.620
REMARK  Name = 
REMARK  18 active torsions:
REMARK  status: ('A' for Active; 'I' for Inactive)
REMARK    1  A    between atoms: C_1  and  C_2
REMARK    2  A    between atoms: C_2  and  C_3
REMARK    3  A    between atoms: C_3  and  C_4
REMARK    4  A    between atoms: C_4  and  C_5
REMARK    5  A    between atoms: C_5  and  C_6
REMARK    6  A    between atoms: C_6  and  C_7
REMARK    7  A    between atoms: C_7  and  C_8
REMARK    8  A    between atoms: C_8  and  C_9
REMARK    9  A    between atoms: C_9  and  C_10
REMARK   10  A    between atoms: C_10  and  C_11
REMARK   11  A    between atoms: C_11  and  C_12
REMARK   12  A    between atoms: C_12  and  C_13
REMARK   13  A    between atoms: C_13  and  C_14
REMARK   14  A    between atoms: C_14  and  C_15
REMARK   15  A    between atoms: C_15  and  C_16
REMARK   16  A    between atoms: C_16  and  C_17
REMARK   17  A    between atoms: C_17  and  O_19
REMARK   18  A    between atoms: O_19  and  C_20
REMARK                            x       y       z     vdW  Elec       q    Type
REMARK                         _______ _______ _______ _____ _____    ______ ____
ROOT
ATOM      1  C   UNL     1       1.963   4.379  20.749  0.00  0.00    +0.000 C 
ENDROOT
BRANCH   1   2
ATOM      2  C   UNL     1       1.694   5.233  19.525  0.00  0.00    +0.000 C 
BRANCH   2   3
ATOM      3  C   UNL     1       2.663   6.399  19.486  0.00  0.00    +0.000 C 
BRANCH   3   4
ATOM      4  C   UNL     1       2.666   7.021  18.103  0.00  0.00    +0.000 C 
BRANCH   4   5
ATOM      5  C   UNL     1       1.838   8.292  18.108  0.00  0.00    +0.000 C 
BRANCH   5   6
ATOM      6  C   UNL     1       1.488   8.674  19.533  0.00  0.00    +0.000 C 
BRANCH   6   7
ATOM      7  C   UNL     1       0.552   9.868  19.532  0.00  0.00    +0.000 C 
BRANCH   7   8
ATOM      8  C   UNL     1       0.093  10.163  18.118  0.00  0.00    +0.000 C 
BRANCH   8   9
ATOM      9  C   UNL     1      -1.332  10.685  18.136  0.00  0.00    +0.000 C 
BRANCH   9  10
ATOM     10  C   UNL     1      -2.214   9.816  17.257  0.00  0.00    +0.000 C 
BRANCH  10  12
ATOM     11  C   UNL     1      -4.347  11.095  17.255  0.00  0.00    +0.000 C 
ATOM     12  C   UNL     1      -3.146  10.684  16.428  0.00  0.00    +0.000 C 
ENDBRANCH  10  12
ENDBRANCH   9  10
ENDBRANCH   8   9
ENDBRANCH   7   8
ENDBRANCH   6   7
ENDBRANCH   5   6
ENDBRANCH   4   5
ENDBRANCH   3   4
ENDBRANCH   2   3
ENDBRANCH   1   2
BRANCH   1  13
ATOM     13  C   UNL     1       1.404   2.983  20.542  0.00  0.00    +0.000 C 
BRANCH  13  14
ATOM     14  C   UNL     1       1.510   2.593  19.076  0.00  0.00    +0.000 C 
BRANCH  14  15
ATOM     15  C   UNL     1       2.896   2.044  18.785  0.00  0.00    +0.000 C 
BRANCH  15  16
ATOM     16  C   UNL     1       3.599   2.851  17.711  0.00  0.00    +0.000 C 
BRANCH  16  17
ATOM     17  C   UNL     1       4.815   3.534  18.320  0.00  0.00    +0.000 C 
ATOM     18  O   UNL     1       5.149   3.388  19.477  0.00  0.00    +0.000 OA
BRANCH  17  19
ATOM     19  O   UNL     1       5.419   4.376  17.384  0.00  0.00    +0.000 OA
BRANCH  19  20
ATOM     20  C   UNL     1       6.018   5.574  17.964  0.00  0.00    +0.000 C 
ATOM     21  C   UNL     1       7.568   5.546  17.857  0.00  0.00    +0.000 C 
ATOM     22  C   UNL     1       7.569   7.076  17.746  0.00  0.00    +0.000 C 
ATOM     23  C   UNL     1       6.124   6.942  17.182  0.00  0.00    +0.000 C 
ENDBRANCH  19  20
ENDBRANCH  17  19
ENDBRANCH  16  17
ENDBRANCH  15  16
ENDBRANCH  14  15
ENDBRANCH  13  14
ENDBRANCH   1  13
TORSDOF 17
ENDMDL
MODEL 6
REMARK VINA RESULT:      -5.2      4.548      6.912
REMARK  Name = 
REMARK  18 active torsions:
REMARK  status: ('A' for Active; 'I' for Inactive)
REMARK    1  A    between atoms: C_1  and  C_2
REMARK    2  A    between atoms: C_2  and  C_3
REMARK    3  A    between atoms: C_3  and  C_4
REMARK    4  A    between atoms: C_4  and  C_5
REMARK    5  A    between atoms: C_5  and  C_6
REMARK    6  A    between atoms: C_6  and  C_7
REMARK    7  A    between atoms: C_7  and  C_8
REMARK    8  A    between atoms: C_8  and  C_9
REMARK    9  A    between atoms: C_9  and  C_10
REMARK   10  A    between atoms: C_10  and  C_11
REMARK   11  A    between atoms: C_11  and  C_12
REMARK   12  A    between atoms: C_12  and  C_13
REMARK   13  A    between atoms: C_13  and  C_14
REMARK   14  A    between atoms: C_14  and  C_15
REMARK   15  A    between atoms: C_15  and  C_16
REMARK   16  A    between atoms: C_16  and  C_17
REMARK   17  A    between atoms: C_17  and  O_19
REMARK   18  A    between atoms: O_19  and  C_20
REMARK                            x       y       z     vdW  Elec       q    Type
REMARK                         _______ _______ _______ _____ _____    ______ ____
ROOT
ATOM      1  C   UNL     1       7.728   6.979  17.441  0.00  0.00    +0.000 C 
ENDROOT
BRANCH   1   2
ATOM      2  C   UNL     1       6.421   6.407  16.925  0.00  0.00    +0.000 C 
BRANCH   2   3
ATOM      3  C   UNL     1       6.701   5.358  15.865  0.00  0.00    +0.000 C 
BRANCH   3   4
ATOM      4  C   UNL     1       5.954   4.080  16.194  0.00  0.00    +0.000 C 
BRANCH   4   5
ATOM      5  C   UNL     1       4.603   4.413  16.797  0.00  0.00    +0.000 C 
BRANCH   5   6
ATOM      6  C   UNL     1       4.241   3.386  17.851  0.00  0.00    +0.000 C 
BRANCH   6   7
ATOM      7  C   UNL     1       4.519   3.944  19.233  0.00  0.00    +0.000 C 
BRANCH   7   8
ATOM      8  C   UNL     1       3.845   5.293  19.391  0.00  0.00    +0.000 C 
BRANCH   8   9
ATOM      9  C   UNL     1       2.359   5.103  19.633  0.00  0.00    +0.000 C 
BRANCH   9  10
ATOM     10  C   UNL     1       2.119   4.669  21.068  0.00  0.00    +0.000 C 
BRANCH  10  12
ATOM     11  C   UNL     1       0.899   2.961  19.734  0.00  0.00    +0.000 C 
ATOM     12  C   UNL     1       1.465   3.298  21.099  0.00  0.00    +0.000 C 
ENDBRANCH  10  12
ENDBRANCH   9  10
ENDBRANCH   8   9
ENDBRANCH   7   8
ENDBRANCH   6   7
ENDBRANCH   5   6
ENDBRANCH   4   5
ENDBRANCH   3   4
ENDBRANCH   2   3
ENDBRANCH   1   2
BRANCH   1  13
ATOM     13  C   UNL     1       7.624   8.488  17.558  0.00  0.00    +0.000 C 
BRANCH  13  14
ATOM     14  C   UNL     1       8.603   8.997  18.604  0.00  0.00    +0.000 C 
BRANCH  14  15
ATOM     15  C   UNL     1       9.045  10.409  18.259  0.00  0.00    +0.000 C 
BRANCH  15  16
ATOM     16  C   UNL     1      10.119  10.904  19.206  0.00  0.00    +0.000 C 
BRANCH  16  17
ATOM     17  C   UNL     1      10.998  11.911  18.478  0.00  0.00    +0.000 C 
ATOM     18  O   UNL     1      12.192  12.009  18.665  0.00  0.00    +0.000 OA
BRANCH  17  19
ATOM     19  O   UNL     1      10.223  12.718  17.643  0.00  0.00    +0.000 OA
BRANCH  19  20
ATOM     20  C   UNL     1       9.837  13.992  18.241  0.00  0.00    +0.000 C 
ATOM     21  C   UNL     1       8.293  14.121  18.365  0.00  0.00    +0.000 C 
ATOM     22  C   UNL     1       8.484  14.976  19.624  0.00  0.00    +0.000 C 
ATOM     23  C   UNL     1       9.848  14.245  19.800  0.00  0.00    +0.000 C 
ENDBRANCH  19  20
ENDBRANCH  17  19
ENDBRANCH  16  17
ENDBRANCH  15  16
ENDBRANCH  14  15
ENDBRANCH  13  14
ENDBRANCH   1  13
TORSDOF 17
ENDMDL
MODEL 7
REMARK VINA RESULT:      -5.1      2.054      3.093
REMARK  Name = 
REMARK  18 active torsions:
REMARK  status: ('A' for Active; 'I' for Inactive)
REMARK    1  A    between atoms: C_1  and  C_2
REMARK    2  A    between atoms: C_2  and  C_3
REMARK    3  A    between atoms: C_3  and  C_4
REMARK    4  A    between atoms: C_4  and  C_5
REMARK    5  A    between atoms: C_5  and  C_6
REMARK    6  A    between atoms: C_6  and  C_7
REMARK    7  A    between atoms: C_7  and  C_8
REMARK    8  A    between atoms: C_8  and  C_9
REMARK    9  A    between atoms: C_9  and  C_10
REMARK   10  A    between atoms: C_10  and  C_11
REMARK   11  A    between atoms: C_11  and  C_12
REMARK   12  A    between atoms: C_12  and  C_13
REMARK   13  A    between atoms: C_13  and  C_14
REMARK   14  A    between atoms: C_14  and  C_15
REMARK   15  A    between atoms: C_15  and  C_16
REMARK   16  A    between atoms: C_16  and  C_17
REMARK   17  A    between atoms: C_17  and  O_19
REMARK   18  A    between atoms: O_19  and  C_20
REMARK                            x       y       z     vdW  Elec       q    Type
REMARK                         _______ _______ _______ _____ _____    ______ ____
ROOT
ATOM      1  C   UNL     1       2.718   4.214  18.551  0.00  0.00    +0.000 C 
ENDROOT
BRANCH   1   2
ATOM      2  C   UNL     1       1.824   3.763  19.691  0.00  0.00    +0.000 C 
BRANCH   2   3
ATOM      3  C   UNL     1       1.161   4.967  20.333  0.00  0.00    +0.000 C 
BRANCH   3   4
ATOM      4  C   UNL     1       2.196   6.039  20.609  0.00  0.00    +0.000 C 
BRANCH   4   5
ATOM      5  C   UNL     1       1.676   7.389  20.152  0.00  0.00    +0.000 C 
BRANCH   5   6
ATOM      6  C   UNL     1       1.234   8.204  21.351  0.00  0.00    +0.000 C 
BRANCH   6   7
ATOM      7  C   UNL     1       0.966   9.637  20.931  0.00  0.00    +0.000 C 
BRANCH   7   8
ATOM      8  C   UNL     1       0.571   9.680  19.468  0.00  0.00    +0.000 C 
BRANCH   8   9
ATOM      9  C   UNL     1      -0.840  10.224  19.330  0.00  0.00    +0.000 C 
BRANCH   9  10
ATOM     10  C   UNL     1      -1.221  10.311  17.863  0.00  0.00    +0.000 C 
BRANCH  10  12
ATOM     11  C   UNL     1      -3.031   9.933  16.201  0.00  0.00    +0.000 C 
ATOM     12  C   UNL     1      -2.665   9.881  17.670  0.00  0.00    +0.000 C 
ENDBRANCH  10  12
ENDBRANCH   9  10
ENDBRANCH   8   9
ENDBRANCH   7   8
ENDBRANCH   6   7
ENDBRANCH   5   6
ENDBRANCH   4   5
ENDBRANCH   3   4
ENDBRANCH   2   3
ENDBRANCH   1   2
BRANCH   1  13
ATOM     13  C   UNL     1       3.917   3.291  18.436  0.00  0.00    +0.000 C 
BRANCH  13  14
ATOM     14  C   UNL     1       5.110   3.896  19.160  0.00  0.00    +0.000 C 
BRANCH  14  15
ATOM     15  C   UNL     1       5.319   5.331  18.706  0.00  0.00    +0.000 C 
BRANCH  15  16
ATOM     16  C   UNL     1       6.791   5.688  18.651  0.00  0.00    +0.000 C 
BRANCH  16  17
ATOM     17  C   UNL     1       7.369   5.209  17.327  0.00  0.00    +0.000 C 
ATOM     18  O   UNL     1       8.111   4.254  17.232  0.00  0.00    +0.000 OA
BRANCH  17  19
ATOM     19  O   UNL     1       6.975   6.057  16.290  0.00  0.00    +0.000 OA
BRANCH  19  20
ATOM     20  C   UNL     1       6.192   5.398  15.249  0.00  0.00    +0.000 C 
ATOM     21  C   UNL     1       7.080   4.981  14.044  0.00  0.00    +0.000 C 
ATOM     22  C   UNL     1       6.153   3.784  13.799  0.00  0.00    +0.000 C 
ATOM     23  C   UNL     1       5.796   3.871  15.313  0.00  0.00    +0.000 C 
ENDBRANCH  19  20
ENDBRANCH  17  19
ENDBRANCH  16  17
ENDBRANCH  15  16
ENDBRANCH  14  15
ENDBRANCH  13  14
ENDBRANCH   1  13
TORSDOF 17
ENDMDL
MODEL 8
REMARK VINA RESULT:      -5.1      1.786      2.349
REMARK  Name = 
REMARK  18 active torsions:
REMARK  status: ('A' for Active; 'I' for Inactive)
REMARK    1  A    between atoms: C_1  and  C_2
REMARK    2  A    between atoms: C_2  and  C_3
REMARK    3  A    between atoms: C_3  and  C_4
REMARK    4  A    between atoms: C_4  and  C_5
REMARK    5  A    between atoms: C_5  and  C_6
REMARK    6  A    between atoms: C_6  and  C_7
REMARK    7  A    between atoms: C_7  and  C_8
REMARK    8  A    between atoms: C_8  and  C_9
REMARK    9  A    between atoms: C_9  and  C_10
REMARK   10  A    between atoms: C_10  and  C_11
REMARK   11  A    between atoms: C_11  and  C_12
REMARK   12  A    between atoms: C_12  and  C_13
REMARK   13  A    between atoms: C_13  and  C_14
REMARK   14  A    between atoms: C_14  and  C_15
REMARK   15  A    between atoms: C_15  and  C_16
REMARK   16  A    between atoms: C_16  and  C_17
REMARK   17  A    between atoms: C_17  and  O_19
REMARK   18  A    between atoms: O_19  and  C_20
REMARK                            x       y       z     vdW  Elec       q    Type
REMARK                         _______ _______ _______ _____ _____    ______ ____
ROOT
ATOM      1  C   UNL     1       3.644   3.179  17.501  0.00  0.00    +0.000 C 
ENDROOT
BRANCH   1   2
ATOM      2  C   UNL     1       3.027   2.804  18.836  0.00  0.00    +0.000 C 
BRANCH   2   3
ATOM      3  C   UNL     1       1.711   3.535  19.020  0.00  0.00    +0.000 C 
BRANCH   3   4
ATOM      4  C   UNL     1       1.513   3.879  20.483  0.00  0.00    +0.000 C 
BRANCH   4   5
ATOM      5  C   UNL     1       1.111   5.335  20.622  0.00  0.00    +0.000 C 
BRANCH   5   6
ATOM      6  C   UNL     1       2.260   6.229  20.199  0.00  0.00    +0.000 C 
BRANCH   6   7
ATOM      7  C   UNL     1       1.788   7.667  20.108  0.00  0.00    +0.000 C 
BRANCH   7   8
ATOM      8  C   UNL     1       1.315   8.144  21.467  0.00  0.00    +0.000 C 
BRANCH   8   9
ATOM      9  C   UNL     1      -0.105   8.667  21.366  0.00  0.00    +0.000 C 
BRANCH   9  10
ATOM     10  C   UNL     1      -0.131  10.157  21.657  0.00  0.00    +0.000 C 
BRANCH  10  12
ATOM     11  C   UNL     1      -0.836  10.916  19.396  0.00  0.00    +0.000 C 
ATOM     12  C   UNL     1       0.280  10.940  20.421  0.00  0.00    +0.000 C 
ENDBRANCH  10  12
ENDBRANCH   9  10
ENDBRANCH   8   9
ENDBRANCH   7   8
ENDBRANCH   6   7
ENDBRANCH   5   6
ENDBRANCH   4   5
ENDBRANCH   3   4
ENDBRANCH   2   3
ENDBRANCH   1   2
BRANCH   1  13
ATOM     13  C   UNL     1       3.565   4.680  17.296  0.00  0.00    +0.000 C 
BRANCH  13  14
ATOM     14  C   UNL     1       4.740   5.360  17.981  0.00  0.00    +0.000 C 
BRANCH  14  15
ATOM     15  C   UNL     1       5.257   6.498  17.117  0.00  0.00    +0.000 C 
BRANCH  15  16
ATOM     16  C   UNL     1       6.771   6.557  17.122  0.00  0.00    +0.000 C 
BRANCH  16  17
ATOM     17  C   UNL     1       7.315   5.416  16.274  0.00  0.00    +0.000 C 
ATOM     18  O   UNL     1       7.935   4.481  16.736  0.00  0.00    +0.000 OA
BRANCH  17  19
ATOM     19  O   UNL     1       7.054   5.648  14.923  0.00  0.00    +0.000 OA
BRANCH  19  20
ATOM     20  C   UNL     1       6.976   4.434  14.116  0.00  0.00    +0.000 C 
ATOM     21  C   UNL     1       5.505   3.983  13.902  0.00  0.00    +0.000 C 
ATOM     22  C   UNL     1       5.899   3.409  12.536  0.00  0.00    +0.000 C 
ATOM     23  C   UNL     1       7.060   4.447  12.539  0.00  0.00    +0.000 C 
ENDBRANCH  19  20
ENDBRANCH  17  19
ENDBRANCH  16  17
ENDBRANCH  15  16
ENDBRANCH  14  15
ENDBRANCH  13  14
ENDBRANCH   1  13
TORSDOF 17
ENDMDL
MODEL 9
REMARK VINA RESULT:      -5.1      3.228      7.262
REMARK  Name = 
REMARK  18 active torsions:
REMARK  status: ('A' for Active; 'I' for Inactive)
REMARK    1  A    between atoms: C_1  and  C_2
REMARK    2  A    between atoms: C_2  and  C_3
REMARK    3  A    between atoms: C_3  and  C_4
REMARK    4  A    between atoms: C_4  and  C_5
REMARK    5  A    between atoms: C_5  and  C_6
REMARK    6  A    between atoms: C_6  and  C_7
REMARK    7  A    between atoms: C_7  and  C_8
REMARK    8  A    between atoms: C_8  and  C_9
REMARK    9  A    between atoms: C_9  and  C_10
REMARK   10  A    between atoms: C_10  and  C_11
REMARK   11  A    between atoms: C_11  and  C_12
REMARK   12  A    between atoms: C_12  and  C_13
REMARK   13  A    between atoms: C_13  and  C_14
REMARK   14  A    between atoms: C_14  and  C_15
REMARK   15  A    between atoms: C_15  and  C_16
REMARK   16  A    between atoms: C_16  and  C_17
REMARK   17  A    between atoms: C_17  and  O_19
REMARK   18  A    between atoms: O_19  and  C_20
REMARK                            x       y       z     vdW  Elec       q    Type
REMARK                         _______ _______ _______ _____ _____    ______ ____
ROOT
ATOM      1  C   UNL     1       3.342   6.362  19.084  0.00  0.00    +0.000 C 
ENDROOT
BRANCH   1   2
ATOM      2  C   UNL     1       3.398   7.333  17.920  0.00  0.00    +0.000 C 
BRANCH   2   3
ATOM      3  C   UNL     1       4.390   6.840  16.884  0.00  0.00    +0.000 C 
BRANCH   3   4
ATOM      4  C   UNL     1       5.607   6.254  17.573  0.00  0.00    +0.000 C 
BRANCH   4   5
ATOM      5  C   UNL     1       6.047   4.991  16.859  0.00  0.00    +0.000 C 
BRANCH   5   6
ATOM      6  C   UNL     1       4.844   4.298  16.248  0.00  0.00    +0.000 C 
BRANCH   6   7
ATOM      7  C   UNL     1       4.288   3.276  17.221  0.00  0.00    +0.000 C 
BRANCH   7   8
ATOM      8  C   UNL     1       2.772   3.313  17.199  0.00  0.00    +0.000 C 
BRANCH   8   9
ATOM      9  C   UNL     1       2.217   2.304  18.187  0.00  0.00    +0.000 C 
BRANCH   9  10
ATOM     10  C   UNL     1       2.864   2.498  19.546  0.00  0.00    +0.000 C 
BRANCH  10  12
ATOM     11  C   UNL     1       0.730   3.517  20.316  0.00  0.00    +0.000 C 
ATOM     12  C   UNL     1       1.805   2.499  20.636  0.00  0.00    +0.000 C 
ENDBRANCH  10  12
ENDBRANCH   9  10
ENDBRANCH   8   9
ENDBRANCH   7   8
ENDBRANCH   6   7
ENDBRANCH   5   6
ENDBRANCH   4   5
ENDBRANCH   3   4
ENDBRANCH   2   3
ENDBRANCH   1   2
BRANCH   1  13
ATOM     13  C   UNL     1       2.090   6.605  19.905  0.00  0.00    +0.000 C 
BRANCH  13  14
ATOM     14  C   UNL     1       1.814   8.098  20.002  0.00  0.00    +0.000 C 
BRANCH  14  15
ATOM     15  C   UNL     1       1.001   8.395  21.250  0.00  0.00    +0.000 C 
BRANCH  15  16
ATOM     16  C   UNL     1      -0.110   9.386  20.968  0.00  0.00    +0.000 C 
BRANCH  16  17
ATOM     17  C   UNL     1       0.504  10.705  20.519  0.00  0.00    +0.000 C 
ATOM     18  O   UNL     1       1.260  11.355  21.210  0.00  0.00    +0.000 OA
BRANCH  17  19
ATOM     19  O   UNL     1       0.019  11.063  19.260  0.00  0.00    +0.000 OA
BRANCH  19  20
ATOM     20  C   UNL     1      -1.209  10.374  18.879  0.00  0.00    +0.000 C 
ATOM     21  C   UNL     1      -2.365  11.374  18.605  0.00  0.00    +0.000 C 
ATOM     22  C   UNL     1      -2.937  10.402  17.565  0.00  0.00    +0.000 C 
ATOM     23  C   UNL     1      -1.484   9.863  17.410  0.00  0.00    +0.000 C 
ENDBRANCH  19  20
ENDBRANCH  17  19
ENDBRANCH  16  17
ENDBRANCH  15  16
ENDBRANCH  14  15
ENDBRANCH  13  14
ENDBRANCH   1  13
TORSDOF 17
ENDMDL
