MODEL 1
REMARK VINA RESULT:      -6.9      0.000      0.000
REMARK  Name = 
REMARK  4 active torsions:
REMARK  status: ('A' for Active; 'I' for Inactive)
REMARK    1  A    between atoms: C_1  and  C_2
REMARK    2  A    between atoms: C_5  and  C_6
REMARK    3  A    between atoms: C_8  and  C_9
REMARK    4  A    between atoms: C_12  and  C_13
REMARK                            x       y       z     vdW  Elec       q    Type
REMARK                         _______ _______ _______ _____ _____    ______ ____
ROOT
ATOM      1  C   UNL     1      -2.599  12.279  21.664  0.00  0.00    +0.000 A 
ATOM      2  C   UNL     1      -2.793  11.994  20.370  0.00  0.00    +0.000 A 
ATOM      3  C   UNL     1      -1.831  11.223  19.583  0.00  0.00    +0.000 A 
ATOM      4  C   UNL     1      -0.667  10.830  20.180  0.00  0.00    +0.000 A 
ATOM      5  N   UNL     1      -0.443  11.111  21.549  0.00  0.00    +0.000 N 
ATOM      6  C   UNL     1      -1.371  11.793  22.349  0.00  0.00    +0.000 A 
ATOM      7  O   UNL     1      -1.210  11.988  23.554  0.00  0.00    +0.000 OA
ATOM      8  C   UNL     1       0.807  10.696  22.201  0.00  0.00    +0.000 C 
ATOM      9  C   UNL     1       0.905   9.189  22.458  0.00  0.00    +0.000 C 
ATOM     10  C   UNL     1       0.454   8.309  21.293  0.00  0.00    +0.000 C 
ATOM     11  C   UNL     1       0.906   8.843  19.959  0.00  0.00    +0.000 A 
ATOM     12  C   UNL     1       1.885   8.155  19.227  0.00  0.00    +0.000 A 
ATOM     13  C   UNL     1       2.305   8.675  18.015  0.00  0.00    +0.000 A 
ATOM     14  N   UNL     1       1.856   9.836  17.509  0.00  0.00    +0.000 NA
ATOM     15  C   UNL     1       0.931  10.494  18.248  0.00  0.00    +0.000 A 
ATOM     16  C   UNL     1       0.380  10.046  19.450  0.00  0.00    +0.000 A 
ENDROOT
BRANCH   1  21
ATOM     17  C   UNL     1      -6.692  13.507  24.072  0.00  0.00    +0.000 C 
ATOM     18  C   UNL     1      -5.350  13.756  23.483  0.00  0.00    +0.000 A 
ATOM     19  C   UNL     1      -4.678  14.960  23.439  0.00  0.00    +0.000 A 
ATOM     20  S   UNL     1      -3.180  14.772  22.629  0.00  0.00    +0.000 S 
ATOM     21  C   UNL     1      -3.527  13.092  22.380  0.00  0.00    +0.000 A 
ATOM     22  N   UNL     1      -4.668  12.693  22.910  0.00  0.00    +0.000 NA
ENDBRANCH   1  21
BRANCH   3  23
ATOM     23  C   UNL     1      -2.168  10.892  18.166  0.00  0.00    +0.000 A 
ATOM     24  C   UNL     1      -2.073  11.867  17.164  0.00  0.00    +0.000 A 
ATOM     25  C   UNL     1      -2.475  11.583  15.847  0.00  0.00    +0.000 A 
ATOM     26  C   UNL     1      -2.954  10.315  15.504  0.00  0.00    +0.000 A 
ATOM     27  C   UNL     1      -2.983   9.318  16.483  0.00  0.00    +0.000 A 
ATOM     28  C   UNL     1      -2.586   9.602  17.800  0.00  0.00    +0.000 A 
BRANCH  26  29
ATOM     29  C   UNL     1      -3.429  10.045  14.172  0.00  0.00    +0.000 C 
ATOM     30  N   UNL     1      -3.828   9.835  13.099  0.00  0.00    +0.000 NA
ENDBRANCH  26  29
ENDBRANCH   3  23
TORSDOF 3
ENDMDL
MODEL 2
REMARK VINA RESULT:      -6.6      0.843      1.166
REMARK  Name = 
REMARK  4 active torsions:
REMARK  status: ('A' for Active; 'I' for Inactive)
REMARK    1  A    between atoms: C_1  and  C_2
REMARK    2  A    between atoms: C_5  and  C_6
REMARK    3  A    between atoms: C_8  and  C_9
REMARK    4  A    between atoms: C_12  and  C_13
REMARK                            x       y       z     vdW  Elec       q    Type
REMARK                         _______ _______ _______ _____ _____    ______ ____
ROOT
ATOM      1  C   UNL     1      -2.190  12.540  21.628  0.00  0.00    +0.000 A 
ATOM      2  C   UNL     1      -2.459  12.212  20.357  0.00  0.00    +0.000 A 
ATOM      3  C   UNL     1      -1.595  11.328  19.575  0.00  0.00    +0.000 A 
ATOM      4  C   UNL     1      -0.443  10.869  20.148  0.00  0.00    +0.000 A 
ATOM      5  N   UNL     1      -0.142  11.193  21.492  0.00  0.00    +0.000 N 
ATOM      6  C   UNL     1      -0.979  11.986  22.291  0.00  0.00    +0.000 A 
ATOM      7  O   UNL     1      -0.754  12.223  23.478  0.00  0.00    +0.000 OA
ATOM      8  C   UNL     1       1.096  10.706  22.118  0.00  0.00    +0.000 C 
ATOM      9  C   UNL     1       1.081   9.210  22.446  0.00  0.00    +0.000 C 
ATOM     10  C   UNL     1       0.513   8.317  21.343  0.00  0.00    +0.000 C 
ATOM     11  C   UNL     1       0.953   8.749  19.969  0.00  0.00    +0.000 A 
ATOM     12  C   UNL     1       1.841   7.949  19.237  0.00  0.00    +0.000 A 
ATOM     13  C   UNL     1       2.253   8.376  17.985  0.00  0.00    +0.000 A 
ATOM     14  N   UNL     1       1.880   9.546  17.440  0.00  0.00    +0.000 NA
ATOM     15  C   UNL     1       1.042  10.312  18.178  0.00  0.00    +0.000 A 
ATOM     16  C   UNL     1       0.506   9.967  19.420  0.00  0.00    +0.000 A 
ENDROOT
BRANCH   1  21
ATOM     17  C   UNL     1      -3.648  16.771  23.636  0.00  0.00    +0.000 C 
ATOM     18  C   UNL     1      -3.773  15.331  23.290  0.00  0.00    +0.000 A 
ATOM     19  C   UNL     1      -4.784  14.474  23.675  0.00  0.00    +0.000 A 
ATOM     20  S   UNL     1      -4.487  12.900  23.069  0.00  0.00    +0.000 S 
ATOM     21  C   UNL     1      -3.019  13.460  22.337  0.00  0.00    +0.000 A 
ATOM     22  N   UNL     1      -2.795  14.750  22.498  0.00  0.00    +0.000 NA
ENDBRANCH   1  21
BRANCH   3  23
ATOM     23  C   UNL     1      -2.015  10.961  18.190  0.00  0.00    +0.000 A 
ATOM     24  C   UNL     1      -1.937  11.897  17.150  0.00  0.00    +0.000 A 
ATOM     25  C   UNL     1      -2.415  11.582  15.865  0.00  0.00    +0.000 A 
ATOM     26  C   UNL     1      -2.955  10.321  15.593  0.00  0.00    +0.000 A 
ATOM     27  C   UNL     1      -2.969   9.361  16.608  0.00  0.00    +0.000 A 
ATOM     28  C   UNL     1      -2.495   9.676  17.892  0.00  0.00    +0.000 A 
BRANCH  26  29
ATOM     29  C   UNL     1      -3.506  10.023  14.297  0.00  0.00    +0.000 C 
ATOM     30  N   UNL     1      -3.953   9.800  13.245  0.00  0.00    +0.000 NA
ENDBRANCH  26  29
ENDBRANCH   3  23
TORSDOF 3
ENDMDL
MODEL 3
REMARK VINA RESULT:      -6.4      3.642      7.644
REMARK  Name = 
REMARK  4 active torsions:
REMARK  status: ('A' for Active; 'I' for Inactive)
REMARK    1  A    between atoms: C_1  and  C_2
REMARK    2  A    between atoms: C_5  and  C_6
REMARK    3  A    between atoms: C_8  and  C_9
REMARK    4  A    between atoms: C_12  and  C_13
REMARK                            x       y       z     vdW  Elec       q    Type
REMARK                         _______ _______ _______ _____ _____    ______ ____
ROOT
ATOM      1  C   UNL     1       0.211  11.449  20.667  0.00  0.00    +0.000 A 
ATOM      2  C   UNL     1      -0.989  11.529  21.258  0.00  0.00    +0.000 A 
ATOM      3  C   UNL     1      -1.592  12.806  21.641  0.00  0.00    +0.000 A 
ATOM      4  C   UNL     1      -0.876  13.951  21.438  0.00  0.00    +0.000 A 
ATOM      5  N   UNL     1       0.389  13.893  20.807  0.00  0.00    +0.000 N 
ATOM      6  C   UNL     1       0.970  12.694  20.370  0.00  0.00    +0.000 A 
ATOM      7  O   UNL     1       2.041  12.642  19.766  0.00  0.00    +0.000 OA
ATOM      8  C   UNL     1       1.170  15.119  20.585  0.00  0.00    +0.000 C 
ATOM      9  C   UNL     1       0.617  16.017  19.473  0.00  0.00    +0.000 C 
ATOM     10  C   UNL     1      -0.900  16.204  19.495  0.00  0.00    +0.000 C 
ATOM     11  C   UNL     1      -1.440  16.371  20.891  0.00  0.00    +0.000 A 
ATOM     12  C   UNL     1      -1.952  17.612  21.298  0.00  0.00    +0.000 A 
ATOM     13  C   UNL     1      -2.421  17.751  22.594  0.00  0.00    +0.000 A 
ATOM     14  N   UNL     1      -2.377  16.769  23.509  0.00  0.00    +0.000 NA
ATOM     15  C   UNL     1      -1.855  15.588  23.099  0.00  0.00    +0.000 A 
ATOM     16  C   UNL     1      -1.408  15.302  21.807  0.00  0.00    +0.000 A 
ENDROOT
BRANCH   1  21
ATOM     17  C   UNL     1       2.214   7.850  18.005  0.00  0.00    +0.000 C 
ATOM     18  C   UNL     1       1.710   8.481  19.252  0.00  0.00    +0.000 A 
ATOM     19  C   UNL     1       1.630   7.897  20.500  0.00  0.00    +0.000 A 
ATOM     20  S   UNL     1       0.950   8.995  21.624  0.00  0.00    +0.000 S 
ATOM     21  C   UNL     1       0.796  10.182  20.371  0.00  0.00    +0.000 A 
ATOM     22  N   UNL     1       1.267   9.794  19.201  0.00  0.00    +0.000 NA
ENDBRANCH   1  21
BRANCH   3  23
ATOM     23  C   UNL     1      -2.965  12.801  22.228  0.00  0.00    +0.000 A 
ATOM     24  C   UNL     1      -4.082  13.087  21.432  0.00  0.00    +0.000 A 
ATOM     25  C   UNL     1      -5.365  13.171  22.001  0.00  0.00    +0.000 A 
ATOM     26  C   UNL     1      -5.556  12.946  23.368  0.00  0.00    +0.000 A 
ATOM     27  C   UNL     1      -4.456  12.590  24.153  0.00  0.00    +0.000 A 
ATOM     28  C   UNL     1      -3.174  12.510  23.586  0.00  0.00    +0.000 A 
BRANCH  26  29
ATOM     29  C   UNL     1      -6.859  13.099  23.961  0.00  0.00    +0.000 C 
ATOM     30  N   UNL     1      -7.916  13.206  24.437  0.00  0.00    +0.000 NA
ENDBRANCH  26  29
ENDBRANCH   3  23
TORSDOF 3
ENDMDL
MODEL 4
REMARK VINA RESULT:      -6.3      1.103      1.299
REMARK  Name = 
REMARK  4 active torsions:
REMARK  status: ('A' for Active; 'I' for Inactive)
REMARK    1  A    between atoms: C_1  and  C_2
REMARK    2  A    between atoms: C_5  and  C_6
REMARK    3  A    between atoms: C_8  and  C_9
REMARK    4  A    between atoms: C_12  and  C_13
REMARK                            x       y       z     vdW  Elec       q    Type
REMARK                         _______ _______ _______ _____ _____    ______ ____
ROOT
ATOM      1  C   UNL     1      -3.358  12.727  21.498  0.00  0.00    +0.000 A 
ATOM      2  C   UNL     1      -3.397  12.348  20.214  0.00  0.00    +0.000 A 
ATOM      3  C   UNL     1      -2.365  11.504  19.613  0.00  0.00    +0.000 A 
ATOM      4  C   UNL     1      -1.294  11.139  20.378  0.00  0.00    +0.000 A 
ATOM      5  N   UNL     1      -1.235  11.519  21.740  0.00  0.00    +0.000 N 
ATOM      6  C   UNL     1      -2.238  12.274  22.366  0.00  0.00    +0.000 A 
ATOM      7  O   UNL     1      -2.222  12.556  23.564  0.00  0.00    +0.000 OA
ATOM      8  C   UNL     1      -0.086  11.134  22.573  0.00  0.00    +0.000 C 
ATOM      9  C   UNL     1      -0.060   9.649  22.950  0.00  0.00    +0.000 C 
ATOM     10  C   UNL     1      -0.385   8.691  21.804  0.00  0.00    +0.000 C 
ATOM     11  C   UNL     1       0.243   9.115  20.502  0.00  0.00    +0.000 A 
ATOM     12  C   UNL     1       1.287   8.358  19.951  0.00  0.00    +0.000 A 
ATOM     13  C   UNL     1       1.868   8.779  18.767  0.00  0.00    +0.000 A 
ATOM     14  N   UNL     1       1.514   9.906  18.126  0.00  0.00    +0.000 NA
ATOM     15  C   UNL     1       0.522  10.633  18.692  0.00  0.00    +0.000 A 
ATOM     16  C   UNL     1      -0.185  10.285  19.845  0.00  0.00    +0.000 A 
ENDROOT
BRANCH   1  21
ATOM     17  C   UNL     1      -5.299  16.816  23.387  0.00  0.00    +0.000 C 
ATOM     18  C   UNL     1      -5.328  15.412  22.899  0.00  0.00    +0.000 A 
ATOM     19  C   UNL     1      -6.407  14.552  22.923  0.00  0.00    +0.000 A 
ATOM     20  S   UNL     1      -5.960  13.025  22.289  0.00  0.00    +0.000 S 
ATOM     21  C   UNL     1      -4.347  13.606  22.031  0.00  0.00    +0.000 A 
ATOM     22  N   UNL     1      -4.172  14.873  22.356  0.00  0.00    +0.000 NA
ENDBRANCH   1  21
BRANCH   3  23
ATOM     23  C   UNL     1      -2.531  11.073  18.192  0.00  0.00    +0.000 A 
ATOM     24  C   UNL     1      -2.218  11.945  17.141  0.00  0.00    +0.000 A 
ATOM     25  C   UNL     1      -2.458  11.574  15.806  0.00  0.00    +0.000 A 
ATOM     26  C   UNL     1      -2.992  10.318  15.499  0.00  0.00    +0.000 A 
ATOM     27  C   UNL     1      -3.239   9.418  16.539  0.00  0.00    +0.000 A 
ATOM     28  C   UNL     1      -3.003   9.790  17.873  0.00  0.00    +0.000 A 
BRANCH  26  29
ATOM     29  C   UNL     1      -3.301   9.966  14.138  0.00  0.00    +0.000 C 
ATOM     30  N   UNL     1      -3.565   9.691  13.038  0.00  0.00    +0.000 NA
ENDBRANCH  26  29
ENDBRANCH   3  23
TORSDOF 3
ENDMDL
MODEL 5
REMARK VINA RESULT:      -6.3      5.014      8.042
REMARK  Name = 
REMARK  4 active torsions:
REMARK  status: ('A' for Active; 'I' for Inactive)
REMARK    1  A    between atoms: C_1  and  C_2
REMARK    2  A    between atoms: C_5  and  C_6
REMARK    3  A    between atoms: C_8  and  C_9
REMARK    4  A    between atoms: C_12  and  C_13
REMARK                            x       y       z     vdW  Elec       q    Type
REMARK                         _______ _______ _______ _____ _____    ______ ____
ROOT
ATOM      1  C   UNL     1       1.960   7.841  19.418  0.00  0.00    +0.000 A 
ATOM      2  C   UNL     1       2.943   7.516  18.568  0.00  0.00    +0.000 A 
ATOM      3  C   UNL     1       3.466   6.154  18.456  0.00  0.00    +0.000 A 
ATOM      4  C   UNL     1       2.969   5.195  19.292  0.00  0.00    +0.000 A 
ATOM      5  N   UNL     1       1.924   5.511  20.192  0.00  0.00    +0.000 N 
ATOM      6  C   UNL     1       1.356   6.790  20.281  0.00  0.00    +0.000 A 
ATOM      7  O   UNL     1       0.407   7.058  21.018  0.00  0.00    +0.000 OA
ATOM      8  C   UNL     1       1.383   4.487  21.098  0.00  0.00    +0.000 C 
ATOM      9  C   UNL     1       0.513   3.436  20.401  0.00  0.00    +0.000 C 
ATOM     10  C   UNL     1       1.077   2.908  19.083  0.00  0.00    +0.000 C 
ATOM     11  C   UNL     1       2.566   2.687  19.140  0.00  0.00    +0.000 A 
ATOM     12  C   UNL     1       3.079   1.383  19.111  0.00  0.00    +0.000 A 
ATOM     13  C   UNL     1       4.450   1.199  19.190  0.00  0.00    +0.000 A 
ATOM     14  N   UNL     1       5.326   2.207  19.336  0.00  0.00    +0.000 NA
ATOM     15  C   UNL     1       4.803   3.456  19.387  0.00  0.00    +0.000 A 
ATOM     16  C   UNL     1       3.451   3.777  19.256  0.00  0.00    +0.000 A 
ENDROOT
BRANCH   1  21
ATOM     17  C   UNL     1       0.032  11.842  21.498  0.00  0.00    +0.000 C 
ATOM     18  C   UNL     1       0.660  11.067  20.397  0.00  0.00    +0.000 A 
ATOM     19  C   UNL     1       0.920  11.513  19.117  0.00  0.00    +0.000 A 
ATOM     20  S   UNL     1       1.619  10.258  18.184  0.00  0.00    +0.000 S 
ATOM     21  C   UNL     1       1.524   9.193  19.548  0.00  0.00    +0.000 A 
ATOM     22  N   UNL     1       1.043   9.757  20.639  0.00  0.00    +0.000 NA
ENDBRANCH   1  21
BRANCH   3  23
ATOM     23  C   UNL     1       4.512   5.872  17.428  0.00  0.00    +0.000 A 
ATOM     24  C   UNL     1       5.770   6.485  17.505  0.00  0.00    +0.000 A 
ATOM     25  C   UNL     1       6.725   6.292  16.490  0.00  0.00    +0.000 A 
ATOM     26  C   UNL     1       6.447   5.464  15.398  0.00  0.00    +0.000 A 
ATOM     27  C   UNL     1       5.222   4.794  15.353  0.00  0.00    +0.000 A 
ATOM     28  C   UNL     1       4.267   4.990  16.364  0.00  0.00    +0.000 A 
BRANCH  26  29
ATOM     29  C   UNL     1       7.399   5.320  14.327  0.00  0.00    +0.000 C 
ATOM     30  N   UNL     1       8.171   5.221  13.461  0.00  0.00    +0.000 NA
ENDBRANCH  26  29
ENDBRANCH   3  23
TORSDOF 3
ENDMDL
MODEL 6
REMARK VINA RESULT:      -6.2      3.094      4.704
REMARK  Name = 
REMARK  4 active torsions:
REMARK  status: ('A' for Active; 'I' for Inactive)
REMARK    1  A    between atoms: C_1  and  C_2
REMARK    2  A    between atoms: C_5  and  C_6
REMARK    3  A    between atoms: C_8  and  C_9
REMARK    4  A    between atoms: C_12  and  C_13
REMARK                            x       y       z     vdW  Elec       q    Type
REMARK                         _______ _______ _______ _____ _____    ______ ____
ROOT
ATOM      1  C   UNL     1      -3.492  12.997  20.591  0.00  0.00    +0.000 A 
ATOM      2  C   UNL     1      -2.669  12.011  20.213  0.00  0.00    +0.000 A 
ATOM      3  C   UNL     1      -1.239  12.224  19.989  0.00  0.00    +0.000 A 
ATOM      4  C   UNL     1      -0.740  13.489  20.117  0.00  0.00    +0.000 A 
ATOM      5  N   UNL     1      -1.588  14.546  20.525  0.00  0.00    +0.000 N 
ATOM      6  C   UNL     1      -2.949  14.366  20.809  0.00  0.00    +0.000 A 
ATOM      7  O   UNL     1      -3.678  15.267  21.223  0.00  0.00    +0.000 OA
ATOM      8  C   UNL     1      -1.063  15.912  20.664  0.00  0.00    +0.000 C 
ATOM      9  C   UNL     1      -0.164  16.112  21.889  0.00  0.00    +0.000 C 
ATOM     10  C   UNL     1       0.852  14.996  22.128  0.00  0.00    +0.000 C 
ATOM     11  C   UNL     1       1.476  14.501  20.849  0.00  0.00    +0.000 A 
ATOM     12  C   UNL     1       2.828  14.763  20.585  0.00  0.00    +0.000 A 
ATOM     13  C   UNL     1       3.377  14.321  19.393  0.00  0.00    +0.000 A 
ATOM     14  N   UNL     1       2.672  13.683  18.443  0.00  0.00    +0.000 NA
ATOM     15  C   UNL     1       1.363  13.464  18.712  0.00  0.00    +0.000 A 
ATOM     16  C   UNL     1       0.708  13.803  19.897  0.00  0.00    +0.000 A 
ENDROOT
BRANCH   1  21
ATOM     17  C   UNL     1      -7.751  11.936  22.780  0.00  0.00    +0.000 C 
ATOM     18  C   UNL     1      -6.880  12.291  21.629  0.00  0.00    +0.000 A 
ATOM     19  C   UNL     1      -7.266  12.420  20.310  0.00  0.00    +0.000 A 
ATOM     20  S   UNL     1      -5.913  12.805  19.333  0.00  0.00    +0.000 S 
ATOM     21  C   UNL     1      -4.892  12.767  20.734  0.00  0.00    +0.000 A 
ATOM     22  N   UNL     1      -5.534  12.527  21.861  0.00  0.00    +0.000 NA
ENDBRANCH   1  21
BRANCH   3  23
ATOM     23  C   UNL     1      -0.387  11.048  19.639  0.00  0.00    +0.000 A 
ATOM     24  C   UNL     1       0.323  10.361  20.632  0.00  0.00    +0.000 A 
ATOM     25  C   UNL     1       1.196   9.310  20.294  0.00  0.00    +0.000 A 
ATOM     26  C   UNL     1       1.353   8.914  18.962  0.00  0.00    +0.000 A 
ATOM     27  C   UNL     1       0.593   9.548  17.976  0.00  0.00    +0.000 A 
ATOM     28  C   UNL     1      -0.275  10.600  18.313  0.00  0.00    +0.000 A 
BRANCH  26  29
ATOM     29  C   UNL     1       2.296   7.885  18.610  0.00  0.00    +0.000 C 
ATOM     30  N   UNL     1       3.058   7.058  18.308  0.00  0.00    +0.000 NA
ENDBRANCH  26  29
ENDBRANCH   3  23
TORSDOF 3
ENDMDL
MODEL 7
REMARK VINA RESULT:      -6.2      4.820      7.967
REMARK  Name = 
REMARK  4 active torsions:
REMARK  status: ('A' for Active; 'I' for Inactive)
REMARK    1  A    between atoms: C_1  and  C_2
REMARK    2  A    between atoms: C_5  and  C_6
REMARK    3  A    between atoms: C_8  and  C_9
REMARK    4  A    between atoms: C_12  and  C_13
REMARK                            x       y       z     vdW  Elec       q    Type
REMARK                         _______ _______ _______ _____ _____    ______ ____
ROOT
ATOM      1  C   UNL     1       2.096   8.538  18.687  0.00  0.00    +0.000 A 
ATOM      2  C   UNL     1       3.000   8.016  17.848  0.00  0.00    +0.000 A 
ATOM      3  C   UNL     1       3.501   6.648  17.986  0.00  0.00    +0.000 A 
ATOM      4  C   UNL     1       3.070   5.900  19.044  0.00  0.00    +0.000 A 
ATOM      5  N   UNL     1       2.108   6.425  19.938  0.00  0.00    +0.000 N 
ATOM      6  C   UNL     1       1.559   7.709  19.800  0.00  0.00    +0.000 A 
ATOM      7  O   UNL     1       0.678   8.149  20.538  0.00  0.00    +0.000 OA
ATOM      8  C   UNL     1       1.638   5.630  21.081  0.00  0.00    +0.000 C 
ATOM      9  C   UNL     1       0.703   4.478  20.697  0.00  0.00    +0.000 C 
ATOM     10  C   UNL     1       1.149   3.670  19.479  0.00  0.00    +0.000 C 
ATOM     11  C   UNL     1       2.636   3.428  19.460  0.00  0.00    +0.000 A 
ATOM     12  C   UNL     1       3.135   2.134  19.667  0.00  0.00    +0.000 A 
ATOM     13  C   UNL     1       4.506   1.936  19.671  0.00  0.00    +0.000 A 
ATOM     14  N   UNL     1       5.399   2.930  19.528  0.00  0.00    +0.000 NA
ATOM     15  C   UNL     1       4.892   4.173  19.356  0.00  0.00    +0.000 A 
ATOM     16  C   UNL     1       3.536   4.494  19.270  0.00  0.00    +0.000 A 
ENDROOT
BRANCH   1  21
ATOM     17  C   UNL     1       2.470  13.403  18.187  0.00  0.00    +0.000 C 
ATOM     18  C   UNL     1       1.740  12.118  18.344  0.00  0.00    +0.000 A 
ATOM     19  C   UNL     1       0.378  11.953  18.484  0.00  0.00    +0.000 A 
ATOM     20  S   UNL     1      -0.002  10.294  18.672  0.00  0.00    +0.000 S 
ATOM     21  C   UNL     1       1.682   9.897  18.563  0.00  0.00    +0.000 A 
ATOM     22  N   UNL     1       2.468  10.937  18.353  0.00  0.00    +0.000 NA
ENDBRANCH   1  21
BRANCH   3  23
ATOM     23  C   UNL     1       4.454   6.130  16.960  0.00  0.00    +0.000 A 
ATOM     24  C   UNL     1       5.658   6.799  16.702  0.00  0.00    +0.000 A 
ATOM     25  C   UNL     1       6.515   6.364  15.674  0.00  0.00    +0.000 A 
ATOM     26  C   UNL     1       6.194   5.241  14.906  0.00  0.00    +0.000 A 
ATOM     27  C   UNL     1       5.030   4.528  15.206  0.00  0.00    +0.000 A 
ATOM     28  C   UNL     1       4.172   4.965  16.229  0.00  0.00    +0.000 A 
BRANCH  26  29
ATOM     29  C   UNL     1       7.037   4.837  13.811  0.00  0.00    +0.000 C 
ATOM     30  N   UNL     1       7.729   4.524  12.927  0.00  0.00    +0.000 NA
ENDBRANCH  26  29
ENDBRANCH   3  23
TORSDOF 3
ENDMDL
MODEL 8
REMARK VINA RESULT:      -6.1      3.818      8.445
REMARK  Name = 
REMARK  4 active torsions:
REMARK  status: ('A' for Active; 'I' for Inactive)
REMARK    1  A    between atoms: C_1  and  C_2
REMARK    2  A    between atoms: C_5  and  C_6
REMARK    3  A    between atoms: C_8  and  C_9
REMARK    4  A    between atoms: C_12  and  C_13
REMARK                            x       y       z     vdW  Elec       q    Type
REMARK                         _______ _______ _______ _____ _____    ______ ____
ROOT
ATOM      1  C   UNL     1      -4.096  11.644  18.590  0.00  0.00    +0.000 A 
ATOM      2  C   UNL     1      -3.298  12.361  19.392  0.00  0.00    +0.000 A 
ATOM      3  C   UNL     1      -3.808  13.116  20.536  0.00  0.00    +0.000 A 
ATOM      4  C   UNL     1      -5.156  13.133  20.756  0.00  0.00    +0.000 A 
ATOM      5  N   UNL     1      -6.019  12.377  19.928  0.00  0.00    +0.000 N 
ATOM      6  C   UNL     1      -5.558  11.592  18.862  0.00  0.00    +0.000 A 
ATOM      7  O   UNL     1      -6.295  10.884  18.176  0.00  0.00    +0.000 OA
ATOM      8  C   UNL     1      -7.472  12.390  20.154  0.00  0.00    +0.000 C 
ATOM      9  C   UNL     1      -7.916  11.607  21.394  0.00  0.00    +0.000 C 
ATOM     10  C   UNL     1      -7.061  11.838  22.639  0.00  0.00    +0.000 C 
ATOM     11  C   UNL     1      -6.659  13.280  22.804  0.00  0.00    +0.000 A 
ATOM     12  C   UNL     1      -7.199  14.039  23.851  0.00  0.00    +0.000 A 
ATOM     13  C   UNL     1      -6.837  15.370  23.971  0.00  0.00    +0.000 A 
ATOM     14  N   UNL     1      -6.019  15.998  23.108  0.00  0.00    +0.000 NA
ATOM     15  C   UNL     1      -5.532  15.249  22.090  0.00  0.00    +0.000 A 
ATOM     16  C   UNL     1      -5.770  13.887  21.896  0.00  0.00    +0.000 A 
ENDROOT
BRANCH   1  21
ATOM     17  C   UNL     1      -3.794  10.073  13.953  0.00  0.00    +0.000 C 
ATOM     18  C   UNL     1      -3.341  10.205  15.362  0.00  0.00    +0.000 A 
ATOM     19  C   UNL     1      -2.245   9.595  15.938  0.00  0.00    +0.000 A 
ATOM     20  S   UNL     1      -2.139  10.012  17.596  0.00  0.00    +0.000 S 
ATOM     21  C   UNL     1      -3.571  10.976  17.444  0.00  0.00    +0.000 A 
ATOM     22  N   UNL     1      -4.065  11.017  16.221  0.00  0.00    +0.000 NA
ENDBRANCH   1  21
BRANCH   3  23
ATOM     23  C   UNL     1      -2.833  13.826  21.416  0.00  0.00    +0.000 A 
ATOM     24  C   UNL     1      -2.444  13.271  22.643  0.00  0.00    +0.000 A 
ATOM     25  C   UNL     1      -1.597  13.979  23.514  0.00  0.00    +0.000 A 
ATOM     26  C   UNL     1      -1.105  15.240  23.163  0.00  0.00    +0.000 A 
ATOM     27  C   UNL     1      -1.432  15.767  21.910  0.00  0.00    +0.000 A 
ATOM     28  C   UNL     1      -2.282  15.062  21.042  0.00  0.00    +0.000 A 
BRANCH  26  29
ATOM     29  C   UNL     1      -0.293  15.993  24.083  0.00  0.00    +0.000 C 
ATOM     30  N   UNL     1       0.378  16.595  24.819  0.00  0.00    +0.000 NA
ENDBRANCH  26  29
ENDBRANCH   3  23
TORSDOF 3
ENDMDL
MODEL 9
REMARK VINA RESULT:      -6.1      3.677      7.726
REMARK  Name = 
REMARK  4 active torsions:
REMARK  status: ('A' for Active; 'I' for Inactive)
REMARK    1  A    between atoms: C_1  and  C_2
REMARK    2  A    between atoms: C_5  and  C_6
REMARK    3  A    between atoms: C_8  and  C_9
REMARK    4  A    between atoms: C_12  and  C_13
REMARK                            x       y       z     vdW  Elec       q    Type
REMARK                         _______ _______ _______ _____ _____    ______ ____
ROOT
ATOM      1  C   UNL     1       0.270  11.723  20.830  0.00  0.00    +0.000 A 
ATOM      2  C   UNL     1      -0.960  11.765  21.359  0.00  0.00    +0.000 A 
ATOM      3  C   UNL     1      -1.459  12.925  22.097  0.00  0.00    +0.000 A 
ATOM      4  C   UNL     1      -0.616  13.980  22.299  0.00  0.00    +0.000 A 
ATOM      5  N   UNL     1       0.685  13.965  21.742  0.00  0.00    +0.000 N 
ATOM      6  C   UNL     1       1.174  12.896  20.976  0.00  0.00    +0.000 A 
ATOM      7  O   UNL     1       2.281  12.902  20.438  0.00  0.00    +0.000 OA
ATOM      8  C   UNL     1       1.602  15.094  21.955  0.00  0.00    +0.000 C 
ATOM      9  C   UNL     1       1.238  16.351  21.159  0.00  0.00    +0.000 C 
ATOM     10  C   UNL     1      -0.248  16.707  21.168  0.00  0.00    +0.000 C 
ATOM     11  C   UNL     1      -0.883  16.501  22.519  0.00  0.00    +0.000 A 
ATOM     12  C   UNL     1      -1.297  17.609  23.272  0.00  0.00    +0.000 A 
ATOM     13  C   UNL     1      -1.855  17.399  24.522  0.00  0.00    +0.000 A 
ATOM     14  N   UNL     1      -1.988  16.185  25.081  0.00  0.00    +0.000 NA
ATOM     15  C   UNL     1      -1.557  15.133  24.344  0.00  0.00    +0.000 A 
ATOM     16  C   UNL     1      -1.036  15.206  23.051  0.00  0.00    +0.000 A 
ENDROOT
BRANCH   1  21
ATOM     17  C   UNL     1       1.956   7.147  20.309  0.00  0.00    +0.000 C 
ATOM     18  C   UNL     1       1.521   8.485  19.829  0.00  0.00    +0.000 A 
ATOM     19  C   UNL     1       1.551   8.946  18.528  0.00  0.00    +0.000 A 
ATOM     20  S   UNL     1       0.987  10.561  18.460  0.00  0.00    +0.000 S 
ATOM     21  C   UNL     1       0.745  10.548  20.176  0.00  0.00    +0.000 A 
ATOM     22  N   UNL     1       1.026   9.394  20.751  0.00  0.00    +0.000 NA
ENDBRANCH   1  21
BRANCH   3  23
ATOM     23  C   UNL     1      -2.869  12.908  22.588  0.00  0.00    +0.000 A 
ATOM     24  C   UNL     1      -3.891  13.512  21.842  0.00  0.00    +0.000 A 
ATOM     25  C   UNL     1      -5.203  13.576  22.345  0.00  0.00    +0.000 A 
ATOM     26  C   UNL     1      -5.520  13.016  23.587  0.00  0.00    +0.000 A 
ATOM     27  C   UNL     1      -4.521  12.351  24.301  0.00  0.00    +0.000 A 
ATOM     28  C   UNL     1      -3.209  12.290  23.802  0.00  0.00    +0.000 A 
BRANCH  26  29
ATOM     29  C   UNL     1      -6.847  13.142  24.130  0.00  0.00    +0.000 C 
ATOM     30  N   UNL     1      -7.916  13.258  24.578  0.00  0.00    +0.000 NA
ENDBRANCH  26  29
ENDBRANCH   3  23
TORSDOF 3
ENDMDL
