MODEL 1
REMARK VINA RESULT:      -6.9      0.000      0.000
REMARK  Name = 
REMARK  11 active torsions:
REMARK  status: ('A' for Active; 'I' for Inactive)
REMARK    1  A    between atoms: C_1  and  O_2
REMARK    2  A    between atoms: O_2  and  C_3
REMARK    3  A    between atoms: C_6  and  C_7
REMARK    4  A    between atoms: C_7  and  C_8
REMARK    5  A    between atoms: N_9  and  N_10
REMARK    6  A    between atoms: C_11  and  O_13
REMARK    7  A    between atoms: O_13  and  C_14
REMARK    8  A    between atoms: C_14  and  C_15
REMARK    9  A    between atoms: C_14  and  C_16
REMARK   10  A    between atoms: C_14  and  C_17
REMARK   11  A    between atoms: C_19  and  N_20
REMARK                            x       y       z     vdW  Elec       q    Type
REMARK                         _______ _______ _______ _____ _____    ______ ____
ROOT
ATOM      1  C   UNL     1       2.967   6.837  17.976  0.00  0.00    +0.000 C 
ATOM      2  C   UNL     1       4.360   7.019  17.396  0.00  0.00    +0.000 C 
ATOM      3  N   UNL     1       2.349   5.693  18.025  0.00  0.00    +0.000 NA
ENDROOT
BRANCH   1   7
ATOM      4  C   UNL     1       0.935  10.261  19.654  0.00  0.00    +0.000 A 
ATOM      5  C   UNL     1       1.405  10.289  18.337  0.00  0.00    +0.000 A 
ATOM      6  C   UNL     1       2.044   9.177  17.779  0.00  0.00    +0.000 A 
ATOM      7  C   UNL     1       2.267   8.028  18.541  0.00  0.00    +0.000 A 
ATOM      8  C   UNL     1       1.808   7.981  19.864  0.00  0.00    +0.000 A 
ATOM      9  C   UNL     1       1.160   9.101  20.404  0.00  0.00    +0.000 A 
BRANCH   9  10
ATOM     10  N   UNL     1       0.682   9.003  21.770  0.00  0.00    +0.000 N 
ATOM     11  O   UNL     1      -0.467   8.581  21.948  0.00  0.00    +0.000 OA
ATOM     12  O   UNL     1       1.446   9.409  22.659  0.00  0.00    +0.000 OA
ENDBRANCH   9  10
BRANCH   4  14
ATOM     13  C   UNL     1       1.065  12.486  20.444  0.00  0.00    +0.000 C 
ATOM     14  O   UNL     1       0.280  11.314  20.232  0.00  0.00    +0.000 OA
ENDBRANCH   4  14
ENDBRANCH   1   7
BRANCH   3  15
ATOM     15  N   UNL     1       2.977   4.594  17.536  0.00  0.00    +0.000 N 
ATOM     16  C   UNL     1       3.443   3.571  18.337  0.00  0.00    +0.000 C 
ATOM     17  O   UNL     1       4.031   2.616  17.845  0.00  0.00    +0.000 OA
ATOM     18  H   UNL     1       3.161   4.478  16.549  0.00  0.00    +0.000 HD
BRANCH  16  19
ATOM     19  O   UNL     1       3.166   3.744  19.658  0.00  0.00    +0.000 OA
BRANCH  19  20
ATOM     20  C   UNL     1       2.022   3.087  20.257  0.00  0.00    +0.000 C 
ATOM     21  C   UNL     1       2.394   2.443  21.599  0.00  0.00    +0.000 C 
ATOM     22  C   UNL     1       0.990   4.194  20.519  0.00  0.00    +0.000 C 
ATOM     23  C   UNL     1       1.390   2.069  19.292  0.00  0.00    +0.000 C 
ENDBRANCH  19  20
ENDBRANCH  16  19
ENDBRANCH   3  15
TORSDOF 6
ENDMDL
MODEL 2
REMARK VINA RESULT:      -6.9      0.464      1.025
REMARK  Name = 
REMARK  11 active torsions:
REMARK  status: ('A' for Active; 'I' for Inactive)
REMARK    1  A    between atoms: C_1  and  O_2
REMARK    2  A    between atoms: O_2  and  C_3
REMARK    3  A    between atoms: C_6  and  C_7
REMARK    4  A    between atoms: C_7  and  C_8
REMARK    5  A    between atoms: N_9  and  N_10
REMARK    6  A    between atoms: C_11  and  O_13
REMARK    7  A    between atoms: O_13  and  C_14
REMARK    8  A    between atoms: C_14  and  C_15
REMARK    9  A    between atoms: C_14  and  C_16
REMARK   10  A    between atoms: C_14  and  C_17
REMARK   11  A    between atoms: C_19  and  N_20
REMARK                            x       y       z     vdW  Elec       q    Type
REMARK                         _______ _______ _______ _____ _____    ______ ____
ROOT
ATOM      1  C   UNL     1       3.027   6.753  17.979  0.00  0.00    +0.000 C 
ATOM      2  C   UNL     1       4.457   6.932  17.497  0.00  0.00    +0.000 C 
ATOM      3  N   UNL     1       2.400   5.612  17.972  0.00  0.00    +0.000 NA
ENDROOT
BRANCH   1   7
ATOM      4  C   UNL     1       0.913  10.169  19.569  0.00  0.00    +0.000 A 
ATOM      5  C   UNL     1       1.367  10.166  18.246  0.00  0.00    +0.000 A 
ATOM      6  C   UNL     1       2.032   9.056  17.717  0.00  0.00    +0.000 A 
ATOM      7  C   UNL     1       2.299   7.940  18.513  0.00  0.00    +0.000 A 
ATOM      8  C   UNL     1       1.857   7.925  19.843  0.00  0.00    +0.000 A 
ATOM      9  C   UNL     1       1.182   9.042  20.354  0.00  0.00    +0.000 A 
BRANCH   9  10
ATOM     10  N   UNL     1       0.724   8.976  21.728  0.00  0.00    +0.000 N 
ATOM     11  O   UNL     1      -0.426   8.566  21.931  0.00  0.00    +0.000 OA
ATOM     12  O   UNL     1       1.503   9.395  22.597  0.00  0.00    +0.000 OA
ENDBRANCH   9  10
BRANCH   4  14
ATOM     13  C   UNL     1      -0.579  11.970  19.218  0.00  0.00    +0.000 C 
ATOM     14  O   UNL     1       0.234  11.221  20.120  0.00  0.00    +0.000 OA
ENDBRANCH   4  14
ENDBRANCH   1   7
BRANCH   3  15
ATOM     15  N   UNL     1       3.053   4.516  17.510  0.00  0.00    +0.000 N 
ATOM     16  C   UNL     1       3.535   3.520  18.335  0.00  0.00    +0.000 C 
ATOM     17  O   UNL     1       4.145   2.567  17.867  0.00  0.00    +0.000 OA
ATOM     18  H   UNL     1       3.245   4.381  16.527  0.00  0.00    +0.000 HD
BRANCH  16  19
ATOM     19  O   UNL     1       3.247   3.717  19.651  0.00  0.00    +0.000 OA
BRANCH  19  20
ATOM     20  C   UNL     1       2.067   3.115  20.239  0.00  0.00    +0.000 C 
ATOM     21  C   UNL     1       1.524   1.984  19.357  0.00  0.00    +0.000 C 
ATOM     22  C   UNL     1       2.523   2.513  21.577  0.00  0.00    +0.000 C 
ATOM     23  C   UNL     1       0.990   4.172  20.539  0.00  0.00    +0.000 C 
ENDBRANCH  19  20
ENDBRANCH  16  19
ENDBRANCH   3  15
TORSDOF 6
ENDMDL
MODEL 3
REMARK VINA RESULT:      -6.9      1.365      1.719
REMARK  Name = 
REMARK  11 active torsions:
REMARK  status: ('A' for Active; 'I' for Inactive)
REMARK    1  A    between atoms: C_1  and  O_2
REMARK    2  A    between atoms: O_2  and  C_3
REMARK    3  A    between atoms: C_6  and  C_7
REMARK    4  A    between atoms: C_7  and  C_8
REMARK    5  A    between atoms: N_9  and  N_10
REMARK    6  A    between atoms: C_11  and  O_13
REMARK    7  A    between atoms: O_13  and  C_14
REMARK    8  A    between atoms: C_14  and  C_15
REMARK    9  A    between atoms: C_14  and  C_16
REMARK   10  A    between atoms: C_14  and  C_17
REMARK   11  A    between atoms: C_19  and  N_20
REMARK                            x       y       z     vdW  Elec       q    Type
REMARK                         _______ _______ _______ _____ _____    ______ ____
ROOT
ATOM      1  C   UNL     1       3.449   6.561  18.667  0.00  0.00    +0.000 C 
ATOM      2  C   UNL     1       4.173   6.385  17.342  0.00  0.00    +0.000 C 
ATOM      3  N   UNL     1       3.607   5.768  19.687  0.00  0.00    +0.000 NA
ENDROOT
BRANCH   1   7
ATOM      4  C   UNL     1       0.748   9.895  19.173  0.00  0.00    +0.000 A 
ATOM      5  C   UNL     1       1.371   9.665  17.941  0.00  0.00    +0.000 A 
ATOM      6  C   UNL     1       2.229   8.576  17.763  0.00  0.00    +0.000 A 
ATOM      7  C   UNL     1       2.519   7.717  18.826  0.00  0.00    +0.000 A 
ATOM      8  C   UNL     1       1.910   7.933  20.069  0.00  0.00    +0.000 A 
ATOM      9  C   UNL     1       1.043   9.023  20.227  0.00  0.00    +0.000 A 
BRANCH   9  10
ATOM     10  N   UNL     1       0.417   9.198  21.523  0.00  0.00    +0.000 N 
ATOM     11  O   UNL     1       0.976   9.947  22.335  0.00  0.00    +0.000 OA
ATOM     12  O   UNL     1      -0.606   8.533  21.744  0.00  0.00    +0.000 OA
ENDBRANCH   9  10
BRANCH   4  14
ATOM     13  C   UNL     1       0.473  12.226  19.454  0.00  0.00    +0.000 C 
ATOM     14  O   UNL     1      -0.120  10.931  19.385  0.00  0.00    +0.000 OA
ENDBRANCH   4  14
ENDBRANCH   1   7
BRANCH   3  15
ATOM     15  N   UNL     1       4.465   4.723  19.570  0.00  0.00    +0.000 N 
ATOM     16  C   UNL     1       4.055   3.405  19.578  0.00  0.00    +0.000 C 
ATOM     17  O   UNL     1       4.876   2.499  19.501  0.00  0.00    +0.000 OA
ATOM     18  H   UNL     1       5.464   4.856  19.495  0.00  0.00    +0.000 HD
BRANCH  16  19
ATOM     19  O   UNL     1       2.705   3.255  19.661  0.00  0.00    +0.000 OA
BRANCH  19  20
ATOM     20  C   UNL     1       1.940   2.866  18.494  0.00  0.00    +0.000 C 
ATOM     21  C   UNL     1       2.756   1.944  17.578  0.00  0.00    +0.000 C 
ATOM     22  C   UNL     1       0.733   2.079  19.025  0.00  0.00    +0.000 C 
ATOM     23  C   UNL     1       1.407   4.095  17.737  0.00  0.00    +0.000 C 
ENDBRANCH  19  20
ENDBRANCH  16  19
ENDBRANCH   3  15
TORSDOF 6
ENDMDL
MODEL 4
REMARK VINA RESULT:      -6.8      1.470      1.932
REMARK  Name = 
REMARK  11 active torsions:
REMARK  status: ('A' for Active; 'I' for Inactive)
REMARK    1  A    between atoms: C_1  and  O_2
REMARK    2  A    between atoms: O_2  and  C_3
REMARK    3  A    between atoms: C_6  and  C_7
REMARK    4  A    between atoms: C_7  and  C_8
REMARK    5  A    between atoms: N_9  and  N_10
REMARK    6  A    between atoms: C_11  and  O_13
REMARK    7  A    between atoms: O_13  and  C_14
REMARK    8  A    between atoms: C_14  and  C_15
REMARK    9  A    between atoms: C_14  and  C_16
REMARK   10  A    between atoms: C_14  and  C_17
REMARK   11  A    between atoms: C_19  and  N_20
REMARK                            x       y       z     vdW  Elec       q    Type
REMARK                         _______ _______ _______ _____ _____    ______ ____
ROOT
ATOM      1  C   UNL     1       3.247   7.008  18.697  0.00  0.00    +0.000 C 
ATOM      2  C   UNL     1       3.991   7.049  17.372  0.00  0.00    +0.000 C 
ATOM      3  N   UNL     1       3.499   6.147  19.640  0.00  0.00    +0.000 NA
ENDROOT
BRANCH   1   7
ATOM      4  C   UNL     1       0.156   9.925  19.473  0.00  0.00    +0.000 A 
ATOM      5  C   UNL     1       0.701   9.790  18.192  0.00  0.00    +0.000 A 
ATOM      6  C   UNL     1       1.685   8.834  17.927  0.00  0.00    +0.000 A 
ATOM      7  C   UNL     1       2.180   8.020  18.949  0.00  0.00    +0.000 A 
ATOM      8  C   UNL     1       1.652   8.143  20.241  0.00  0.00    +0.000 A 
ATOM      9  C   UNL     1       0.657   9.099  20.486  0.00  0.00    +0.000 A 
BRANCH   9  10
ATOM     10  N   UNL     1       0.122   9.179  21.832  0.00  0.00    +0.000 N 
ATOM     11  O   UNL     1       0.636   9.995  22.607  0.00  0.00    +0.000 OA
ATOM     12  O   UNL     1      -0.777   8.376  22.124  0.00  0.00    +0.000 OA
ENDBRANCH   9  10
BRANCH   4  14
ATOM     13  C   UNL     1      -1.733  11.125  18.710  0.00  0.00    +0.000 C 
ATOM     14  O   UNL     1      -0.828  10.827  19.771  0.00  0.00    +0.000 OA
ENDBRANCH   4  14
ENDBRANCH   1   7
BRANCH   3  15
ATOM     15  N   UNL     1       4.480   5.231  19.439  0.00  0.00    +0.000 N 
ATOM     16  C   UNL     1       4.264   3.869  19.492  0.00  0.00    +0.000 C 
ATOM     17  O   UNL     1       5.193   3.087  19.335  0.00  0.00    +0.000 OA
ATOM     18  H   UNL     1       5.437   5.503  19.262  0.00  0.00    +0.000 HD
BRANCH  16  19
ATOM     19  O   UNL     1       2.964   3.532  19.713  0.00  0.00    +0.000 OA
BRANCH  19  20
ATOM     20  C   UNL     1       2.185   2.901  18.668  0.00  0.00    +0.000 C 
ATOM     21  C   UNL     1       2.134   3.777  17.410  0.00  0.00    +0.000 C 
ATOM     22  C   UNL     1       2.921   1.597  18.323  0.00  0.00    +0.000 C 
ATOM     23  C   UNL     1       0.776   2.532  19.163  0.00  0.00    +0.000 C 
ENDBRANCH  19  20
ENDBRANCH  16  19
ENDBRANCH   3  15
TORSDOF 6
ENDMDL
MODEL 5
REMARK VINA RESULT:      -6.8      2.570      7.177
REMARK  Name = 
REMARK  11 active torsions:
REMARK  status: ('A' for Active; 'I' for Inactive)
REMARK    1  A    between atoms: C_1  and  O_2
REMARK    2  A    between atoms: O_2  and  C_3
REMARK    3  A    between atoms: C_6  and  C_7
REMARK    4  A    between atoms: C_7  and  C_8
REMARK    5  A    between atoms: N_9  and  N_10
REMARK    6  A    between atoms: C_11  and  O_13
REMARK    7  A    between atoms: O_13  and  C_14
REMARK    8  A    between atoms: C_14  and  C_15
REMARK    9  A    between atoms: C_14  and  C_16
REMARK   10  A    between atoms: C_14  and  C_17
REMARK   11  A    between atoms: C_19  and  N_20
REMARK                            x       y       z     vdW  Elec       q    Type
REMARK                         _______ _______ _______ _____ _____    ______ ____
ROOT
ATOM      1  C   UNL     1       2.642   5.539  19.911  0.00  0.00    +0.000 C 
ATOM      2  C   UNL     1       2.107   4.533  20.917  0.00  0.00    +0.000 C 
ATOM      3  N   UNL     1       2.376   6.813  19.953  0.00  0.00    +0.000 NA
ENDROOT
BRANCH   1   7
ATOM      4  C   UNL     1       5.278   4.156  16.780  0.00  0.00    +0.000 A 
ATOM      5  C   UNL     1       3.919   3.828  16.761  0.00  0.00    +0.000 A 
ATOM      6  C   UNL     1       3.055   4.290  17.758  0.00  0.00    +0.000 A 
ATOM      7  C   UNL     1       3.539   5.054  18.823  0.00  0.00    +0.000 A 
ATOM      8  C   UNL     1       4.899   5.389  18.863  0.00  0.00    +0.000 A 
ATOM      9  C   UNL     1       5.749   4.927  17.850  0.00  0.00    +0.000 A 
BRANCH   9  10
ATOM     10  N   UNL     1       7.145   5.314  17.918  0.00  0.00    +0.000 N 
ATOM     11  O   UNL     1       7.510   6.275  17.229  0.00  0.00    +0.000 OA
ATOM     12  O   UNL     1       7.886   4.611  18.622  0.00  0.00    +0.000 OA
ENDBRANCH   9  10
BRANCH   4  14
ATOM     13  C   UNL     1       5.876   4.218  14.493  0.00  0.00    +0.000 C 
ATOM     14  O   UNL     1       6.155   3.750  15.812  0.00  0.00    +0.000 OA
ENDBRANCH   4  14
ENDBRANCH   1   7
BRANCH   3  15
ATOM     15  N   UNL     1       1.579   7.277  20.948  0.00  0.00    +0.000 N 
ATOM     16  C   UNL     1       1.250   8.610  21.092  0.00  0.00    +0.000 C 
ATOM     17  O   UNL     1       0.552   8.980  22.028  0.00  0.00    +0.000 OA
ATOM     18  H   UNL     1       1.200   6.668  21.659  0.00  0.00    +0.000 HD
BRANCH  16  19
ATOM     19  O   UNL     1       1.759   9.406  20.111  0.00  0.00    +0.000 OA
BRANCH  19  20
ATOM     20  C   UNL     1       0.872  10.096  19.196  0.00  0.00    +0.000 C 
ATOM     21  C   UNL     1       1.277  11.567  19.036  0.00  0.00    +0.000 C 
ATOM     22  C   UNL     1       1.038   9.395  17.840  0.00  0.00    +0.000 C 
ATOM     23  C   UNL     1      -0.598   9.953  19.626  0.00  0.00    +0.000 C 
ENDBRANCH  19  20
ENDBRANCH  16  19
ENDBRANCH   3  15
TORSDOF 6
ENDMDL
MODEL 6
REMARK VINA RESULT:      -6.7      0.956      1.358
REMARK  Name = 
REMARK  11 active torsions:
REMARK  status: ('A' for Active; 'I' for Inactive)
REMARK    1  A    between atoms: C_1  and  O_2
REMARK    2  A    between atoms: O_2  and  C_3
REMARK    3  A    between atoms: C_6  and  C_7
REMARK    4  A    between atoms: C_7  and  C_8
REMARK    5  A    between atoms: N_9  and  N_10
REMARK    6  A    between atoms: C_11  and  O_13
REMARK    7  A    between atoms: O_13  and  C_14
REMARK    8  A    between atoms: C_14  and  C_15
REMARK    9  A    between atoms: C_14  and  C_16
REMARK   10  A    between atoms: C_14  and  C_17
REMARK   11  A    between atoms: C_19  and  N_20
REMARK                            x       y       z     vdW  Elec       q    Type
REMARK                         _______ _______ _______ _____ _____    ______ ____
ROOT
ATOM      1  C   UNL     1       2.838   6.362  18.083  0.00  0.00    +0.000 C 
ATOM      2  C   UNL     1       4.339   6.297  17.852  0.00  0.00    +0.000 C 
ATOM      3  N   UNL     1       2.037   5.350  17.915  0.00  0.00    +0.000 NA
ENDROOT
BRANCH   1   7
ATOM      4  C   UNL     1       1.103  10.065  19.476  0.00  0.00    +0.000 A 
ATOM      5  C   UNL     1       1.546   9.940  18.155  0.00  0.00    +0.000 A 
ATOM      6  C   UNL     1       2.088   8.738  17.690  0.00  0.00    +0.000 A 
ATOM      7  C   UNL     1       2.241   7.647  18.549  0.00  0.00    +0.000 A 
ATOM      8  C   UNL     1       1.809   7.754  19.877  0.00  0.00    +0.000 A 
ATOM      9  C   UNL     1       1.257   8.962  20.324  0.00  0.00    +0.000 A 
BRANCH   9  10
ATOM     10  N   UNL     1       0.803   9.023  21.700  0.00  0.00    +0.000 N 
ATOM     11  O   UNL     1       1.617   9.387  22.558  0.00  0.00    +0.000 OA
ATOM     12  O   UNL     1      -0.358   8.647  21.922  0.00  0.00    +0.000 OA
ENDBRANCH   9  10
BRANCH   4  14
ATOM     13  C   UNL     1      -0.787  11.485  19.524  0.00  0.00    +0.000 C 
ATOM     14  O   UNL     1       0.541  11.212  19.966  0.00  0.00    +0.000 OA
ENDBRANCH   4  14
ENDBRANCH   1   7
BRANCH   3  15
ATOM     15  N   UNL     1       2.564   4.165  17.512  0.00  0.00    +0.000 N 
ATOM     16  C   UNL     1       2.437   2.997  18.237  0.00  0.00    +0.000 C 
ATOM     17  O   UNL     1       2.960   1.962  17.843  0.00  0.00    +0.000 OA
ATOM     18  H   UNL     1       3.103   4.081  16.662  0.00  0.00    +0.000 HD
BRANCH  16  19
ATOM     19  O   UNL     1       1.691   3.135  19.367  0.00  0.00    +0.000 OA
BRANCH  19  20
ATOM     20  C   UNL     1       2.333   3.195  20.664  0.00  0.00    +0.000 C 
ATOM     21  C   UNL     1       2.369   4.632  21.199  0.00  0.00    +0.000 C 
ATOM     22  C   UNL     1       1.462   2.348  21.605  0.00  0.00    +0.000 C 
ATOM     23  C   UNL     1       3.737   2.566  20.625  0.00  0.00    +0.000 C 
ENDBRANCH  19  20
ENDBRANCH  16  19
ENDBRANCH   3  15
TORSDOF 6
ENDMDL
MODEL 7
REMARK VINA RESULT:      -6.7      1.332      1.475
REMARK  Name = 
REMARK  11 active torsions:
REMARK  status: ('A' for Active; 'I' for Inactive)
REMARK    1  A    between atoms: C_1  and  O_2
REMARK    2  A    between atoms: O_2  and  C_3
REMARK    3  A    between atoms: C_6  and  C_7
REMARK    4  A    between atoms: C_7  and  C_8
REMARK    5  A    between atoms: N_9  and  N_10
REMARK    6  A    between atoms: C_11  and  O_13
REMARK    7  A    between atoms: O_13  and  C_14
REMARK    8  A    between atoms: C_14  and  C_15
REMARK    9  A    between atoms: C_14  and  C_16
REMARK   10  A    between atoms: C_14  and  C_17
REMARK   11  A    between atoms: C_19  and  N_20
REMARK                            x       y       z     vdW  Elec       q    Type
REMARK                         _______ _______ _______ _____ _____    ______ ____
ROOT
ATOM      1  C   UNL     1       3.085   7.211  18.588  0.00  0.00    +0.000 C 
ATOM      2  C   UNL     1       3.697   7.287  17.198  0.00  0.00    +0.000 C 
ATOM      3  N   UNL     1       3.435   6.335  19.484  0.00  0.00    +0.000 NA
ENDROOT
BRANCH   1   7
ATOM      4  C   UNL     1       0.055  10.075  19.720  0.00  0.00    +0.000 A 
ATOM      5  C   UNL     1       0.539  10.033  18.408  0.00  0.00    +0.000 A 
ATOM      6  C   UNL     1       1.503   9.095  18.028  0.00  0.00    +0.000 A 
ATOM      7  C   UNL     1       2.039   8.206  18.963  0.00  0.00    +0.000 A 
ATOM      8  C   UNL     1       1.571   8.235  20.283  0.00  0.00    +0.000 A 
ATOM      9  C   UNL     1       0.596   9.175  20.645  0.00  0.00    +0.000 A 
BRANCH   9  10
ATOM     10  N   UNL     1       0.125   9.158  22.016  0.00  0.00    +0.000 N 
ATOM     11  O   UNL     1      -0.829   8.417  22.287  0.00  0.00    +0.000 OA
ATOM     12  O   UNL     1       0.680   9.935  22.807  0.00  0.00    +0.000 OA
ENDBRANCH   9  10
BRANCH   4  14
ATOM     13  C   UNL     1      -1.777  11.439  19.106  0.00  0.00    +0.000 C 
ATOM     14  O   UNL     1      -0.908  10.957  20.129  0.00  0.00    +0.000 OA
ENDBRANCH   4  14
ENDBRANCH   1   7
BRANCH   3  15
ATOM     15  N   UNL     1       4.401   5.434  19.170  0.00  0.00    +0.000 N 
ATOM     16  C   UNL     1       4.286   4.083  19.429  0.00  0.00    +0.000 C 
ATOM     17  O   UNL     1       5.203   3.319  19.154  0.00  0.00    +0.000 OA
ATOM     18  H   UNL     1       5.275   5.713  18.747  0.00  0.00    +0.000 HD
BRANCH  16  19
ATOM     19  O   UNL     1       3.093   3.734  19.982  0.00  0.00    +0.000 OA
BRANCH  19  20
ATOM     20  C   UNL     1       2.047   3.158  19.161  0.00  0.00    +0.000 C 
ATOM     21  C   UNL     1       2.162   1.629  19.110  0.00  0.00    +0.000 C 
ATOM     22  C   UNL     1       0.723   3.524  19.847  0.00  0.00    +0.000 C 
ATOM     23  C   UNL     1       2.037   3.776  17.752  0.00  0.00    +0.000 C 
ENDBRANCH  19  20
ENDBRANCH  16  19
ENDBRANCH   3  15
TORSDOF 6
ENDMDL
MODEL 8
REMARK VINA RESULT:      -6.7      0.205      1.173
REMARK  Name = 
REMARK  11 active torsions:
REMARK  status: ('A' for Active; 'I' for Inactive)
REMARK    1  A    between atoms: C_1  and  O_2
REMARK    2  A    between atoms: O_2  and  C_3
REMARK    3  A    between atoms: C_6  and  C_7
REMARK    4  A    between atoms: C_7  and  C_8
REMARK    5  A    between atoms: N_9  and  N_10
REMARK    6  A    between atoms: C_11  and  O_13
REMARK    7  A    between atoms: O_13  and  C_14
REMARK    8  A    between atoms: C_14  and  C_15
REMARK    9  A    between atoms: C_14  and  C_16
REMARK   10  A    between atoms: C_14  and  C_17
REMARK   11  A    between atoms: C_19  and  N_20
REMARK                            x       y       z     vdW  Elec       q    Type
REMARK                         _______ _______ _______ _____ _____    ______ ____
ROOT
ATOM      1  C   UNL     1       2.945   6.868  17.983  0.00  0.00    +0.000 C 
ATOM      2  C   UNL     1       4.332   7.061  17.393  0.00  0.00    +0.000 C 
ATOM      3  N   UNL     1       2.339   5.717  18.044  0.00  0.00    +0.000 NA
ENDROOT
BRANCH   1   7
ATOM      4  C   UNL     1       0.887  10.279  19.655  0.00  0.00    +0.000 A 
ATOM      5  C   UNL     1       1.348  10.304  18.335  0.00  0.00    +0.000 A 
ATOM      6  C   UNL     1       1.995   9.196  17.779  0.00  0.00    +0.000 A 
ATOM      7  C   UNL     1       2.236   8.054  18.546  0.00  0.00    +0.000 A 
ATOM      8  C   UNL     1       1.787   8.011  19.872  0.00  0.00    +0.000 A 
ATOM      9  C   UNL     1       1.130   9.126  20.410  0.00  0.00    +0.000 A 
BRANCH   9  10
ATOM     10  N   UNL     1       0.663   9.031  21.780  0.00  0.00    +0.000 N 
ATOM     11  O   UNL     1       1.436   9.392  22.677  0.00  0.00    +0.000 OA
ATOM     12  O   UNL     1      -0.461   8.538  21.954  0.00  0.00    +0.000 OA
ENDBRANCH   9  10
BRANCH   4  14
ATOM     13  C   UNL     1       0.569  12.621  19.736  0.00  0.00    +0.000 C 
ATOM     14  O   UNL     1       0.225  11.328  20.232  0.00  0.00    +0.000 OA
ENDBRANCH   4  14
ENDBRANCH   1   7
BRANCH   3  15
ATOM     15  N   UNL     1       2.976   4.622  17.556  0.00  0.00    +0.000 N 
ATOM     16  C   UNL     1       3.472   3.617  18.361  0.00  0.00    +0.000 C 
ATOM     17  O   UNL     1       4.067   2.665  17.870  0.00  0.00    +0.000 OA
ATOM     18  H   UNL     1       3.144   4.497  16.567  0.00  0.00    +0.000 HD
BRANCH  16  19
ATOM     19  O   UNL     1       3.216   3.802  19.685  0.00  0.00    +0.000 OA
BRANCH  19  20
ATOM     20  C   UNL     1       2.080   3.154  20.307  0.00  0.00    +0.000 C 
ATOM     21  C   UNL     1       0.904   4.127  20.462  0.00  0.00    +0.000 C 
ATOM     22  C   UNL     1       1.658   2.030  19.348  0.00  0.00    +0.000 C 
ATOM     23  C   UNL     1       2.467   2.509  21.649  0.00  0.00    +0.000 C 
ENDBRANCH  19  20
ENDBRANCH  16  19
ENDBRANCH   3  15
TORSDOF 6
ENDMDL
MODEL 9
REMARK VINA RESULT:      -6.7      2.606      7.037
REMARK  Name = 
REMARK  11 active torsions:
REMARK  status: ('A' for Active; 'I' for Inactive)
REMARK    1  A    between atoms: C_1  and  O_2
REMARK    2  A    between atoms: O_2  and  C_3
REMARK    3  A    between atoms: C_6  and  C_7
REMARK    4  A    between atoms: C_7  and  C_8
REMARK    5  A    between atoms: N_9  and  N_10
REMARK    6  A    between atoms: C_11  and  O_13
REMARK    7  A    between atoms: O_13  and  C_14
REMARK    8  A    between atoms: C_14  and  C_15
REMARK    9  A    between atoms: C_14  and  C_16
REMARK   10  A    between atoms: C_14  and  C_17
REMARK   11  A    between atoms: C_19  and  N_20
REMARK                            x       y       z     vdW  Elec       q    Type
REMARK                         _______ _______ _______ _____ _____    ______ ____
ROOT
ATOM      1  C   UNL     1       2.397   5.625  19.839  0.00  0.00    +0.000 C 
ATOM      2  C   UNL     1       1.498   4.565  20.453  0.00  0.00    +0.000 C 
ATOM      3  N   UNL     1       2.310   6.894  20.113  0.00  0.00    +0.000 NA
ENDROOT
BRANCH   1   7
ATOM      4  C   UNL     1       5.501   4.405  17.092  0.00  0.00    +0.000 A 
ATOM      5  C   UNL     1       4.177   4.000  16.894  0.00  0.00    +0.000 A 
ATOM      6  C   UNL     1       3.163   4.409  17.765  0.00  0.00    +0.000 A 
ATOM      7  C   UNL     1       3.458   5.195  18.881  0.00  0.00    +0.000 A 
ATOM      8  C   UNL     1       4.779   5.606  19.101  0.00  0.00    +0.000 A 
ATOM      9  C   UNL     1       5.781   5.196  18.212  0.00  0.00    +0.000 A 
BRANCH   9  10
ATOM     10  N   UNL     1       7.132   5.662  18.464  0.00  0.00    +0.000 N 
ATOM     11  O   UNL     1       7.514   6.672  17.861  0.00  0.00    +0.000 OA
ATOM     12  O   UNL     1       7.826   4.973  19.227  0.00  0.00    +0.000 OA
ENDBRANCH   9  10
BRANCH   4  14
ATOM     13  C   UNL     1       6.243   4.184  14.858  0.00  0.00    +0.000 C 
ATOM     14  O   UNL     1       6.520   4.052  16.251  0.00  0.00    +0.000 OA
ENDBRANCH   4  14
ENDBRANCH   1   7
BRANCH   3  15
ATOM     15  N   UNL     1       1.365   7.303  20.998  0.00  0.00    +0.000 N 
ATOM     16  C   UNL     1       0.984   8.622  21.140  0.00  0.00    +0.000 C 
ATOM     17  O   UNL     1       0.149   8.940  21.977  0.00  0.00    +0.000 OA
ATOM     18  H   UNL     1       0.904   6.658  21.625  0.00  0.00    +0.000 HD
BRANCH  16  19
ATOM     19  O   UNL     1       1.608   9.465  20.272  0.00  0.00    +0.000 OA
BRANCH  19  20
ATOM     20  C   UNL     1       0.893   9.999  19.131  0.00  0.00    +0.000 C 
ATOM     21  C   UNL     1      -0.622   9.992  19.374  0.00  0.00    +0.000 C 
ATOM     22  C   UNL     1       1.356  11.456  18.987  0.00  0.00    +0.000 C 
ATOM     23  C   UNL     1       1.266   9.254  17.837  0.00  0.00    +0.000 C 
ENDBRANCH  19  20
ENDBRANCH  16  19
ENDBRANCH   3  15
TORSDOF 6
ENDMDL
