MODEL 1
REMARK VINA RESULT:      -8.9      0.000      0.000
REMARK  Name = 
REMARK  5 active torsions:
REMARK  status: ('A' for Active; 'I' for Inactive)
REMARK    1  A    between atoms: N_12  and  C_13
REMARK    2  A    between atoms: C_13  and  C_14
REMARK    3  A    between atoms: C_14  and  C_15
REMARK    4  A    between atoms: N_18  and  C_19
REMARK    5  A    between atoms: C_19  and  C_20
REMARK                            x       y       z     vdW  Elec       q    Type
REMARK                         _______ _______ _______ _____ _____    ______ ____
ROOT
ATOM      1  C   UNL     1       1.418   9.152  21.054  0.00  0.00    +0.000 C 
ENDROOT
BRANCH   1  13
ATOM      2  O   UNL     1       0.121   9.976  23.541  0.00  0.00    +0.000 OA
ATOM      3  C   UNL     1      -0.162  10.427  22.449  0.00  0.00    +0.000 C 
ATOM      4  C   UNL     1      -1.285  11.347  22.199  0.00  0.00    +0.000 A 
ATOM      5  C   UNL     1      -2.175  11.868  23.121  0.00  0.00    +0.000 A 
ATOM      6  C   UNL     1      -3.133  12.701  22.588  0.00  0.00    +0.000 A 
ATOM      7  C   UNL     1      -3.199  12.985  21.234  0.00  0.00    +0.000 A 
ATOM      8  C   UNL     1      -2.314  12.455  20.313  0.00  0.00    +0.000 A 
ATOM      9  C   UNL     1      -1.330  11.609  20.807  0.00  0.00    +0.000 A 
ATOM     10  C   UNL     1      -0.235  10.851  20.123  0.00  0.00    +0.000 C 
ATOM     11  C   UNL     1       0.492  11.400  18.928  0.00  0.00    +0.000 C 
ATOM     12  C   UNL     1      -0.461  10.249  18.758  0.00  0.00    +0.000 C 
ATOM     13  N   UNL     1       0.442  10.191  21.218  0.00  0.00    +0.000 N 
ATOM     14  O   UNL     1      -4.223  13.829  20.936  0.00  0.00    +0.000 OA
ATOM     15  C   UNL     1      -4.794  14.041  22.244  0.00  0.00    +0.000 C 
ATOM     16  O   UNL     1      -4.108  13.330  23.295  0.00  0.00    +0.000 OA
ENDBRANCH   1  13
BRANCH   1  17
ATOM     17  C   UNL     1       0.862   7.728  21.228  0.00  0.00    +0.000 C 
BRANCH  17  18
ATOM     18  C   UNL     1       1.866   6.750  20.616  0.00  0.00    +0.000 C 
ATOM     19  C   UNL     1       1.326   5.319  20.550  0.00  0.00    +0.000 C 
ATOM     20  C   UNL     1       2.501   4.386  20.312  0.00  0.00    +0.000 C 
ATOM     21  N   UNL     1       3.215   4.681  19.061  0.00  0.00    +0.000 NA
ATOM     22  C   UNL     1       3.525   6.117  18.878  0.00  0.00    +0.000 C 
ATOM     23  C   UNL     1       2.361   7.075  19.207  0.00  0.00    +0.000 C 
BRANCH  21  24
ATOM     24  C   UNL     1       4.471   3.898  19.018  0.00  0.00    +0.000 C 
BRANCH  24  25
ATOM     25  C   UNL     1       5.325   4.179  17.798  0.00  0.00    +0.000 A 
ATOM     26  C   UNL     1       6.662   4.592  17.935  0.00  0.00    +0.000 A 
ATOM     27  C   UNL     1       7.444   4.860  16.807  0.00  0.00    +0.000 A 
ATOM     28  C   UNL     1       6.899   4.710  15.534  0.00  0.00    +0.000 A 
ATOM     29  C   UNL     1       5.583   4.283  15.398  0.00  0.00    +0.000 A 
ATOM     30  F   UNL     1       5.066   4.125  14.172  0.00  0.00    +0.000 F 
ATOM     31  C   UNL     1       4.795   4.016  16.512  0.00  0.00    +0.000 A 
ENDBRANCH  24  25
ENDBRANCH  21  24
ENDBRANCH  17  18
ENDBRANCH   1  17
TORSDOF 5
ENDMDL
MODEL 2
REMARK VINA RESULT:      -8.7      1.044      1.602
REMARK  Name = 
REMARK  5 active torsions:
REMARK  status: ('A' for Active; 'I' for Inactive)
REMARK    1  A    between atoms: N_12  and  C_13
REMARK    2  A    between atoms: C_13  and  C_14
REMARK    3  A    between atoms: C_14  and  C_15
REMARK    4  A    between atoms: N_18  and  C_19
REMARK    5  A    between atoms: C_19  and  C_20
REMARK                            x       y       z     vdW  Elec       q    Type
REMARK                         _______ _______ _______ _____ _____    ______ ____
ROOT
ATOM      1  C   UNL     1       1.386   8.856  21.354  0.00  0.00    +0.000 C 
ENDROOT
BRANCH   1  13
ATOM      2  O   UNL     1      -0.022   9.874  23.706  0.00  0.00    +0.000 OA
ATOM      3  C   UNL     1      -0.170  10.317  22.584  0.00  0.00    +0.000 C 
ATOM      4  C   UNL     1      -1.175  11.331  22.221  0.00  0.00    +0.000 A 
ATOM      5  C   UNL     1      -2.082  11.961  23.053  0.00  0.00    +0.000 A 
ATOM      6  C   UNL     1      -2.908  12.865  22.424  0.00  0.00    +0.000 A 
ATOM      7  C   UNL     1      -2.837  13.113  21.063  0.00  0.00    +0.000 A 
ATOM      8  C   UNL     1      -1.936  12.474  20.231  0.00  0.00    +0.000 A 
ATOM      9  C   UNL     1      -1.082  11.554  20.824  0.00  0.00    +0.000 A 
ATOM     10  C   UNL     1      -0.013  10.675  20.251  0.00  0.00    +0.000 C 
ATOM     11  C   UNL     1       0.857  11.116  19.109  0.00  0.00    +0.000 C 
ATOM     12  C   UNL     1      -0.186  10.056  18.886  0.00  0.00    +0.000 C 
ATOM     13  N   UNL     1       0.505   9.988  21.414  0.00  0.00    +0.000 N 
ATOM     14  O   UNL     1      -3.747  14.041  20.663  0.00  0.00    +0.000 OA
ATOM     15  C   UNL     1      -4.399  14.345  21.913  0.00  0.00    +0.000 C 
ATOM     16  O   UNL     1      -3.873  13.604  23.033  0.00  0.00    +0.000 OA
ENDBRANCH   1  13
BRANCH   1  17
ATOM     17  C   UNL     1       0.669   7.496  21.350  0.00  0.00    +0.000 C 
BRANCH  17  18
ATOM     18  C   UNL     1       1.355   6.602  20.315  0.00  0.00    +0.000 C 
ATOM     19  C   UNL     1       2.551   7.285  19.649  0.00  0.00    +0.000 C 
ATOM     20  C   UNL     1       2.902   6.500  18.397  0.00  0.00    +0.000 C 
ATOM     21  N   UNL     1       3.255   5.102  18.685  0.00  0.00    +0.000 NA
ATOM     22  C   UNL     1       2.299   4.422  19.589  0.00  0.00    +0.000 C 
ATOM     23  C   UNL     1       1.869   5.252  20.816  0.00  0.00    +0.000 C 
BRANCH  21  24
ATOM     24  C   UNL     1       3.349   4.349  17.414  0.00  0.00    +0.000 C 
BRANCH  24  25
ATOM     25  C   UNL     1       4.707   4.441  16.747  0.00  0.00    +0.000 A 
ATOM     26  C   UNL     1       4.817   4.615  15.356  0.00  0.00    +0.000 A 
ATOM     27  C   UNL     1       6.071   4.690  14.744  0.00  0.00    +0.000 A 
ATOM     28  C   UNL     1       7.227   4.599  15.518  0.00  0.00    +0.000 A 
ATOM     29  C   UNL     1       7.119   4.448  16.895  0.00  0.00    +0.000 A 
ATOM     30  F   UNL     1       8.231   4.376  17.638  0.00  0.00    +0.000 F 
ATOM     31  C   UNL     1       5.876   4.369  17.515  0.00  0.00    +0.000 A 
ENDBRANCH  24  25
ENDBRANCH  21  24
ENDBRANCH  17  18
ENDBRANCH   1  17
TORSDOF 5
ENDMDL
MODEL 3
REMARK VINA RESULT:      -8.6      1.694      2.019
REMARK  Name = 
REMARK  5 active torsions:
REMARK  status: ('A' for Active; 'I' for Inactive)
REMARK    1  A    between atoms: N_12  and  C_13
REMARK    2  A    between atoms: C_13  and  C_14
REMARK    3  A    between atoms: C_14  and  C_15
REMARK    4  A    between atoms: N_18  and  C_19
REMARK    5  A    between atoms: C_19  and  C_20
REMARK                            x       y       z     vdW  Elec       q    Type
REMARK                         _______ _______ _______ _____ _____    ______ ____
ROOT
ATOM      1  C   UNL     1       1.803   8.980  21.215  0.00  0.00    +0.000 C 
ENDROOT
BRANCH   1  13
ATOM      2  O   UNL     1       0.384   9.672  23.675  0.00  0.00    +0.000 OA
ATOM      3  C   UNL     1       0.137  10.162  22.591  0.00  0.00    +0.000 C 
ATOM      4  C   UNL     1      -0.995  11.068  22.331  0.00  0.00    +0.000 A 
ATOM      5  C   UNL     1      -1.935  11.531  23.234  0.00  0.00    +0.000 A 
ATOM      6  C   UNL     1      -2.888  12.365  22.695  0.00  0.00    +0.000 A 
ATOM      7  C   UNL     1      -2.904  12.704  21.352  0.00  0.00    +0.000 A 
ATOM      8  C   UNL     1      -1.969  12.232  20.449  0.00  0.00    +0.000 A 
ATOM      9  C   UNL     1      -0.987  11.387  20.950  0.00  0.00    +0.000 A 
ATOM     10  C   UNL     1       0.153  10.682  20.284  0.00  0.00    +0.000 C 
ATOM     11  C   UNL     1       0.916  11.295  19.144  0.00  0.00    +0.000 C 
ATOM     12  C   UNL     1      -0.001  10.133  18.887  0.00  0.00    +0.000 C 
ATOM     13  N   UNL     1       0.797   9.991  21.379  0.00  0.00    +0.000 N 
ATOM     14  O   UNL     1      -3.934  13.538  21.046  0.00  0.00    +0.000 OA
ATOM     15  C   UNL     1      -4.564  13.683  22.336  0.00  0.00    +0.000 C 
ATOM     16  O   UNL     1      -3.907  12.943  23.385  0.00  0.00    +0.000 OA
ENDBRANCH   1  13
BRANCH   1  17
ATOM     17  C   UNL     1       1.247   7.569  20.962  0.00  0.00    +0.000 C 
BRANCH  17  18
ATOM     18  C   UNL     1       2.155   6.877  19.944  0.00  0.00    +0.000 C 
ATOM     19  C   UNL     1       1.751   5.423  19.689  0.00  0.00    +0.000 C 
ATOM     20  C   UNL     1       2.912   4.729  18.998  0.00  0.00    +0.000 C 
ATOM     21  N   UNL     1       3.265   5.354  17.716  0.00  0.00    +0.000 NA
ATOM     22  C   UNL     1       3.386   6.828  17.787  0.00  0.00    +0.000 C 
ATOM     23  C   UNL     1       2.256   7.531  18.566  0.00  0.00    +0.000 C 
BRANCH  21  24
ATOM     24  C   UNL     1       4.538   4.780  17.225  0.00  0.00    +0.000 C 
BRANCH  24  25
ATOM     25  C   UNL     1       5.770   5.518  17.712  0.00  0.00    +0.000 A 
ATOM     26  C   UNL     1       6.291   6.605  16.989  0.00  0.00    +0.000 A 
ATOM     27  C   UNL     1       7.433   7.277  17.436  0.00  0.00    +0.000 A 
ATOM     28  C   UNL     1       8.059   6.872  18.613  0.00  0.00    +0.000 A 
ATOM     29  C   UNL     1       7.532   5.810  19.339  0.00  0.00    +0.000 A 
ATOM     30  F   UNL     1       8.128   5.434  20.478  0.00  0.00    +0.000 F 
ATOM     31  C   UNL     1       6.399   5.133  18.903  0.00  0.00    +0.000 A 
ENDBRANCH  24  25
ENDBRANCH  21  24
ENDBRANCH  17  18
ENDBRANCH   1  17
TORSDOF 5
ENDMDL
MODEL 4
REMARK VINA RESULT:      -8.6      0.623      1.091
REMARK  Name = 
REMARK  5 active torsions:
REMARK  status: ('A' for Active; 'I' for Inactive)
REMARK    1  A    between atoms: N_12  and  C_13
REMARK    2  A    between atoms: C_13  and  C_14
REMARK    3  A    between atoms: C_14  and  C_15
REMARK    4  A    between atoms: N_18  and  C_19
REMARK    5  A    between atoms: C_19  and  C_20
REMARK                            x       y       z     vdW  Elec       q    Type
REMARK                         _______ _______ _______ _____ _____    ______ ____
ROOT
ATOM      1  C   UNL     1       1.500   8.786  21.254  0.00  0.00    +0.000 C 
ENDROOT
BRANCH   1  13
ATOM      2  O   UNL     1       0.146   9.768  23.652  0.00  0.00    +0.000 OA
ATOM      3  C   UNL     1      -0.031  10.224  22.541  0.00  0.00    +0.000 C 
ATOM      4  C   UNL     1      -1.049  11.239  22.215  0.00  0.00    +0.000 A 
ATOM      5  C   UNL     1      -1.938  11.854  23.078  0.00  0.00    +0.000 A 
ATOM      6  C   UNL     1      -2.783  12.762  22.481  0.00  0.00    +0.000 A 
ATOM      7  C   UNL     1      -2.746  13.028  21.123  0.00  0.00    +0.000 A 
ATOM      8  C   UNL     1      -1.863  12.404  20.260  0.00  0.00    +0.000 A 
ATOM      9  C   UNL     1      -0.991  11.480  20.820  0.00  0.00    +0.000 A 
ATOM     10  C   UNL     1       0.066  10.614  20.210  0.00  0.00    +0.000 C 
ATOM     11  C   UNL     1       0.906  11.073  19.052  0.00  0.00    +0.000 C 
ATOM     12  C   UNL     1      -0.137  10.012  18.841  0.00  0.00    +0.000 C 
ATOM     13  N   UNL     1       0.616   9.913  21.350  0.00  0.00    +0.000 N 
ATOM     14  O   UNL     1      -3.670  13.958  20.757  0.00  0.00    +0.000 OA
ATOM     15  C   UNL     1      -4.292  14.243  22.027  0.00  0.00    +0.000 C 
ATOM     16  O   UNL     1      -3.735  13.489  23.124  0.00  0.00    +0.000 OA
ENDBRANCH   1  13
BRANCH   1  17
ATOM     17  C   UNL     1       0.793   7.422  21.304  0.00  0.00    +0.000 C 
BRANCH  17  18
ATOM     18  C   UNL     1       1.512   6.480  20.336  0.00  0.00    +0.000 C 
ATOM     19  C   UNL     1       2.612   7.185  19.538  0.00  0.00    +0.000 C 
ATOM     20  C   UNL     1       2.978   6.298  18.361  0.00  0.00    +0.000 C 
ATOM     21  N   UNL     1       3.468   4.976  18.778  0.00  0.00    +0.000 NA
ATOM     22  C   UNL     1       2.618   4.322  19.798  0.00  0.00    +0.000 C 
ATOM     23  C   UNL     1       2.168   5.243  20.951  0.00  0.00    +0.000 C 
BRANCH  21  24
ATOM     24  C   UNL     1       3.575   4.097  17.591  0.00  0.00    +0.000 C 
BRANCH  24  25
ATOM     25  C   UNL     1       4.869   4.266  16.820  0.00  0.00    +0.000 A 
ATOM     26  C   UNL     1       6.078   4.525  17.489  0.00  0.00    +0.000 A 
ATOM     27  C   UNL     1       7.268   4.690  16.774  0.00  0.00    +0.000 A 
ATOM     28  C   UNL     1       7.260   4.590  15.384  0.00  0.00    +0.000 A 
ATOM     29  C   UNL     1       6.069   4.314  14.723  0.00  0.00    +0.000 A 
ATOM     30  F   UNL     1       6.068   4.203  13.388  0.00  0.00    +0.000 F 
ATOM     31  C   UNL     1       4.879   4.150  15.424  0.00  0.00    +0.000 A 
ENDBRANCH  24  25
ENDBRANCH  21  24
ENDBRANCH  17  18
ENDBRANCH   1  17
TORSDOF 5
ENDMDL
MODEL 5
REMARK VINA RESULT:      -8.5      4.589     10.880
REMARK  Name = 
REMARK  5 active torsions:
REMARK  status: ('A' for Active; 'I' for Inactive)
REMARK    1  A    between atoms: N_12  and  C_13
REMARK    2  A    between atoms: C_13  and  C_14
REMARK    3  A    between atoms: C_14  and  C_15
REMARK    4  A    between atoms: N_18  and  C_19
REMARK    5  A    between atoms: C_19  and  C_20
REMARK                            x       y       z     vdW  Elec       q    Type
REMARK                         _______ _______ _______ _____ _____    ______ ____
ROOT
ATOM      1  C   UNL     1       1.298   7.273  19.982  0.00  0.00    +0.000 C 
ENDROOT
BRANCH   1  13
ATOM      2  O   UNL     1       2.950   8.635  17.991  0.00  0.00    +0.000 OA
ATOM      3  C   UNL     1       3.031   7.448  18.240  0.00  0.00    +0.000 C 
ATOM      4  C   UNL     1       3.868   6.499  17.486  0.00  0.00    +0.000 A 
ATOM      5  C   UNL     1       4.702   6.770  16.416  0.00  0.00    +0.000 A 
ATOM      6  C   UNL     1       5.356   5.672  15.906  0.00  0.00    +0.000 A 
ATOM      7  C   UNL     1       5.183   4.399  16.422  0.00  0.00    +0.000 A 
ATOM      8  C   UNL     1       4.341   4.129  17.485  0.00  0.00    +0.000 A 
ATOM      9  C   UNL     1       3.660   5.208  18.032  0.00  0.00    +0.000 A 
ATOM     10  C   UNL     1       2.671   5.296  19.152  0.00  0.00    +0.000 C 
ATOM     11  C   UNL     1       2.763   4.421  20.370  0.00  0.00    +0.000 C 
ATOM     12  C   UNL     1       1.665   4.192  19.370  0.00  0.00    +0.000 C 
ATOM     13  N   UNL     1       2.377   6.710  19.221  0.00  0.00    +0.000 N 
ATOM     14  O   UNL     1       5.929   3.472  15.761  0.00  0.00    +0.000 OA
ATOM     15  C   UNL     1       6.584   4.297  14.775  0.00  0.00    +0.000 C 
ATOM     16  O   UNL     1       6.227   5.692  14.861  0.00  0.00    +0.000 OA
ENDBRANCH   1  13
BRANCH   1  17
ATOM     17  C   UNL     1       1.735   7.964  21.285  0.00  0.00    +0.000 C 
BRANCH  17  18
ATOM     18  C   UNL     1       0.916   9.246  21.439  0.00  0.00    +0.000 C 
ATOM     19  C   UNL     1       0.001   9.508  20.240  0.00  0.00    +0.000 C 
ATOM     20  C   UNL     1      -0.450  10.956  20.303  0.00  0.00    +0.000 C 
ATOM     21  N   UNL     1      -1.186  11.268  21.536  0.00  0.00    +0.000 NA
ATOM     22  C   UNL     1      -0.521  10.779  22.765  0.00  0.00    +0.000 C 
ATOM     23  C   UNL     1       0.021   9.337  22.675  0.00  0.00    +0.000 C 
BRANCH  21  24
ATOM     24  C   UNL     1      -1.382  12.732  21.633  0.00  0.00    +0.000 C 
BRANCH  24  25
ATOM     25  C   UNL     1      -2.161  13.166  22.859  0.00  0.00    +0.000 A 
ATOM     26  C   UNL     1      -1.798  14.323  23.571  0.00  0.00    +0.000 A 
ATOM     27  C   UNL     1      -2.513  14.714  24.707  0.00  0.00    +0.000 A 
ATOM     28  C   UNL     1      -3.600  13.956  25.137  0.00  0.00    +0.000 A 
ATOM     29  C   UNL     1      -3.971  12.823  24.422  0.00  0.00    +0.000 A 
ATOM     30  F   UNL     1      -5.026  12.106  24.829  0.00  0.00    +0.000 F 
ATOM     31  C   UNL     1      -3.266  12.423  23.292  0.00  0.00    +0.000 A 
ENDBRANCH  24  25
ENDBRANCH  21  24
ENDBRANCH  17  18
ENDBRANCH   1  17
TORSDOF 5
ENDMDL
MODEL 6
REMARK VINA RESULT:      -8.5      4.861     10.143
REMARK  Name = 
REMARK  5 active torsions:
REMARK  status: ('A' for Active; 'I' for Inactive)
REMARK    1  A    between atoms: N_12  and  C_13
REMARK    2  A    between atoms: C_13  and  C_14
REMARK    3  A    between atoms: C_14  and  C_15
REMARK    4  A    between atoms: N_18  and  C_19
REMARK    5  A    between atoms: C_19  and  C_20
REMARK                            x       y       z     vdW  Elec       q    Type
REMARK                         _______ _______ _______ _____ _____    ______ ____
ROOT
ATOM      1  C   UNL     1       3.798   3.901  20.328  0.00  0.00    +0.000 C 
ENDROOT
BRANCH   1  13
ATOM      2  O   UNL     1       6.099   5.557  19.612  0.00  0.00    +0.000 OA
ATOM      3  C   UNL     1       5.562   4.778  18.849  0.00  0.00    +0.000 C 
ATOM      4  C   UNL     1       5.899   4.654  17.420  0.00  0.00    +0.000 A 
ATOM      5  C   UNL     1       6.863   5.350  16.714  0.00  0.00    +0.000 A 
ATOM      6  C   UNL     1       6.945   5.024  15.379  0.00  0.00    +0.000 A 
ATOM      7  C   UNL     1       6.119   4.079  14.794  0.00  0.00    +0.000 A 
ATOM      8  C   UNL     1       5.149   3.391  15.501  0.00  0.00    +0.000 A 
ATOM      9  C   UNL     1       5.032   3.688  16.852  0.00  0.00    +0.000 A 
ATOM     10  C   UNL     1       4.104   3.172  17.907  0.00  0.00    +0.000 C 
ATOM     11  C   UNL     1       3.631   1.746  17.928  0.00  0.00    +0.000 C 
ATOM     12  C   UNL     1       2.670   2.845  17.568  0.00  0.00    +0.000 C 
ATOM     13  N   UNL     1       4.535   3.874  19.096  0.00  0.00    +0.000 N 
ATOM     14  O   UNL     1       6.378   3.921  13.468  0.00  0.00    +0.000 OA
ATOM     15  C   UNL     1       7.450   4.869  13.282  0.00  0.00    +0.000 C 
ATOM     16  O   UNL     1       7.814   5.571  14.488  0.00  0.00    +0.000 OA
ENDBRANCH   1  13
BRANCH   1  17
ATOM     17  C   UNL     1       2.337   4.358  20.182  0.00  0.00    +0.000 C 
BRANCH  17  18
ATOM     18  C   UNL     1       2.340   5.844  19.818  0.00  0.00    +0.000 C 
ATOM     19  C   UNL     1       2.000   6.088  18.345  0.00  0.00    +0.000 C 
ATOM     20  C   UNL     1       2.411   7.509  18.000  0.00  0.00    +0.000 C 
ATOM     21  N   UNL     1       1.718   8.515  18.819  0.00  0.00    +0.000 NA
ATOM     22  C   UNL     1       1.726   8.209  20.268  0.00  0.00    +0.000 C 
ATOM     23  C   UNL     1       1.398   6.743  20.619  0.00  0.00    +0.000 C 
BRANCH  21  24
ATOM     24  C   UNL     1       2.338   9.840  18.594  0.00  0.00    +0.000 C 
BRANCH  24  25
ATOM     25  C   UNL     1       1.342  10.984  18.564  0.00  0.00    +0.000 A 
ATOM     26  C   UNL     1      -0.040  10.733  18.511  0.00  0.00    +0.000 A 
ATOM     27  C   UNL     1      -0.955  11.790  18.473  0.00  0.00    +0.000 A 
ATOM     28  C   UNL     1      -0.495  13.106  18.494  0.00  0.00    +0.000 A 
ATOM     29  C   UNL     1       0.871  13.353  18.567  0.00  0.00    +0.000 A 
ATOM     30  F   UNL     1       1.308  14.619  18.603  0.00  0.00    +0.000 F 
ATOM     31  C   UNL     1       1.789  12.310  18.603  0.00  0.00    +0.000 A 
ENDBRANCH  24  25
ENDBRANCH  21  24
ENDBRANCH  17  18
ENDBRANCH   1  17
TORSDOF 5
ENDMDL
MODEL 7
REMARK VINA RESULT:      -8.4      4.706     11.011
REMARK  Name = 
REMARK  5 active torsions:
REMARK  status: ('A' for Active; 'I' for Inactive)
REMARK    1  A    between atoms: N_12  and  C_13
REMARK    2  A    between atoms: C_13  and  C_14
REMARK    3  A    between atoms: C_14  and  C_15
REMARK    4  A    between atoms: N_18  and  C_19
REMARK    5  A    between atoms: C_19  and  C_20
REMARK                            x       y       z     vdW  Elec       q    Type
REMARK                         _______ _______ _______ _____ _____    ______ ____
ROOT
ATOM      1  C   UNL     1       1.228   7.428  19.957  0.00  0.00    +0.000 C 
ENDROOT
BRANCH   1  13
ATOM      2  O   UNL     1       2.879   8.754  17.941  0.00  0.00    +0.000 OA
ATOM      3  C   UNL     1       2.974   7.577  18.225  0.00  0.00    +0.000 C 
ATOM      4  C   UNL     1       3.831   6.619  17.506  0.00  0.00    +0.000 A 
ATOM      5  C   UNL     1       4.670   6.870  16.436  0.00  0.00    +0.000 A 
ATOM      6  C   UNL     1       5.345   5.768  15.963  0.00  0.00    +0.000 A 
ATOM      7  C   UNL     1       5.186   4.507  16.515  0.00  0.00    +0.000 A 
ATOM      8  C   UNL     1       4.339   4.256  17.578  0.00  0.00    +0.000 A 
ATOM      9  C   UNL     1       3.638   5.341  18.088  0.00  0.00    +0.000 A 
ATOM     10  C   UNL     1       2.637   5.447  19.197  0.00  0.00    +0.000 C 
ATOM     11  C   UNL     1       2.731   4.610  20.441  0.00  0.00    +0.000 C 
ATOM     12  C   UNL     1       1.645   4.336  19.439  0.00  0.00    +0.000 C 
ATOM     13  N   UNL     1       2.322   6.859  19.221  0.00  0.00    +0.000 N 
ATOM     14  O   UNL     1       5.951   3.573  15.889  0.00  0.00    +0.000 OA
ATOM     15  C   UNL     1       6.603   4.378  14.884  0.00  0.00    +0.000 C 
ATOM     16  O   UNL     1       6.224   5.769  14.926  0.00  0.00    +0.000 OA
ENDBRANCH   1  13
BRANCH   1  17
ATOM     17  C   UNL     1       1.604   7.933  21.360  0.00  0.00    +0.000 C 
BRANCH  17  18
ATOM     18  C   UNL     1       0.867   9.251  21.602  0.00  0.00    +0.000 C 
ATOM     19  C   UNL     1       0.179   9.780  20.341  0.00  0.00    +0.000 C 
ATOM     20  C   UNL     1      -0.170  11.239  20.575  0.00  0.00    +0.000 C 
ATOM     21  N   UNL     1      -1.069  11.431  21.721  0.00  0.00    +0.000 NA
ATOM     22  C   UNL     1      -0.648  10.699  22.937  0.00  0.00    +0.000 C 
ATOM     23  C   UNL     1      -0.206   9.241  22.691  0.00  0.00    +0.000 C 
BRANCH  21  24
ATOM     24  C   UNL     1      -1.170  12.876  22.028  0.00  0.00    +0.000 C 
BRANCH  24  25
ATOM     25  C   UNL     1      -2.474  13.271  22.693  0.00  0.00    +0.000 A 
ATOM     26  C   UNL     1      -3.693  12.707  22.279  0.00  0.00    +0.000 A 
ATOM     27  C   UNL     1      -4.894  13.082  22.888  0.00  0.00    +0.000 A 
ATOM     28  C   UNL     1      -4.887  14.017  23.920  0.00  0.00    +0.000 A 
ATOM     29  C   UNL     1      -3.679  14.560  24.343  0.00  0.00    +0.000 A 
ATOM     30  F   UNL     1      -3.673  15.448  25.347  0.00  0.00    +0.000 F 
ATOM     31  C   UNL     1      -2.478  14.198  23.744  0.00  0.00    +0.000 A 
ENDBRANCH  24  25
ENDBRANCH  21  24
ENDBRANCH  17  18
ENDBRANCH   1  17
TORSDOF 5
ENDMDL
MODEL 8
REMARK VINA RESULT:      -8.4      2.490      3.568
REMARK  Name = 
REMARK  5 active torsions:
REMARK  status: ('A' for Active; 'I' for Inactive)
REMARK    1  A    between atoms: N_12  and  C_13
REMARK    2  A    between atoms: C_13  and  C_14
REMARK    3  A    between atoms: C_14  and  C_15
REMARK    4  A    between atoms: N_18  and  C_19
REMARK    5  A    between atoms: C_19  and  C_20
REMARK                            x       y       z     vdW  Elec       q    Type
REMARK                         _______ _______ _______ _____ _____    ______ ____
ROOT
ATOM      1  C   UNL     1       1.289  10.748  18.995  0.00  0.00    +0.000 C 
ENDROOT
BRANCH   1  13
ATOM      2  O   UNL     1       0.954  10.418  21.881  0.00  0.00    +0.000 OA
ATOM      3  C   UNL     1       0.187  11.046  21.178  0.00  0.00    +0.000 C 
ATOM      4  C   UNL     1      -1.089  11.614  21.646  0.00  0.00    +0.000 A 
ATOM      5  C   UNL     1      -1.621  11.564  22.922  0.00  0.00    +0.000 A 
ATOM      6  C   UNL     1      -2.844  12.180  23.059  0.00  0.00    +0.000 A 
ATOM      7  C   UNL     1      -3.489  12.794  21.998  0.00  0.00    +0.000 A 
ATOM      8  C   UNL     1      -2.960  12.834  20.722  0.00  0.00    +0.000 A 
ATOM      9  C   UNL     1      -1.726  12.224  20.537  0.00  0.00    +0.000 A 
ATOM     10  C   UNL     1      -0.873  12.054  19.319  0.00  0.00    +0.000 C 
ATOM     11  C   UNL     1      -0.789  13.105  18.248  0.00  0.00    +0.000 C 
ATOM     12  C   UNL     1      -1.507  11.814  17.971  0.00  0.00    +0.000 C 
ATOM     13  N   UNL     1       0.288  11.354  19.825  0.00  0.00    +0.000 N 
ATOM     14  O   UNL     1      -4.681  13.336  22.367  0.00  0.00    +0.000 OA
ATOM     15  C   UNL     1      -4.718  12.994  23.768  0.00  0.00    +0.000 C 
ATOM     16  O   UNL     1      -3.557  12.263  24.214  0.00  0.00    +0.000 OA
ENDBRANCH   1  13
BRANCH   1  17
ATOM     17  C   UNL     1       0.765   9.617  18.095  0.00  0.00    +0.000 C 
BRANCH  17  18
ATOM     18  C   UNL     1       1.600   8.365  18.370  0.00  0.00    +0.000 C 
ATOM     19  C   UNL     1       2.974   8.416  17.697  0.00  0.00    +0.000 C 
ATOM     20  C   UNL     1       3.546   7.009  17.695  0.00  0.00    +0.000 C 
ATOM     21  N   UNL     1       3.702   6.458  19.049  0.00  0.00    +0.000 NA
ATOM     22  C   UNL     1       2.505   6.632  19.903  0.00  0.00    +0.000 C 
ATOM     23  C   UNL     1       1.866   8.035  19.839  0.00  0.00    +0.000 C 
BRANCH  21  24
ATOM     24  C   UNL     1       4.033   5.018  18.956  0.00  0.00    +0.000 C 
BRANCH  24  25
ATOM     25  C   UNL     1       2.861   4.100  19.243  0.00  0.00    +0.000 A 
ATOM     26  C   UNL     1       2.020   3.661  18.206  0.00  0.00    +0.000 A 
ATOM     27  C   UNL     1       0.934   2.823  18.476  0.00  0.00    +0.000 A 
ATOM     28  C   UNL     1       0.683   2.412  19.784  0.00  0.00    +0.000 A 
ATOM     29  C   UNL     1       1.527   2.831  20.807  0.00  0.00    +0.000 A 
ATOM     30  F   UNL     1       1.293   2.421  22.061  0.00  0.00    +0.000 F 
ATOM     31  C   UNL     1       2.608   3.666  20.550  0.00  0.00    +0.000 A 
ENDBRANCH  24  25
ENDBRANCH  21  24
ENDBRANCH  17  18
ENDBRANCH   1  17
TORSDOF 5
ENDMDL
MODEL 9
REMARK VINA RESULT:      -8.4      4.618     10.960
REMARK  Name = 
REMARK  5 active torsions:
REMARK  status: ('A' for Active; 'I' for Inactive)
REMARK    1  A    between atoms: N_12  and  C_13
REMARK    2  A    between atoms: C_13  and  C_14
REMARK    3  A    between atoms: C_14  and  C_15
REMARK    4  A    between atoms: N_18  and  C_19
REMARK    5  A    between atoms: C_19  and  C_20
REMARK                            x       y       z     vdW  Elec       q    Type
REMARK                         _______ _______ _______ _____ _____    ______ ____
ROOT
ATOM      1  C   UNL     1       1.384   7.620  19.795  0.00  0.00    +0.000 C 
ENDROOT
BRANCH   1  13
ATOM      2  O   UNL     1       3.102   8.846  17.772  0.00  0.00    +0.000 OA
ATOM      3  C   UNL     1       3.138   7.668  18.067  0.00  0.00    +0.000 C 
ATOM      4  C   UNL     1       3.947   6.662  17.357  0.00  0.00    +0.000 A 
ATOM      5  C   UNL     1       4.800   6.862  16.287  0.00  0.00    +0.000 A 
ATOM      6  C   UNL     1       5.420   5.723  15.825  0.00  0.00    +0.000 A 
ATOM      7  C   UNL     1       5.197   4.477  16.387  0.00  0.00    +0.000 A 
ATOM      8  C   UNL     1       4.336   4.278  17.450  0.00  0.00    +0.000 A 
ATOM      9  C   UNL     1       3.689   5.400  17.949  0.00  0.00    +0.000 A 
ATOM     10  C   UNL     1       2.693   5.565  19.055  0.00  0.00    +0.000 C 
ATOM     11  C   UNL     1       2.743   4.735  20.306  0.00  0.00    +0.000 C 
ATOM     12  C   UNL     1       1.646   4.507  19.303  0.00  0.00    +0.000 C 
ATOM     13  N   UNL     1       2.449   6.991  19.067  0.00  0.00    +0.000 N 
ATOM     14  O   UNL     1       5.915   3.500  15.769  0.00  0.00    +0.000 OA
ATOM     15  C   UNL     1       6.608   4.263  14.760  0.00  0.00    +0.000 C 
ATOM     16  O   UNL     1       6.300   5.672  14.790  0.00  0.00    +0.000 OA
ENDBRANCH   1  13
BRANCH   1  17
ATOM     17  C   UNL     1       1.762   8.055  21.221  0.00  0.00    +0.000 C 
BRANCH  17  18
ATOM     18  C   UNL     1       0.898   9.261  21.594  0.00  0.00    +0.000 C 
ATOM     19  C   UNL     1       0.152   9.843  20.391  0.00  0.00    +0.000 C 
ATOM     20  C   UNL     1      -0.340  11.229  20.772  0.00  0.00    +0.000 C 
ATOM     21  N   UNL     1      -1.247  11.210  21.929  0.00  0.00    +0.000 NA
ATOM     22  C   UNL     1      -0.746  10.404  23.065  0.00  0.00    +0.000 C 
ATOM     23  C   UNL     1      -0.161   9.031  22.672  0.00  0.00    +0.000 C 
BRANCH  21  24
ATOM     24  C   UNL     1      -1.491  12.599  22.382  0.00  0.00    +0.000 C 
BRANCH  24  25
ATOM     25  C   UNL     1      -2.956  12.990  22.397  0.00  0.00    +0.000 A 
ATOM     26  C   UNL     1      -3.526  13.686  21.317  0.00  0.00    +0.000 A 
ATOM     27  C   UNL     1      -4.874  14.054  21.338  0.00  0.00    +0.000 A 
ATOM     28  C   UNL     1      -5.666  13.722  22.436  0.00  0.00    +0.000 A 
ATOM     29  C   UNL     1      -5.107  13.016  23.495  0.00  0.00    +0.000 A 
ATOM     30  F   UNL     1      -5.874  12.685  24.542  0.00  0.00    +0.000 F 
ATOM     31  C   UNL     1      -3.766  12.647  23.486  0.00  0.00    +0.000 A 
ENDBRANCH  24  25
ENDBRANCH  21  24
ENDBRANCH  17  18
ENDBRANCH   1  17
TORSDOF 5
ENDMDL
