MODEL 1
REMARK VINA RESULT:      -7.7      0.000      0.000
REMARK  Name = 
REMARK  4 active torsions:
REMARK  status: ('A' for Active; 'I' for Inactive)
REMARK    1  A    between atoms: C_1  and  O_2
REMARK    2  A    between atoms: O_2  and  C_3
REMARK    3  A    between atoms: C_6  and  N_7
REMARK    4  A    between atoms: C_18  and  C_20
REMARK                            x       y       z     vdW  Elec       q    Type
REMARK                         _______ _______ _______ _____ _____    ______ ____
ROOT
ATOM      1  N   UNL     1       6.352  15.199  19.326  0.00  0.00    +0.000 N 
ATOM      2  C   UNL     1       5.133  15.194  18.668  0.00  0.00    +0.000 C 
ATOM      3  O   UNL     1       5.001  15.029  17.457  0.00  0.00    +0.000 OA
ATOM      4  N   UNL     1       4.019  15.381  19.476  0.00  0.00    +0.000 N 
ATOM      5  C   UNL     1       4.007  15.596  20.919  0.00  0.00    +0.000 C 
ATOM      6  C   UNL     1       2.995  14.702  21.623  0.00  0.00    +0.000 C 
ATOM      7  C   UNL     1       1.630  14.786  20.953  0.00  0.00    +0.000 C 
ATOM      8  C   UNL     1       1.705  14.493  19.430  0.00  0.00    +0.000 C 
ATOM      9  C   UNL     1       2.204  13.060  19.110  0.00  0.00    +0.000 C 
ATOM     10  C   UNL     1       1.243  11.996  19.608  0.00  0.00    +0.000 C 
ATOM     11  N   UNL     1      -0.078  12.211  19.032  0.00  0.00    +0.000 N 
ATOM     12  C   UNL     1      -0.708  11.100  18.476  0.00  0.00    +0.000 C 
ATOM     13  O   UNL     1      -0.202   9.979  18.487  0.00  0.00    +0.000 OA
ATOM     14  C   UNL     1      -0.651  13.539  19.287  0.00  0.00    +0.000 C 
ATOM     15  C   UNL     1       0.298  14.645  18.802  0.00  0.00    +0.000 C 
ATOM     16  C   UNL     1       2.708  15.492  18.817  0.00  0.00    +0.000 C 
ATOM     17  H   UNL     1       6.349  15.137  20.327  0.00  0.00    +0.000 HD
ENDROOT
BRANCH  12  18
ATOM     18  C   UNL     1      -2.032  11.215  17.821  0.00  0.00    +0.000 A 
ATOM     19  C   UNL     1      -3.124  11.575  18.624  0.00  0.00    +0.000 A 
ATOM     20  C   UNL     1      -4.408  11.623  18.078  0.00  0.00    +0.000 A 
ATOM     21  C   UNL     1      -4.596  11.331  16.732  0.00  0.00    +0.000 A 
ATOM     22  C   UNL     1      -3.511  10.972  15.945  0.00  0.00    +0.000 A 
ATOM     23  F   UNL     1      -3.688  10.693  14.649  0.00  0.00    +0.000 F 
ATOM     24  C   UNL     1      -2.237  10.883  16.484  0.00  0.00    +0.000 A 
ENDBRANCH  12  18
BRANCH   1  28
ATOM     25  C   UNL     1      10.184  14.724  17.622  0.00  0.00    +0.000 A 
ATOM     26  C   UNL     1       9.443  13.610  18.006  0.00  0.00    +0.000 A 
ATOM     27  C   UNL     1       8.169  13.757  18.537  0.00  0.00    +0.000 A 
ATOM     28  C   UNL     1       7.616  15.030  18.728  0.00  0.00    +0.000 A 
ATOM     29  C   UNL     1       8.343  16.142  18.321  0.00  0.00    +0.000 A 
ATOM     30  C   UNL     1       9.629  15.994  17.780  0.00  0.00    +0.000 A 
BRANCH  25  32
ATOM     31  C   UNL     1      11.841  13.103  17.213  0.00  0.00    +0.000 C 
ATOM     32  O   UNL     1      11.434  14.464  17.135  0.00  0.00    +0.000 OA
ENDBRANCH  25  32
ENDBRANCH   1  28
TORSDOF 3
ENDMDL
MODEL 2
REMARK VINA RESULT:      -7.6      7.756     11.079
REMARK  Name = 
REMARK  4 active torsions:
REMARK  status: ('A' for Active; 'I' for Inactive)
REMARK    1  A    between atoms: C_1  and  O_2
REMARK    2  A    between atoms: O_2  and  C_3
REMARK    3  A    between atoms: C_6  and  N_7
REMARK    4  A    between atoms: C_18  and  C_20
REMARK                            x       y       z     vdW  Elec       q    Type
REMARK                         _______ _______ _______ _____ _____    ______ ____
ROOT
ATOM      1  N   UNL     1       1.193   7.630  21.263  0.00  0.00    +0.000 N 
ATOM      2  C   UNL     1       1.366   7.201  19.957  0.00  0.00    +0.000 C 
ATOM      3  O   UNL     1       1.127   7.888  18.965  0.00  0.00    +0.000 OA
ATOM      4  N   UNL     1       1.854   5.909  19.815  0.00  0.00    +0.000 N 
ATOM      5  C   UNL     1       2.179   4.970  20.883  0.00  0.00    +0.000 C 
ATOM      6  C   UNL     1       3.543   4.324  20.684  0.00  0.00    +0.000 C 
ATOM      7  C   UNL     1       3.682   3.763  19.274  0.00  0.00    +0.000 C 
ATOM      8  C   UNL     1       3.378   4.827  18.186  0.00  0.00    +0.000 C 
ATOM      9  C   UNL     1       4.355   6.030  18.220  0.00  0.00    +0.000 C 
ATOM     10  C   UNL     1       5.780   5.618  17.895  0.00  0.00    +0.000 C 
ATOM     11  N   UNL     1       5.823   4.969  16.591  0.00  0.00    +0.000 N 
ATOM     12  C   UNL     1       6.808   5.403  15.706  0.00  0.00    +0.000 C 
ATOM     13  O   UNL     1       7.627   6.271  16.004  0.00  0.00    +0.000 OA
ATOM     14  C   UNL     1       4.939   3.804  16.454  0.00  0.00    +0.000 C 
ATOM     15  C   UNL     1       3.487   4.180  16.783  0.00  0.00    +0.000 C 
ATOM     16  C   UNL     1       1.956   5.364  18.451  0.00  0.00    +0.000 C 
ATOM     17  H   UNL     1       1.600   7.084  21.998  0.00  0.00    +0.000 HD
ENDROOT
BRANCH  12  18
ATOM     18  C   UNL     1       6.912   4.846  14.338  0.00  0.00    +0.000 A 
ATOM     19  C   UNL     1       7.818   5.454  13.457  0.00  0.00    +0.000 A 
ATOM     20  C   UNL     1       7.903   5.022  12.133  0.00  0.00    +0.000 A 
ATOM     21  C   UNL     1       7.100   3.974  11.697  0.00  0.00    +0.000 A 
ATOM     22  C   UNL     1       6.204   3.380  12.573  0.00  0.00    +0.000 A 
ATOM     23  F   UNL     1       5.431   2.370  12.158  0.00  0.00    +0.000 F 
ATOM     24  C   UNL     1       6.081   3.826  13.880  0.00  0.00    +0.000 A 
ENDBRANCH  12  18
BRANCH   1  28
ATOM     25  C   UNL     1      -0.307  11.414  22.381  0.00  0.00    +0.000 A 
ATOM     26  C   UNL     1      -0.672  10.275  23.093  0.00  0.00    +0.000 A 
ATOM     27  C   UNL     1      -0.157   9.032  22.752  0.00  0.00    +0.000 A 
ATOM     28  C   UNL     1       0.713   8.893  21.663  0.00  0.00    +0.000 A 
ATOM     29  C   UNL     1       1.100  10.032  20.966  0.00  0.00    +0.000 A 
ATOM     30  C   UNL     1       0.583  11.290  21.315  0.00  0.00    +0.000 A 
BRANCH  25  32
ATOM     31  C   UNL     1      -0.353  13.761  22.207  0.00  0.00    +0.000 C 
ATOM     32  O   UNL     1      -0.893  12.579  22.788  0.00  0.00    +0.000 OA
ENDBRANCH  25  32
ENDBRANCH   1  28
TORSDOF 3
ENDMDL
MODEL 3
REMARK VINA RESULT:      -7.5      0.826      1.190
REMARK  Name = 
REMARK  4 active torsions:
REMARK  status: ('A' for Active; 'I' for Inactive)
REMARK    1  A    between atoms: C_1  and  O_2
REMARK    2  A    between atoms: O_2  and  C_3
REMARK    3  A    between atoms: C_6  and  N_7
REMARK    4  A    between atoms: C_18  and  C_20
REMARK                            x       y       z     vdW  Elec       q    Type
REMARK                         _______ _______ _______ _____ _____    ______ ____
ROOT
ATOM      1  N   UNL     1       6.229  15.318  19.335  0.00  0.00    +0.000 N 
ATOM      2  C   UNL     1       5.013  15.244  18.675  0.00  0.00    +0.000 C 
ATOM      3  O   UNL     1       4.892  15.034  17.470  0.00  0.00    +0.000 OA
ATOM      4  N   UNL     1       3.891  15.412  19.475  0.00  0.00    +0.000 N 
ATOM      5  C   UNL     1       3.865  15.673  20.910  0.00  0.00    +0.000 C 
ATOM      6  C   UNL     1       2.888  14.763  21.642  0.00  0.00    +0.000 C 
ATOM      7  C   UNL     1       1.522  14.771  20.966  0.00  0.00    +0.000 C 
ATOM      8  C   UNL     1       1.614  14.432  19.454  0.00  0.00    +0.000 C 
ATOM      9  C   UNL     1       2.170  13.010  19.181  0.00  0.00    +0.000 C 
ATOM     10  C   UNL     1       1.250  11.925  19.713  0.00  0.00    +0.000 C 
ATOM     11  N   UNL     1      -0.076  12.069  19.127  0.00  0.00    +0.000 N 
ATOM     12  C   UNL     1      -0.660  10.917  18.606  0.00  0.00    +0.000 C 
ATOM     13  O   UNL     1      -0.110   9.818  18.655  0.00  0.00    +0.000 OA
ATOM     14  C   UNL     1      -0.702  13.381  19.339  0.00  0.00    +0.000 C 
ATOM     15  C   UNL     1       0.203  14.507  18.819  0.00  0.00    +0.000 C 
ATOM     16  C   UNL     1       2.578  15.450  18.811  0.00  0.00    +0.000 C 
ATOM     17  H   UNL     1       6.226  15.289  20.337  0.00  0.00    +0.000 HD
ENDROOT
BRANCH  12  18
ATOM     18  C   UNL     1      -1.985  10.958  17.946  0.00  0.00    +0.000 A 
ATOM     19  C   UNL     1      -2.076  10.450  16.642  0.00  0.00    +0.000 A 
ATOM     20  C   UNL     1      -3.280  10.533  15.941  0.00  0.00    +0.000 A 
ATOM     21  C   UNL     1      -4.393  11.103  16.548  0.00  0.00    +0.000 A 
ATOM     22  C   UNL     1      -4.294  11.608  17.837  0.00  0.00    +0.000 A 
ATOM     23  F   UNL     1      -5.364  12.156  18.425  0.00  0.00    +0.000 F 
ATOM     24  C   UNL     1      -3.093  11.567  18.529  0.00  0.00    +0.000 A 
ENDBRANCH  12  18
BRANCH   1  28
ATOM     25  C   UNL     1      10.082  14.944  17.652  0.00  0.00    +0.000 A 
ATOM     26  C   UNL     1       9.400  13.818  18.105  0.00  0.00    +0.000 A 
ATOM     27  C   UNL     1       8.120  13.929  18.629  0.00  0.00    +0.000 A 
ATOM     28  C   UNL     1       7.501  15.180  18.745  0.00  0.00    +0.000 A 
ATOM     29  C   UNL     1       8.168  16.303  18.271  0.00  0.00    +0.000 A 
ATOM     30  C   UNL     1       9.461  16.190  17.735  0.00  0.00    +0.000 A 
BRANCH  25  32
ATOM     31  C   UNL     1      11.590  13.399  16.716  0.00  0.00    +0.000 C 
ATOM     32  O   UNL     1      11.344  14.722  17.179  0.00  0.00    +0.000 OA
ENDBRANCH  25  32
ENDBRANCH   1  28
TORSDOF 3
ENDMDL
MODEL 4
REMARK VINA RESULT:      -7.3      1.021      1.295
REMARK  Name = 
REMARK  4 active torsions:
REMARK  status: ('A' for Active; 'I' for Inactive)
REMARK    1  A    between atoms: C_1  and  O_2
REMARK    2  A    between atoms: O_2  and  C_3
REMARK    3  A    between atoms: C_6  and  N_7
REMARK    4  A    between atoms: C_18  and  C_20
REMARK                            x       y       z     vdW  Elec       q    Type
REMARK                         _______ _______ _______ _____ _____    ______ ____
ROOT
ATOM      1  N   UNL     1       6.782  15.156  19.569  0.00  0.00    +0.000 N 
ATOM      2  C   UNL     1       5.672  14.891  18.783  0.00  0.00    +0.000 C 
ATOM      3  O   UNL     1       5.699  14.236  17.744  0.00  0.00    +0.000 OA
ATOM      4  N   UNL     1       4.474  15.414  19.252  0.00  0.00    +0.000 N 
ATOM      5  C   UNL     1       4.274  16.213  20.456  0.00  0.00    +0.000 C 
ATOM      6  C   UNL     1       3.106  15.709  21.293  0.00  0.00    +0.000 C 
ATOM      7  C   UNL     1       1.860  15.522  20.436  0.00  0.00    +0.000 C 
ATOM      8  C   UNL     1       2.126  14.617  19.204  0.00  0.00    +0.000 C 
ATOM      9  C   UNL     1       2.550  13.176  19.586  0.00  0.00    +0.000 C 
ATOM     10  C   UNL     1       1.448  12.430  20.317  0.00  0.00    +0.000 C 
ATOM     11  N   UNL     1       0.243  12.401  19.498  0.00  0.00    +0.000 N 
ATOM     12  C   UNL     1      -0.388  11.168  19.354  0.00  0.00    +0.000 C 
ATOM     13  O   UNL     1       0.021  10.148  19.907  0.00  0.00    +0.000 OA
ATOM     14  C   UNL     1      -0.254  13.722  19.088  0.00  0.00    +0.000 C 
ATOM     15  C   UNL     1       0.838  14.510  18.351  0.00  0.00    +0.000 C 
ATOM     16  C   UNL     1       3.281  15.255  18.404  0.00  0.00    +0.000 C 
ATOM     17  H   UNL     1       6.633  15.519  20.491  0.00  0.00    +0.000 HD
ENDROOT
BRANCH  12  18
ATOM     18  C   UNL     1      -1.593  11.015  18.506  0.00  0.00    +0.000 A 
ATOM     19  C   UNL     1      -2.762  11.674  18.914  0.00  0.00    +0.000 A 
ATOM     20  C   UNL     1      -3.947  11.504  18.198  0.00  0.00    +0.000 A 
ATOM     21  C   UNL     1      -3.960  10.693  17.069  0.00  0.00    +0.000 A 
ATOM     22  C   UNL     1      -2.801  10.041  16.674  0.00  0.00    +0.000 A 
ATOM     23  F   UNL     1      -2.809   9.262  15.586  0.00  0.00    +0.000 F 
ATOM     24  C   UNL     1      -1.626  10.171  17.399  0.00  0.00    +0.000 A 
ENDBRANCH  12  18
BRANCH   1  28
ATOM     25  C   UNL     1      10.697  13.813  18.738  0.00  0.00    +0.000 A 
ATOM     26  C   UNL     1      10.127  14.831  17.979  0.00  0.00    +0.000 A 
ATOM     27  C   UNL     1       8.853  15.300  18.267  0.00  0.00    +0.000 A 
ATOM     28  C   UNL     1       8.101  14.736  19.306  0.00  0.00    +0.000 A 
ATOM     29  C   UNL     1       8.677  13.737  20.082  0.00  0.00    +0.000 A 
ATOM     30  C   UNL     1       9.967  13.266  19.794  0.00  0.00    +0.000 A 
BRANCH  25  32
ATOM     31  C   UNL     1      12.246  13.624  16.977  0.00  0.00    +0.000 C 
ATOM     32  O   UNL     1      11.944  13.413  18.351  0.00  0.00    +0.000 OA
ENDBRANCH  25  32
ENDBRANCH   1  28
TORSDOF 3
ENDMDL
MODEL 5
REMARK VINA RESULT:      -7.1      5.866      9.133
REMARK  Name = 
REMARK  4 active torsions:
REMARK  status: ('A' for Active; 'I' for Inactive)
REMARK    1  A    between atoms: C_1  and  O_2
REMARK    2  A    between atoms: O_2  and  C_3
REMARK    3  A    between atoms: C_6  and  N_7
REMARK    4  A    between atoms: C_18  and  C_20
REMARK                            x       y       z     vdW  Elec       q    Type
REMARK                         _______ _______ _______ _____ _____    ______ ____
ROOT
ATOM      1  N   UNL     1      -0.662  13.543  21.288  0.00  0.00    +0.000 N 
ATOM      2  C   UNL     1       0.439  12.914  20.731  0.00  0.00    +0.000 C 
ATOM      3  O   UNL     1       1.577  12.976  21.190  0.00  0.00    +0.000 OA
ATOM      4  N   UNL     1       0.182  12.168  19.588  0.00  0.00    +0.000 N 
ATOM      5  C   UNL     1      -1.103  12.000  18.918  0.00  0.00    +0.000 C 
ATOM      6  C   UNL     1      -1.397  10.541  18.598  0.00  0.00    +0.000 C 
ATOM      7  C   UNL     1      -0.216   9.887  17.891  0.00  0.00    +0.000 C 
ATOM      8  C   UNL     1       1.108  10.055  18.682  0.00  0.00    +0.000 C 
ATOM      9  C   UNL     1       1.074   9.379  20.077  0.00  0.00    +0.000 C 
ATOM     10  C   UNL     1       0.931   7.870  19.978  0.00  0.00    +0.000 C 
ATOM     11  N   UNL     1       2.018   7.321  19.179  0.00  0.00    +0.000 N 
ATOM     12  C   UNL     1       2.691   6.221  19.706  0.00  0.00    +0.000 C 
ATOM     13  O   UNL     1       2.378   5.708  20.779  0.00  0.00    +0.000 OA
ATOM     14  C   UNL     1       2.134   7.887  17.828  0.00  0.00    +0.000 C 
ATOM     15  C   UNL     1       2.273   9.415  17.887  0.00  0.00    +0.000 C 
ATOM     16  C   UNL     1       1.332  11.566  18.893  0.00  0.00    +0.000 C 
ATOM     17  H   UNL     1      -1.573  13.274  20.968  0.00  0.00    +0.000 HD
ENDROOT
BRANCH  12  18
ATOM     18  C   UNL     1       3.842   5.613  18.999  0.00  0.00    +0.000 A 
ATOM     19  C   UNL     1       3.569   4.616  18.052  0.00  0.00    +0.000 A 
ATOM     20  C   UNL     1       4.617   3.953  17.412  0.00  0.00    +0.000 A 
ATOM     21  C   UNL     1       5.931   4.299  17.703  0.00  0.00    +0.000 A 
ATOM     22  C   UNL     1       6.194   5.284  18.645  0.00  0.00    +0.000 A 
ATOM     23  F   UNL     1       7.458   5.621  18.926  0.00  0.00    +0.000 F 
ATOM     24  C   UNL     1       5.163   5.922  19.316  0.00  0.00    +0.000 A 
ENDBRANCH  12  18
BRANCH   1  28
ATOM     25  C   UNL     1      -0.714  16.028  24.701  0.00  0.00    +0.000 A 
ATOM     26  C   UNL     1      -1.396  14.814  24.704  0.00  0.00    +0.000 A 
ATOM     27  C   UNL     1      -1.356  13.977  23.598  0.00  0.00    +0.000 A 
ATOM     28  C   UNL     1      -0.658  14.351  22.443  0.00  0.00    +0.000 A 
ATOM     29  C   UNL     1       0.045  15.550  22.445  0.00  0.00    +0.000 A 
ATOM     30  C   UNL     1       0.010  16.394  23.566  0.00  0.00    +0.000 A 
BRANCH  25  32
ATOM     31  C   UNL     1      -0.097  16.320  26.953  0.00  0.00    +0.000 C 
ATOM     32  O   UNL     1      -0.842  16.782  25.833  0.00  0.00    +0.000 OA
ENDBRANCH  25  32
ENDBRANCH   1  28
TORSDOF 3
ENDMDL
MODEL 6
REMARK VINA RESULT:      -7.0      5.442      7.301
REMARK  Name = 
REMARK  4 active torsions:
REMARK  status: ('A' for Active; 'I' for Inactive)
REMARK    1  A    between atoms: C_1  and  O_2
REMARK    2  A    between atoms: O_2  and  C_3
REMARK    3  A    between atoms: C_6  and  N_7
REMARK    4  A    between atoms: C_18  and  C_20
REMARK                            x       y       z     vdW  Elec       q    Type
REMARK                         _______ _______ _______ _____ _____    ______ ____
ROOT
ATOM      1  N   UNL     1       2.462   9.151  18.343  0.00  0.00    +0.000 N 
ATOM      2  C   UNL     1       1.161   9.623  18.301  0.00  0.00    +0.000 C 
ATOM      3  O   UNL     1       0.174   8.917  18.100  0.00  0.00    +0.000 OA
ATOM      4  N   UNL     1       1.015  10.987  18.517  0.00  0.00    +0.000 N 
ATOM      5  C   UNL     1       2.077  11.956  18.761  0.00  0.00    +0.000 C 
ATOM      6  C   UNL     1       1.771  12.856  19.950  0.00  0.00    +0.000 C 
ATOM      7  C   UNL     1       0.374  13.453  19.840  0.00  0.00    +0.000 C 
ATOM      8  C   UNL     1      -0.715  12.365  19.638  0.00  0.00    +0.000 C 
ATOM      9  C   UNL     1      -0.813  11.373  20.826  0.00  0.00    +0.000 C 
ATOM     10  C   UNL     1      -1.257  12.056  22.107  0.00  0.00    +0.000 C 
ATOM     11  N   UNL     1      -2.537  12.719  21.895  0.00  0.00    +0.000 N 
ATOM     12  C   UNL     1      -3.525  12.494  22.852  0.00  0.00    +0.000 C 
ATOM     13  O   UNL     1      -3.334  11.797  23.848  0.00  0.00    +0.000 OA
ATOM     14  C   UNL     1      -2.552  13.693  20.796  0.00  0.00    +0.000 C 
ATOM     15  C   UNL     1      -2.100  13.039  19.483  0.00  0.00    +0.000 C 
ATOM     16  C   UNL     1      -0.334  11.560  18.378  0.00  0.00    +0.000 C 
ATOM     17  H   UNL     1       3.173   9.756  18.709  0.00  0.00    +0.000 HD
ENDROOT
BRANCH  12  18
ATOM     18  C   UNL     1      -4.878  13.080  22.713  0.00  0.00    +0.000 A 
ATOM     19  C   UNL     1      -5.288  14.005  23.684  0.00  0.00    +0.000 A 
ATOM     20  C   UNL     1      -6.580  14.531  23.648  0.00  0.00    +0.000 A 
ATOM     21  C   UNL     1      -7.452  14.148  22.635  0.00  0.00    +0.000 A 
ATOM     22  C   UNL     1      -7.040  13.229  21.680  0.00  0.00    +0.000 A 
ATOM     23  F   UNL     1      -7.876  12.861  20.702  0.00  0.00    +0.000 F 
ATOM     24  C   UNL     1      -5.772  12.670  21.727  0.00  0.00    +0.000 A 
ENDBRANCH  12  18
BRANCH   1  28
ATOM     25  C   UNL     1       3.756   5.166  17.828  0.00  0.00    +0.000 A 
ATOM     26  C   UNL     1       2.780   5.472  18.772  0.00  0.00    +0.000 A 
ATOM     27  C   UNL     1       2.326   6.775  18.924  0.00  0.00    +0.000 A 
ATOM     28  C   UNL     1       2.865   7.814  18.155  0.00  0.00    +0.000 A 
ATOM     29  C   UNL     1       3.821   7.508  17.194  0.00  0.00    +0.000 A 
ATOM     30  C   UNL     1       4.276   6.190  17.036  0.00  0.00    +0.000 A 
BRANCH  25  32
ATOM     31  C   UNL     1       4.345   3.242  19.048  0.00  0.00    +0.000 C 
ATOM     32  O   UNL     1       4.145   3.857  17.781  0.00  0.00    +0.000 OA
ENDBRANCH  25  32
ENDBRANCH   1  28
TORSDOF 3
ENDMDL
MODEL 7
REMARK VINA RESULT:      -7.0      6.084      8.186
REMARK  Name = 
REMARK  4 active torsions:
REMARK  status: ('A' for Active; 'I' for Inactive)
REMARK    1  A    between atoms: C_1  and  O_2
REMARK    2  A    between atoms: O_2  and  C_3
REMARK    3  A    between atoms: C_6  and  N_7
REMARK    4  A    between atoms: C_18  and  C_20
REMARK                            x       y       z     vdW  Elec       q    Type
REMARK                         _______ _______ _______ _____ _____    ______ ____
ROOT
ATOM      1  N   UNL     1       1.622   9.334  19.591  0.00  0.00    +0.000 N 
ATOM      2  C   UNL     1       0.370   9.921  19.506  0.00  0.00    +0.000 C 
ATOM      3  O   UNL     1      -0.669   9.305  19.276  0.00  0.00    +0.000 OA
ATOM      4  N   UNL     1       0.341  11.293  19.715  0.00  0.00    +0.000 N 
ATOM      5  C   UNL     1       1.478  12.165  19.991  0.00  0.00    +0.000 C 
ATOM      6  C   UNL     1       1.216  13.094  21.168  0.00  0.00    +0.000 C 
ATOM      7  C   UNL     1      -0.118  13.813  21.012  0.00  0.00    +0.000 C 
ATOM      8  C   UNL     1      -1.292  12.826  20.777  0.00  0.00    +0.000 C 
ATOM      9  C   UNL     1      -1.517  11.853  21.963  0.00  0.00    +0.000 C 
ATOM     10  C   UNL     1      -1.938  12.580  23.228  0.00  0.00    +0.000 C 
ATOM     11  N   UNL     1      -3.147  13.354  22.975  0.00  0.00    +0.000 N 
ATOM     12  C   UNL     1      -4.180  13.224  23.900  0.00  0.00    +0.000 C 
ATOM     13  O   UNL     1      -4.084  12.517  24.902  0.00  0.00    +0.000 OA
ATOM     14  C   UNL     1      -3.039  14.321  21.873  0.00  0.00    +0.000 C 
ATOM     15  C   UNL     1      -2.606  13.622  20.576  0.00  0.00    +0.000 C 
ATOM     16  C   UNL     1      -0.946  11.985  19.532  0.00  0.00    +0.000 C 
ATOM     17  H   UNL     1       2.372   9.874  19.979  0.00  0.00    +0.000 HD
ENDROOT
BRANCH  12  18
ATOM     18  C   UNL     1      -5.469  13.928  23.716  0.00  0.00    +0.000 A 
ATOM     19  C   UNL     1      -6.562  13.174  23.263  0.00  0.00    +0.000 A 
ATOM     20  C   UNL     1      -7.781  13.799  22.996  0.00  0.00    +0.000 A 
ATOM     21  C   UNL     1      -7.913  15.167  23.201  0.00  0.00    +0.000 A 
ATOM     22  C   UNL     1      -6.827  15.907  23.645  0.00  0.00    +0.000 A 
ATOM     23  F   UNL     1      -6.952  17.225  23.846  0.00  0.00    +0.000 F 
ATOM     24  C   UNL     1      -5.599  15.306  23.876  0.00  0.00    +0.000 A 
ENDBRANCH  12  18
BRANCH   1  28
ATOM     25  C   UNL     1       2.579   5.254  19.083  0.00  0.00    +0.000 A 
ATOM     26  C   UNL     1       2.047   5.707  20.287  0.00  0.00    +0.000 A 
ATOM     27  C   UNL     1       1.699   7.041  20.450  0.00  0.00    +0.000 A 
ATOM     28  C   UNL     1       1.908   7.965  19.419  0.00  0.00    +0.000 A 
ATOM     29  C   UNL     1       2.415   7.512  18.207  0.00  0.00    +0.000 A 
ATOM     30  C   UNL     1       2.762   6.162  18.040  0.00  0.00    +0.000 A 
BRANCH  25  32
ATOM     31  C   UNL     1       2.215   3.166  18.061  0.00  0.00    +0.000 C 
ATOM     32  O   UNL     1       2.908   3.929  19.042  0.00  0.00    +0.000 OA
ENDBRANCH  25  32
ENDBRANCH   1  28
TORSDOF 3
ENDMDL
MODEL 8
REMARK VINA RESULT:      -6.9      1.235      1.357
REMARK  Name = 
REMARK  4 active torsions:
REMARK  status: ('A' for Active; 'I' for Inactive)
REMARK    1  A    between atoms: C_1  and  O_2
REMARK    2  A    between atoms: O_2  and  C_3
REMARK    3  A    between atoms: C_6  and  N_7
REMARK    4  A    between atoms: C_18  and  C_20
REMARK                            x       y       z     vdW  Elec       q    Type
REMARK                         _______ _______ _______ _____ _____    ______ ____
ROOT
ATOM      1  N   UNL     1       6.736  15.490  19.295  0.00  0.00    +0.000 N 
ATOM      2  C   UNL     1       5.545  15.267  18.624  0.00  0.00    +0.000 C 
ATOM      3  O   UNL     1       5.429  14.532  17.645  0.00  0.00    +0.000 OA
ATOM      4  N   UNL     1       4.440  15.931  19.139  0.00  0.00    +0.000 N 
ATOM      5  C   UNL     1       4.411  16.837  20.282  0.00  0.00    +0.000 C 
ATOM      6  C   UNL     1       3.281  16.509  21.247  0.00  0.00    +0.000 C 
ATOM      7  C   UNL     1       1.955  16.369  20.509  0.00  0.00    +0.000 C 
ATOM      8  C   UNL     1       2.038  15.350  19.341  0.00  0.00    +0.000 C 
ATOM      9  C   UNL     1       2.370  13.910  19.811  0.00  0.00    +0.000 C 
ATOM     10  C   UNL     1       1.275  13.327  20.687  0.00  0.00    +0.000 C 
ATOM     11  N   UNL     1       0.007  13.344  19.970  0.00  0.00    +0.000 N 
ATOM     12  C   UNL     1      -0.736  12.165  19.982  0.00  0.00    +0.000 C 
ATOM     13  O   UNL     1      -0.368  11.159  20.587  0.00  0.00    +0.000 OA
ATOM     14  C   UNL     1      -0.411  14.668  19.489  0.00  0.00    +0.000 C 
ATOM     15  C   UNL     1       0.677  15.294  18.604  0.00  0.00    +0.000 C 
ATOM     16  C   UNL     1       3.170  15.816  18.402  0.00  0.00    +0.000 C 
ATOM     17  H   UNL     1       6.698  15.936  20.192  0.00  0.00    +0.000 HD
ENDROOT
BRANCH  12  18
ATOM     18  C   UNL     1      -2.017  12.056  19.247  0.00  0.00    +0.000 A 
ATOM     19  C   UNL     1      -3.190  12.405  19.932  0.00  0.00    +0.000 A 
ATOM     20  C   UNL     1      -4.433  12.248  19.317  0.00  0.00    +0.000 A 
ATOM     21  C   UNL     1      -4.501  11.764  18.015  0.00  0.00    +0.000 A 
ATOM     22  C   UNL     1      -3.336  11.417  17.346  0.00  0.00    +0.000 A 
ATOM     23  F   UNL     1      -3.398  10.953  16.092  0.00  0.00    +0.000 F 
ATOM     24  C   UNL     1      -2.098  11.531  17.960  0.00  0.00    +0.000 A 
ENDBRANCH  12  18
BRANCH   1  28
ATOM     25  C   UNL     1      10.532  13.893  18.367  0.00  0.00    +0.000 A 
ATOM     26  C   UNL     1       9.702  13.248  19.278  0.00  0.00    +0.000 A 
ATOM     27  C   UNL     1       8.439  13.749  19.564  0.00  0.00    +0.000 A 
ATOM     28  C   UNL     1       7.988  14.933  18.967  0.00  0.00    +0.000 A 
ATOM     29  C   UNL     1       8.804  15.566  18.037  0.00  0.00    +0.000 A 
ATOM     30  C   UNL     1      10.079  15.056  17.744  0.00  0.00    +0.000 A 
BRANCH  25  32
ATOM     31  C   UNL     1      11.936  12.052  18.790  0.00  0.00    +0.000 C 
ATOM     32  O   UNL     1      11.761  13.327  18.181  0.00  0.00    +0.000 OA
ENDBRANCH  25  32
ENDBRANCH   1  28
TORSDOF 3
ENDMDL
MODEL 9
REMARK VINA RESULT:      -6.9      5.593      7.490
REMARK  Name = 
REMARK  4 active torsions:
REMARK  status: ('A' for Active; 'I' for Inactive)
REMARK    1  A    between atoms: C_1  and  O_2
REMARK    2  A    between atoms: O_2  and  C_3
REMARK    3  A    between atoms: C_6  and  N_7
REMARK    4  A    between atoms: C_18  and  C_20
REMARK                            x       y       z     vdW  Elec       q    Type
REMARK                         _______ _______ _______ _____ _____    ______ ____
ROOT
ATOM      1  N   UNL     1       2.528   9.146  18.207  0.00  0.00    +0.000 N 
ATOM      2  C   UNL     1       1.229   9.626  18.184  0.00  0.00    +0.000 C 
ATOM      3  O   UNL     1       0.237   8.930  17.977  0.00  0.00    +0.000 OA
ATOM      4  N   UNL     1       1.093  10.986  18.429  0.00  0.00    +0.000 N 
ATOM      5  C   UNL     1       2.163  11.944  18.684  0.00  0.00    +0.000 C 
ATOM      6  C   UNL     1       1.871  12.822  19.894  0.00  0.00    +0.000 C 
ATOM      7  C   UNL     1       0.476  13.429  19.805  0.00  0.00    +0.000 C 
ATOM      8  C   UNL     1      -0.620  12.351  19.589  0.00  0.00    +0.000 C 
ATOM      9  C   UNL     1      -0.715  11.336  20.758  0.00  0.00    +0.000 C 
ATOM     10  C   UNL     1      -1.147  11.997  22.055  0.00  0.00    +0.000 C 
ATOM     11  N   UNL     1      -2.425  12.671  21.867  0.00  0.00    +0.000 N 
ATOM     12  C   UNL     1      -3.406  12.433  22.826  0.00  0.00    +0.000 C 
ATOM     13  O   UNL     1      -3.212  11.715  23.805  0.00  0.00    +0.000 OA
ATOM     14  C   UNL     1      -2.441  13.667  20.787  0.00  0.00    +0.000 C 
ATOM     15  C   UNL     1      -2.003  13.037  19.457  0.00  0.00    +0.000 C 
ATOM     16  C   UNL     1      -0.253  11.570  18.311  0.00  0.00    +0.000 C 
ATOM     17  H   UNL     1       3.245   9.739  18.581  0.00  0.00    +0.000 HD
ENDROOT
BRANCH  12  18
ATOM     18  C   UNL     1      -4.757  13.030  22.708  0.00  0.00    +0.000 A 
ATOM     19  C   UNL     1      -5.583  12.567  21.673  0.00  0.00    +0.000 A 
ATOM     20  C   UNL     1      -6.835  13.146  21.464  0.00  0.00    +0.000 A 
ATOM     21  C   UNL     1      -7.268  14.170  22.298  0.00  0.00    +0.000 A 
ATOM     22  C   UNL     1      -6.443  14.626  23.318  0.00  0.00    +0.000 A 
ATOM     23  F   UNL     1      -6.858  15.610  24.124  0.00  0.00    +0.000 F 
ATOM     24  C   UNL     1      -5.181  14.086  23.510  0.00  0.00    +0.000 A 
ENDBRANCH  12  18
BRANCH   1  28
ATOM     25  C   UNL     1       3.629   5.134  17.489  0.00  0.00    +0.000 A 
ATOM     26  C   UNL     1       4.386   6.176  16.961  0.00  0.00    +0.000 A 
ATOM     27  C   UNL     1       4.049   7.498  17.220  0.00  0.00    +0.000 A 
ATOM     28  C   UNL     1       2.921   7.810  17.990  0.00  0.00    +0.000 A 
ATOM     29  C   UNL     1       2.179   6.773  18.540  0.00  0.00    +0.000 A 
ATOM     30  C   UNL     1       2.522   5.436  18.283  0.00  0.00    +0.000 A 
BRANCH  25  32
ATOM     31  C   UNL     1       3.748   2.868  18.113  0.00  0.00    +0.000 C 
ATOM     32  O   UNL     1       4.037   3.875  17.150  0.00  0.00    +0.000 OA
ENDBRANCH  25  32
ENDBRANCH   1  28
TORSDOF 3
ENDMDL
