MODEL 1
REMARK VINA RESULT:      -8.5      0.000      0.000
REMARK  Name = 
REMARK  4 active torsions:
REMARK  status: ('A' for Active; 'I' for Inactive)
REMARK    1  A    between atoms: C_2  and  O_3
REMARK    2  A    between atoms: C_2  and  C_11
REMARK    3  A    between atoms: O_3  and  C_4
REMARK    4  A    between atoms: C_4  and  C_5
REMARK                            x       y       z     vdW  Elec       q    Type
REMARK                         _______ _______ _______ _____ _____    ______ ____
ROOT
ATOM      1  C   UNL     1       5.232   4.292  18.005  0.00  0.00    +0.000 A 
ATOM      2  C   UNL     1       4.984   3.964  16.716  0.00  0.00    +0.000 A 
ATOM      3  C   UNL     1       5.896   4.487  15.727  0.00  0.00    +0.000 A 
ATOM      4  C   UNL     1       5.957   4.232  14.424  0.00  0.00    +0.000 A 
ATOM      5  C   UNL     1       5.211   3.442  13.503  0.00  0.00    +0.000 A 
ATOM      6  C   UNL     1       5.661   3.339  12.244  0.00  0.00    +0.000 A 
ATOM      7  C   UNL     1       6.874   4.023  11.817  0.00  0.00    +0.000 A 
ATOM      8  C   UNL     1       7.604   4.813  12.626  0.00  0.00    +0.000 A 
ATOM      9  C   UNL     1       7.184   4.967  14.038  0.00  0.00    +0.000 A 
ATOM     10  N   UNL     1       7.778   5.633  14.988  0.00  0.00    +0.000 NA
ATOM     11  C   UNL     1       7.014   5.351  16.092  0.00  0.00    +0.000 A 
ATOM     12  C   UNL     1       7.165   5.653  17.392  0.00  0.00    +0.000 A 
ATOM     13  N   UNL     1       6.280   5.161  18.349  0.00  0.00    +0.000 N 
ATOM     14  H   UNL     1       6.511   5.246  19.334  0.00  0.00    +0.000 HD
ENDROOT
BRANCH   1  16
ATOM     15  O   UNL     1       4.690   2.728  19.741  0.00  0.00    +0.000 OA
ATOM     16  C   UNL     1       4.336   3.648  19.015  0.00  0.00    +0.000 C 
BRANCH  16  17
ATOM     17  O   UNL     1       3.096   4.198  18.983  0.00  0.00    +0.000 OA
BRANCH  17  18
ATOM     18  C   UNL     1       2.820   5.068  20.091  0.00  0.00    +0.000 C 
BRANCH  18  19
ATOM     19  C   UNL     1       2.397   6.433  19.607  0.00  0.00    +0.000 A 
ATOM     20  C   UNL     1       1.820   7.348  20.497  0.00  0.00    +0.000 A 
ATOM     21  C   UNL     1       1.442   8.617  20.062  0.00  0.00    +0.000 A 
ATOM     22  C   UNL     1       1.630   8.983  18.730  0.00  0.00    +0.000 A 
ATOM     23  C   UNL     1       2.202   8.081  17.837  0.00  0.00    +0.000 A 
ATOM     24  C   UNL     1       2.581   6.812  18.271  0.00  0.00    +0.000 A 
ENDBRANCH  18  19
ENDBRANCH  17  18
ENDBRANCH  16  17
ENDBRANCH   1  16
TORSDOF 4
ENDMDL
MODEL 2
REMARK VINA RESULT:      -8.5      0.436      1.096
REMARK  Name = 
REMARK  4 active torsions:
REMARK  status: ('A' for Active; 'I' for Inactive)
REMARK    1  A    between atoms: C_2  and  O_3
REMARK    2  A    between atoms: C_2  and  C_11
REMARK    3  A    between atoms: O_3  and  C_4
REMARK    4  A    between atoms: C_4  and  C_5
REMARK                            x       y       z     vdW  Elec       q    Type
REMARK                         _______ _______ _______ _____ _____    ______ ____
ROOT
ATOM      1  C   UNL     1       4.728   4.306  17.869  0.00  0.00    +0.000 A 
ATOM      2  C   UNL     1       4.625   3.992  16.557  0.00  0.00    +0.000 A 
ATOM      3  C   UNL     1       5.653   4.508  15.685  0.00  0.00    +0.000 A 
ATOM      4  C   UNL     1       5.860   4.262  14.395  0.00  0.00    +0.000 A 
ATOM      5  C   UNL     1       5.213   3.492  13.387  0.00  0.00    +0.000 A 
ATOM      6  C   UNL     1       5.804   3.392  12.186  0.00  0.00    +0.000 A 
ATOM      7  C   UNL     1       7.068   4.059  11.909  0.00  0.00    +0.000 A 
ATOM      8  C   UNL     1       7.712   4.830  12.804  0.00  0.00    +0.000 A 
ATOM      9  C   UNL     1       7.134   4.979  14.160  0.00  0.00    +0.000 A 
ATOM     10  N   UNL     1       7.625   5.628  15.179  0.00  0.00    +0.000 NA
ATOM     11  C   UNL     1       6.734   5.350  16.185  0.00  0.00    +0.000 A 
ATOM     12  C   UNL     1       6.740   5.639  17.496  0.00  0.00    +0.000 A 
ATOM     13  N   UNL     1       5.742   5.154  18.340  0.00  0.00    +0.000 N 
ATOM     14  H   UNL     1       5.859   5.228  19.345  0.00  0.00    +0.000 HD
ENDROOT
BRANCH   1  16
ATOM     15  O   UNL     1       3.815   2.529  19.198  0.00  0.00    +0.000 OA
ATOM     16  C   UNL     1       3.711   3.669  18.763  0.00  0.00    +0.000 C 
BRANCH  16  17
ATOM     17  O   UNL     1       2.669   4.508  18.986  0.00  0.00    +0.000 OA
BRANCH  17  18
ATOM     18  C   UNL     1       2.930   5.504  19.986  0.00  0.00    +0.000 C 
BRANCH  18  19
ATOM     19  C   UNL     1       2.393   6.847  19.558  0.00  0.00    +0.000 A 
ATOM     20  C   UNL     1       2.548   7.277  18.234  0.00  0.00    +0.000 A 
ATOM     21  C   UNL     1       2.040   8.510  17.826  0.00  0.00    +0.000 A 
ATOM     22  C   UNL     1       1.377   9.328  18.740  0.00  0.00    +0.000 A 
ATOM     23  C   UNL     1       1.219   8.910  20.058  0.00  0.00    +0.000 A 
ATOM     24  C   UNL     1       1.725   7.678  20.467  0.00  0.00    +0.000 A 
ENDBRANCH  18  19
ENDBRANCH  17  18
ENDBRANCH  16  17
ENDBRANCH   1  16
TORSDOF 4
ENDMDL
MODEL 3
REMARK VINA RESULT:      -8.5      0.981      1.239
REMARK  Name = 
REMARK  4 active torsions:
REMARK  status: ('A' for Active; 'I' for Inactive)
REMARK    1  A    between atoms: C_2  and  O_3
REMARK    2  A    between atoms: C_2  and  C_11
REMARK    3  A    between atoms: O_3  and  C_4
REMARK    4  A    between atoms: C_4  and  C_5
REMARK                            x       y       z     vdW  Elec       q    Type
REMARK                         _______ _______ _______ _____ _____    ______ ____
ROOT
ATOM      1  C   UNL     1       4.931   3.516  17.955  0.00  0.00    +0.000 A 
ATOM      2  C   UNL     1       4.771   3.433  16.614  0.00  0.00    +0.000 A 
ATOM      3  C   UNL     1       5.758   4.104  15.801  0.00  0.00    +0.000 A 
ATOM      4  C   UNL     1       5.907   4.088  14.481  0.00  0.00    +0.000 A 
ATOM      5  C   UNL     1       5.219   3.497  13.383  0.00  0.00    +0.000 A 
ATOM      6  C   UNL     1       5.757   3.614  12.159  0.00  0.00    +0.000 A 
ATOM      7  C   UNL     1       7.005   4.334  11.948  0.00  0.00    +0.000 A 
ATOM      8  C   UNL     1       7.685   4.945  12.935  0.00  0.00    +0.000 A 
ATOM      9  C   UNL     1       7.167   4.850  14.320  0.00  0.00    +0.000 A 
ATOM     10  N   UNL     1       7.700   5.318  15.413  0.00  0.00    +0.000 NA
ATOM     11  C   UNL     1       6.857   4.859  16.393  0.00  0.00    +0.000 A 
ATOM     12  C   UNL     1       6.919   4.917  17.734  0.00  0.00    +0.000 A 
ATOM     13  N   UNL     1       5.962   4.281  18.522  0.00  0.00    +0.000 N 
ATOM     14  H   UNL     1       6.124   4.180  19.519  0.00  0.00    +0.000 HD
ENDROOT
BRANCH   1  16
ATOM     15  O   UNL     1       4.240   2.201  19.840  0.00  0.00    +0.000 OA
ATOM     16  C   UNL     1       3.958   2.721  18.768  0.00  0.00    +0.000 C 
BRANCH  16  17
ATOM     17  O   UNL     1       2.759   2.636  18.139  0.00  0.00    +0.000 OA
BRANCH  17  18
ATOM     18  C   UNL     1       1.667   3.172  18.901  0.00  0.00    +0.000 C 
BRANCH  18  19
ATOM     19  C   UNL     1       1.843   4.653  19.120  0.00  0.00    +0.000 A 
ATOM     20  C   UNL     1       1.721   5.194  20.407  0.00  0.00    +0.000 A 
ATOM     21  C   UNL     1       1.900   6.560  20.621  0.00  0.00    +0.000 A 
ATOM     22  C   UNL     1       2.194   7.402  19.549  0.00  0.00    +0.000 A 
ATOM     23  C   UNL     1       2.316   6.875  18.266  0.00  0.00    +0.000 A 
ATOM     24  C   UNL     1       2.139   5.509  18.051  0.00  0.00    +0.000 A 
ENDBRANCH  18  19
ENDBRANCH  17  18
ENDBRANCH  16  17
ENDBRANCH   1  16
TORSDOF 4
ENDMDL
MODEL 4
REMARK VINA RESULT:      -8.4      0.789      1.409
REMARK  Name = 
REMARK  4 active torsions:
REMARK  status: ('A' for Active; 'I' for Inactive)
REMARK    1  A    between atoms: C_2  and  O_3
REMARK    2  A    between atoms: C_2  and  C_11
REMARK    3  A    between atoms: O_3  and  C_4
REMARK    4  A    between atoms: C_4  and  C_5
REMARK                            x       y       z     vdW  Elec       q    Type
REMARK                         _______ _______ _______ _____ _____    ______ ____
ROOT
ATOM      1  C   UNL     1       5.182   3.788  18.033  0.00  0.00    +0.000 A 
ATOM      2  C   UNL     1       4.986   3.585  16.710  0.00  0.00    +0.000 A 
ATOM      3  C   UNL     1       5.895   4.255  15.810  0.00  0.00    +0.000 A 
ATOM      4  C   UNL     1       6.003   4.143  14.491  0.00  0.00    +0.000 A 
ATOM      5  C   UNL     1       5.325   3.419  13.469  0.00  0.00    +0.000 A 
ATOM      6  C   UNL     1       5.813   3.473  12.221  0.00  0.00    +0.000 A 
ATOM      7  C   UNL     1       6.999   4.258  11.906  0.00  0.00    +0.000 A 
ATOM      8  C   UNL     1       7.664   4.993  12.816  0.00  0.00    +0.000 A 
ATOM      9  C   UNL     1       7.199   4.975  14.223  0.00  0.00    +0.000 A 
ATOM     10  N   UNL     1       7.731   5.566  15.256  0.00  0.00    +0.000 NA
ATOM     11  C   UNL     1       6.955   5.130  16.299  0.00  0.00    +0.000 A 
ATOM     12  C   UNL     1       7.055   5.300  17.628  0.00  0.00    +0.000 A 
ATOM     13  N   UNL     1       6.172   4.666  18.499  0.00  0.00    +0.000 N 
ATOM     14  H   UNL     1       6.372   4.658  19.495  0.00  0.00    +0.000 HD
ENDROOT
BRANCH   1  16
ATOM     15  O   UNL     1       4.665   2.537  20.015  0.00  0.00    +0.000 OA
ATOM     16  C   UNL     1       4.295   2.996  18.942  0.00  0.00    +0.000 C 
BRANCH  16  17
ATOM     17  O   UNL     1       3.062   2.837  18.397  0.00  0.00    +0.000 OA
BRANCH  17  18
ATOM     18  C   UNL     1       1.998   3.339  19.219  0.00  0.00    +0.000 C 
BRANCH  18  19
ATOM     19  C   UNL     1       2.048   4.845  19.300  0.00  0.00    +0.000 A 
ATOM     20  C   UNL     1       2.268   5.605  18.144  0.00  0.00    +0.000 A 
ATOM     21  C   UNL     1       2.299   6.998  18.208  0.00  0.00    +0.000 A 
ATOM     22  C   UNL     1       2.119   7.644  19.430  0.00  0.00    +0.000 A 
ATOM     23  C   UNL     1       1.901   6.898  20.585  0.00  0.00    +0.000 A 
ATOM     24  C   UNL     1       1.868   5.506  20.522  0.00  0.00    +0.000 A 
ENDBRANCH  18  19
ENDBRANCH  17  18
ENDBRANCH  16  17
ENDBRANCH   1  16
TORSDOF 4
ENDMDL
MODEL 5
REMARK VINA RESULT:      -7.9      2.402      7.245
REMARK  Name = 
REMARK  4 active torsions:
REMARK  status: ('A' for Active; 'I' for Inactive)
REMARK    1  A    between atoms: C_2  and  O_3
REMARK    2  A    between atoms: C_2  and  C_11
REMARK    3  A    between atoms: O_3  and  C_4
REMARK    4  A    between atoms: C_4  and  C_5
REMARK                            x       y       z     vdW  Elec       q    Type
REMARK                         _______ _______ _______ _____ _____    ______ ____
ROOT
ATOM      1  C   UNL     1       5.724   5.404  16.537  0.00  0.00    +0.000 A 
ATOM      2  C   UNL     1       5.160   4.388  17.231  0.00  0.00    +0.000 A 
ATOM      3  C   UNL     1       4.010   4.715  18.039  0.00  0.00    +0.000 A 
ATOM      4  C   UNL     1       3.205   3.905  18.719  0.00  0.00    +0.000 A 
ATOM      5  C   UNL     1       3.137   2.504  18.963  0.00  0.00    +0.000 A 
ATOM      6  C   UNL     1       2.074   2.025  19.626  0.00  0.00    +0.000 A 
ATOM      7  C   UNL     1       1.016   2.909  20.097  0.00  0.00    +0.000 A 
ATOM      8  C   UNL     1       1.037   4.244  19.932  0.00  0.00    +0.000 A 
ATOM      9  C   UNL     1       2.170   4.852  19.195  0.00  0.00    +0.000 A 
ATOM     10  N   UNL     1       2.348   6.104  18.881  0.00  0.00    +0.000 NA
ATOM     11  C   UNL     1       3.495   6.077  18.129  0.00  0.00    +0.000 A 
ATOM     12  C   UNL     1       4.137   7.030  17.433  0.00  0.00    +0.000 A 
ATOM     13  N   UNL     1       5.255   6.722  16.661  0.00  0.00    +0.000 N 
ATOM     14  H   UNL     1       5.614   7.408  16.005  0.00  0.00    +0.000 HD
ENDROOT
BRANCH   1  16
ATOM     15  O   UNL     1       7.826   4.384  15.994  0.00  0.00    +0.000 OA
ATOM     16  C   UNL     1       6.844   5.015  15.625  0.00  0.00    +0.000 C 
BRANCH  16  17
ATOM     17  O   UNL     1       6.631   5.483  14.369  0.00  0.00    +0.000 OA
BRANCH  17  18
ATOM     18  C   UNL     1       7.441   4.847  13.369  0.00  0.00    +0.000 C 
BRANCH  18  19
ATOM     19  C   UNL     1       6.627   3.863  12.567  0.00  0.00    +0.000 A 
ATOM     20  C   UNL     1       7.261   2.820  11.879  0.00  0.00    +0.000 A 
ATOM     21  C   UNL     1       6.514   1.896  11.149  0.00  0.00    +0.000 A 
ATOM     22  C   UNL     1       5.126   2.009  11.094  0.00  0.00    +0.000 A 
ATOM     23  C   UNL     1       4.486   3.042  11.774  0.00  0.00    +0.000 A 
ATOM     24  C   UNL     1       5.231   3.966  12.504  0.00  0.00    +0.000 A 
ENDBRANCH  18  19
ENDBRANCH  17  18
ENDBRANCH  16  17
ENDBRANCH   1  16
TORSDOF 4
ENDMDL
MODEL 6
REMARK VINA RESULT:      -7.9      3.279      6.435
REMARK  Name = 
REMARK  4 active torsions:
REMARK  status: ('A' for Active; 'I' for Inactive)
REMARK    1  A    between atoms: C_2  and  O_3
REMARK    2  A    between atoms: C_2  and  C_11
REMARK    3  A    between atoms: O_3  and  C_4
REMARK    4  A    between atoms: C_4  and  C_5
REMARK                            x       y       z     vdW  Elec       q    Type
REMARK                         _______ _______ _______ _____ _____    ______ ____
ROOT
ATOM      1  C   UNL     1       4.351   5.531  18.058  0.00  0.00    +0.000 A 
ATOM      2  C   UNL     1       3.583   5.967  19.083  0.00  0.00    +0.000 A 
ATOM      3  C   UNL     1       2.897   7.222  18.890  0.00  0.00    +0.000 A 
ATOM      4  C   UNL     1       2.002   7.817  19.672  0.00  0.00    +0.000 A 
ATOM      5  C   UNL     1       1.402   7.537  20.933  0.00  0.00    +0.000 A 
ATOM      6  C   UNL     1       0.417   8.341  21.361  0.00  0.00    +0.000 A 
ATOM      7  C   UNL     1      -0.028   9.479  20.568  0.00  0.00    +0.000 A 
ATOM      8  C   UNL     1       0.520   9.819  19.387  0.00  0.00    +0.000 A 
ATOM      9  C   UNL     1       1.604   8.973  18.835  0.00  0.00    +0.000 A 
ATOM     10  N   UNL     1       2.221   9.096  17.694  0.00  0.00    +0.000 NA
ATOM     11  C   UNL     1       3.044   7.999  17.664  0.00  0.00    +0.000 A 
ATOM     12  C   UNL     1       3.854   7.507  16.712  0.00  0.00    +0.000 A 
ATOM     13  N   UNL     1       4.529   6.303  16.899  0.00  0.00    +0.000 N 
ATOM     14  H   UNL     1       4.986   5.859  16.108  0.00  0.00    +0.000 HD
ENDROOT
BRANCH   1  16
ATOM     15  O   UNL     1       5.921   3.965  18.974  0.00  0.00    +0.000 OA
ATOM     16  C   UNL     1       4.962   4.178  18.244  0.00  0.00    +0.000 C 
BRANCH  16  17
ATOM     17  O   UNL     1       4.332   3.254  17.475  0.00  0.00    +0.000 OA
BRANCH  17  18
ATOM     18  C   UNL     1       3.914   2.087  18.199  0.00  0.00    +0.000 C 
BRANCH  18  19
ATOM     19  C   UNL     1       2.912   2.451  19.268  0.00  0.00    +0.000 A 
ATOM     20  C   UNL     1       3.284   2.426  20.618  0.00  0.00    +0.000 A 
ATOM     21  C   UNL     1       2.369   2.777  21.611  0.00  0.00    +0.000 A 
ATOM     22  C   UNL     1       1.072   3.149  21.263  0.00  0.00    +0.000 A 
ATOM     23  C   UNL     1       0.692   3.177  19.924  0.00  0.00    +0.000 A 
ATOM     24  C   UNL     1       1.606   2.827  18.931  0.00  0.00    +0.000 A 
ENDBRANCH  18  19
ENDBRANCH  17  18
ENDBRANCH  16  17
ENDBRANCH   1  16
TORSDOF 4
ENDMDL
MODEL 7
REMARK VINA RESULT:      -7.9      3.262      6.445
REMARK  Name = 
REMARK  4 active torsions:
REMARK  status: ('A' for Active; 'I' for Inactive)
REMARK    1  A    between atoms: C_2  and  O_3
REMARK    2  A    between atoms: C_2  and  C_11
REMARK    3  A    between atoms: O_3  and  C_4
REMARK    4  A    between atoms: C_4  and  C_5
REMARK                            x       y       z     vdW  Elec       q    Type
REMARK                         _______ _______ _______ _____ _____    ______ ____
ROOT
ATOM      1  C   UNL     1       4.356   5.493  18.027  0.00  0.00    +0.000 A 
ATOM      2  C   UNL     1       3.593   5.930  19.055  0.00  0.00    +0.000 A 
ATOM      3  C   UNL     1       2.913   7.190  18.867  0.00  0.00    +0.000 A 
ATOM      4  C   UNL     1       2.023   7.787  19.653  0.00  0.00    +0.000 A 
ATOM      5  C   UNL     1       1.426   7.508  20.915  0.00  0.00    +0.000 A 
ATOM      6  C   UNL     1       0.446   8.316  21.348  0.00  0.00    +0.000 A 
ATOM      7  C   UNL     1       0.005   9.458  20.559  0.00  0.00    +0.000 A 
ATOM      8  C   UNL     1       0.551   9.798  19.376  0.00  0.00    +0.000 A 
ATOM      9  C   UNL     1       1.629   8.947  18.820  0.00  0.00    +0.000 A 
ATOM     10  N   UNL     1       2.244   9.070  17.677  0.00  0.00    +0.000 NA
ATOM     11  C   UNL     1       3.061   7.968  17.643  0.00  0.00    +0.000 A 
ATOM     12  C   UNL     1       3.865   7.474  16.687  0.00  0.00    +0.000 A 
ATOM     13  N   UNL     1       4.534   6.266  16.869  0.00  0.00    +0.000 N 
ATOM     14  H   UNL     1       4.986   5.821  16.076  0.00  0.00    +0.000 HD
ENDROOT
BRANCH   1  16
ATOM     15  O   UNL     1       5.929   3.918  18.924  0.00  0.00    +0.000 OA
ATOM     16  C   UNL     1       4.960   4.136  18.208  0.00  0.00    +0.000 C 
BRANCH  16  17
ATOM     17  O   UNL     1       4.311   3.213  17.454  0.00  0.00    +0.000 OA
BRANCH  17  18
ATOM     18  C   UNL     1       3.881   2.060  18.192  0.00  0.00    +0.000 C 
BRANCH  18  19
ATOM     19  C   UNL     1       2.907   2.450  19.276  0.00  0.00    +0.000 A 
ATOM     20  C   UNL     1       1.598   2.825  18.944  0.00  0.00    +0.000 A 
ATOM     21  C   UNL     1       0.687   3.171  19.941  0.00  0.00    +0.000 A 
ATOM     22  C   UNL     1       1.076   3.154  21.280  0.00  0.00    +0.000 A 
ATOM     23  C   UNL     1       2.375   2.784  21.619  0.00  0.00    +0.000 A 
ATOM     24  C   UNL     1       3.287   2.437  20.624  0.00  0.00    +0.000 A 
ENDBRANCH  18  19
ENDBRANCH  17  18
ENDBRANCH  16  17
ENDBRANCH   1  16
TORSDOF 4
ENDMDL
MODEL 8
REMARK VINA RESULT:      -7.9      2.338      7.245
REMARK  Name = 
REMARK  4 active torsions:
REMARK  status: ('A' for Active; 'I' for Inactive)
REMARK    1  A    between atoms: C_2  and  O_3
REMARK    2  A    between atoms: C_2  and  C_11
REMARK    3  A    between atoms: O_3  and  C_4
REMARK    4  A    between atoms: C_4  and  C_5
REMARK                            x       y       z     vdW  Elec       q    Type
REMARK                         _______ _______ _______ _____ _____    ______ ____
ROOT
ATOM      1  C   UNL     1       5.673   5.467  16.725  0.00  0.00    +0.000 A 
ATOM      2  C   UNL     1       5.137   4.477  17.476  0.00  0.00    +0.000 A 
ATOM      3  C   UNL     1       4.015   4.833  18.312  0.00  0.00    +0.000 A 
ATOM      4  C   UNL     1       3.237   4.048  19.049  0.00  0.00    +0.000 A 
ATOM      5  C   UNL     1       3.180   2.656  19.346  0.00  0.00    +0.000 A 
ATOM      6  C   UNL     1       2.141   2.201  20.064  0.00  0.00    +0.000 A 
ATOM      7  C   UNL     1       1.101   3.102  20.541  0.00  0.00    +0.000 A 
ATOM      8  C   UNL     1       1.113   4.430  20.326  0.00  0.00    +0.000 A 
ATOM      9  C   UNL     1       2.218   5.011  19.528  0.00  0.00    +0.000 A 
ATOM     10  N   UNL     1       2.383   6.251  19.162  0.00  0.00    +0.000 NA
ATOM     11  C   UNL     1       3.502   6.197  18.371  0.00  0.00    +0.000 A 
ATOM     12  C   UNL     1       4.117   7.124  17.618  0.00  0.00    +0.000 A 
ATOM     13  N   UNL     1       5.207   6.788  16.819  0.00  0.00    +0.000 N 
ATOM     14  H   UNL     1       5.541   7.450  16.125  0.00  0.00    +0.000 HD
ENDROOT
BRANCH   1  16
ATOM     15  O   UNL     1       7.794   4.501  16.156  0.00  0.00    +0.000 OA
ATOM     16  C   UNL     1       6.761   5.045  15.789  0.00  0.00    +0.000 C 
BRANCH  16  17
ATOM     17  O   UNL     1       6.454   5.379  14.510  0.00  0.00    +0.000 OA
BRANCH  17  18
ATOM     18  C   UNL     1       7.297   4.754  13.531  0.00  0.00    +0.000 C 
BRANCH  18  19
ATOM     19  C   UNL     1       6.501   3.814  12.660  0.00  0.00    +0.000 A 
ATOM     20  C   UNL     1       5.111   3.959  12.555  0.00  0.00    +0.000 A 
ATOM     21  C   UNL     1       4.370   3.105  11.739  0.00  0.00    +0.000 A 
ATOM     22  C   UNL     1       5.009   2.092  11.026  0.00  0.00    +0.000 A 
ATOM     23  C   UNL     1       6.389   1.938  11.125  0.00  0.00    +0.000 A 
ATOM     24  C   UNL     1       7.132   2.792  11.939  0.00  0.00    +0.000 A 
ENDBRANCH  18  19
ENDBRANCH  17  18
ENDBRANCH  16  17
ENDBRANCH   1  16
TORSDOF 4
ENDMDL
MODEL 9
REMARK VINA RESULT:      -7.9      3.296      8.226
REMARK  Name = 
REMARK  4 active torsions:
REMARK  status: ('A' for Active; 'I' for Inactive)
REMARK    1  A    between atoms: C_2  and  O_3
REMARK    2  A    between atoms: C_2  and  C_11
REMARK    3  A    between atoms: O_3  and  C_4
REMARK    4  A    between atoms: C_4  and  C_5
REMARK                            x       y       z     vdW  Elec       q    Type
REMARK                         _______ _______ _______ _____ _____    ______ ____
ROOT
ATOM      1  C   UNL     1       2.332   7.153  19.145  0.00  0.00    +0.000 A 
ATOM      2  C   UNL     1       1.812   7.605  20.310  0.00  0.00    +0.000 A 
ATOM      3  C   UNL     1       1.197   8.911  20.282  0.00  0.00    +0.000 A 
ATOM      4  C   UNL     1       0.517   9.539  21.235  0.00  0.00    +0.000 A 
ATOM      5  C   UNL     1       0.154   9.257  22.584  0.00  0.00    +0.000 A 
ATOM      6  C   UNL     1      -0.667  10.112  23.213  0.00  0.00    +0.000 A 
ATOM      7  C   UNL     1      -1.169  11.306  22.546  0.00  0.00    +0.000 A 
ATOM      8  C   UNL     1      -0.836  11.648  21.288  0.00  0.00    +0.000 A 
ATOM      9  C   UNL     1       0.053  10.748  20.518  0.00  0.00    +0.000 A 
ATOM     10  N   UNL     1       0.445  10.868  19.280  0.00  0.00    +0.000 NA
ATOM     11  C   UNL     1       1.163   9.718  19.067  0.00  0.00    +0.000 A 
ATOM     12  C   UNL     1       1.733   9.205  17.964  0.00  0.00    +0.000 A 
ATOM     13  N   UNL     1       2.338   7.951  17.990  0.00  0.00    +0.000 N 
ATOM     14  H   UNL     1       2.599   7.504  17.117  0.00  0.00    +0.000 HD
ENDROOT
BRANCH   1  16
ATOM     15  O   UNL     1       2.929   5.083  20.201  0.00  0.00    +0.000 OA
ATOM     16  C   UNL     1       2.863   5.755  19.180  0.00  0.00    +0.000 C 
BRANCH  16  17
ATOM     17  O   UNL     1       3.281   5.366  17.949  0.00  0.00    +0.000 OA
BRANCH  17  18
ATOM     18  C   UNL     1       4.483   4.582  17.966  0.00  0.00    +0.000 C 
BRANCH  18  19
ATOM     19  C   UNL     1       5.700   5.469  18.050  0.00  0.00    +0.000 A 
ATOM     20  C   UNL     1       5.827   6.572  17.196  0.00  0.00    +0.000 A 
ATOM     21  C   UNL     1       6.941   7.407  17.279  0.00  0.00    +0.000 A 
ATOM     22  C   UNL     1       7.943   7.143  18.212  0.00  0.00    +0.000 A 
ATOM     23  C   UNL     1       7.826   6.049  19.065  0.00  0.00    +0.000 A 
ATOM     24  C   UNL     1       6.713   5.214  18.984  0.00  0.00    +0.000 A 
ENDBRANCH  18  19
ENDBRANCH  17  18
ENDBRANCH  16  17
ENDBRANCH   1  16
TORSDOF 4
ENDMDL
