MODEL 1
REMARK VINA RESULT:      -7.6      0.000      0.000
REMARK  Name = 
REMARK  4 active torsions:
REMARK  status: ('A' for Active; 'I' for Inactive)
REMARK    1  A    between atoms: C_1  and  C_2
REMARK    2  A    between atoms: C_5  and  C_6
REMARK    3  A    between atoms: N_10  and  C_11
REMARK    4  A    between atoms: N_19  and  C_20
REMARK                            x       y       z     vdW  Elec       q    Type
REMARK                         _______ _______ _______ _____ _____    ______ ____
ROOT
ATOM      1  C   UNL     1       6.447   4.161  16.346  0.00  0.00    +0.000 C 
ATOM      2  C   UNL     1       5.520   4.798  17.076  0.00  0.00    +0.000 C 
ATOM      3  C   UNL     1       5.065   4.155  18.360  0.00  0.00    +0.000 C 
ATOM      4  O   UNL     1       5.638   3.239  18.929  0.00  0.00    +0.000 OA
ATOM      5  N   UNL     1       3.866   4.777  18.652  0.00  0.00    +0.000 N 
ATOM      6  C   UNL     1       3.671   5.895  17.825  0.00  0.00    +0.000 C 
ATOM      7  S   UNL     1       2.469   7.060  17.947  0.00  0.00    +0.000 S 
ATOM      8  N   UNL     1       4.725   5.905  16.879  0.00  0.00    +0.000 N 
ATOM      9  C   UNL     1       4.939   6.946  15.895  0.00  0.00    +0.000 C 
ENDROOT
BRANCH   1  14
ATOM     10  C   UNL     1       8.646   6.131  12.438  0.00  0.00    +0.000 C 
ATOM     11  C   UNL     1       7.709   5.227  13.135  0.00  0.00    +0.000 A 
ATOM     12  C   UNL     1       6.770   4.326  12.700  0.00  0.00    +0.000 A 
ATOM     13  C   UNL     1       6.190   3.783  13.868  0.00  0.00    +0.000 A 
ATOM     14  C   UNL     1       6.794   4.366  14.979  0.00  0.00    +0.000 A 
ATOM     15  O   UNL     1       7.722   5.263  14.495  0.00  0.00    +0.000 OA
ENDBRANCH   1  14
BRANCH   5  16
ATOM     16  C   UNL     1       2.897   4.187  19.504  0.00  0.00    +0.000 A 
ATOM     17  C   UNL     1       3.011   4.237  20.897  0.00  0.00    +0.000 A 
ATOM     18  C   UNL     1       2.025   3.655  21.697  0.00  0.00    +0.000 A 
ATOM     19  C   UNL     1       0.945   2.982  21.120  0.00  0.00    +0.000 A 
ATOM     20  C   UNL     1       0.855   2.882  19.737  0.00  0.00    +0.000 A 
ATOM     21  C   UNL     1       1.828   3.476  18.936  0.00  0.00    +0.000 A 
ENDBRANCH   5  16
TORSDOF 2
ENDMDL
MODEL 2
REMARK VINA RESULT:      -7.5      0.068      1.054
REMARK  Name = 
REMARK  4 active torsions:
REMARK  status: ('A' for Active; 'I' for Inactive)
REMARK    1  A    between atoms: C_1  and  C_2
REMARK    2  A    between atoms: C_5  and  C_6
REMARK    3  A    between atoms: N_10  and  C_11
REMARK    4  A    between atoms: N_19  and  C_20
REMARK                            x       y       z     vdW  Elec       q    Type
REMARK                         _______ _______ _______ _____ _____    ______ ____
ROOT
ATOM      1  C   UNL     1       6.430   4.112  16.285  0.00  0.00    +0.000 C 
ATOM      2  C   UNL     1       5.509   4.748  17.023  0.00  0.00    +0.000 C 
ATOM      3  C   UNL     1       5.045   4.089  18.296  0.00  0.00    +0.000 C 
ATOM      4  O   UNL     1       5.607   3.157  18.851  0.00  0.00    +0.000 OA
ATOM      5  N   UNL     1       3.852   4.719  18.596  0.00  0.00    +0.000 N 
ATOM      6  C   UNL     1       3.671   5.852  17.788  0.00  0.00    +0.000 C 
ATOM      7  S   UNL     1       2.482   7.028  17.927  0.00  0.00    +0.000 S 
ATOM      8  N   UNL     1       4.727   5.867  16.844  0.00  0.00    +0.000 N 
ATOM      9  C   UNL     1       4.954   6.921  15.877  0.00  0.00    +0.000 C 
ENDROOT
BRANCH   1  14
ATOM     10  C   UNL     1       8.650   6.129  12.411  0.00  0.00    +0.000 C 
ATOM     11  C   UNL     1       7.706   5.219  13.093  0.00  0.00    +0.000 A 
ATOM     12  C   UNL     1       6.764   4.331  12.642  0.00  0.00    +0.000 A 
ATOM     13  C   UNL     1       6.178   3.772  13.801  0.00  0.00    +0.000 A 
ATOM     14  C   UNL     1       6.782   4.336  14.922  0.00  0.00    +0.000 A 
ATOM     15  O   UNL     1       7.716   5.235  14.453  0.00  0.00    +0.000 OA
ENDBRANCH   1  14
BRANCH   5  16
ATOM     16  C   UNL     1       2.876   4.126  19.437  0.00  0.00    +0.000 A 
ATOM     17  C   UNL     1       1.747   3.482  18.918  0.00  0.00    +0.000 A 
ATOM     18  C   UNL     1       0.820   2.899  19.784  0.00  0.00    +0.000 A 
ATOM     19  C   UNL     1       0.984   2.988  21.169  0.00  0.00    +0.000 A 
ATOM     20  C   UNL     1       2.074   3.672  21.690  0.00  0.00    +0.000 A 
ATOM     21  C   UNL     1       3.010   4.241  20.830  0.00  0.00    +0.000 A 
ENDBRANCH   5  16
TORSDOF 2
ENDMDL
MODEL 3
REMARK VINA RESULT:      -6.8      0.701      1.150
REMARK  Name = 
REMARK  4 active torsions:
REMARK  status: ('A' for Active; 'I' for Inactive)
REMARK    1  A    between atoms: C_1  and  C_2
REMARK    2  A    between atoms: C_5  and  C_6
REMARK    3  A    between atoms: N_10  and  C_11
REMARK    4  A    between atoms: N_19  and  C_20
REMARK                            x       y       z     vdW  Elec       q    Type
REMARK                         _______ _______ _______ _____ _____    ______ ____
ROOT
ATOM      1  C   UNL     1       6.335   4.095  16.282  0.00  0.00    +0.000 C 
ATOM      2  C   UNL     1       5.442   4.744  17.044  0.00  0.00    +0.000 C 
ATOM      3  C   UNL     1       5.016   4.100  18.337  0.00  0.00    +0.000 C 
ATOM      4  O   UNL     1       5.589   3.170  18.882  0.00  0.00    +0.000 OA
ATOM      5  N   UNL     1       3.837   4.742  18.670  0.00  0.00    +0.000 N 
ATOM      6  C   UNL     1       3.638   5.869  17.857  0.00  0.00    +0.000 C 
ATOM      7  S   UNL     1       2.462   7.055  18.024  0.00  0.00    +0.000 S 
ATOM      8  N   UNL     1       4.662   5.866  16.879  0.00  0.00    +0.000 N 
ATOM      9  C   UNL     1       4.865   6.910  15.895  0.00  0.00    +0.000 C 
ENDROOT
BRANCH   1  14
ATOM     10  C   UNL     1       6.438   3.292  11.451  0.00  0.00    +0.000 C 
ATOM     11  C   UNL     1       6.787   3.999  12.701  0.00  0.00    +0.000 A 
ATOM     12  C   UNL     1       7.612   5.056  12.985  0.00  0.00    +0.000 A 
ATOM     13  C   UNL     1       7.523   5.248  14.382  0.00  0.00    +0.000 A 
ATOM     14  C   UNL     1       6.644   4.303  14.906  0.00  0.00    +0.000 A 
ATOM     15  O   UNL     1       6.212   3.537  13.844  0.00  0.00    +0.000 OA
ENDBRANCH   1  14
BRANCH   5  16
ATOM     16  C   UNL     1       2.885   4.163  19.548  0.00  0.00    +0.000 A 
ATOM     17  C   UNL     1       3.049   4.189  20.937  0.00  0.00    +0.000 A 
ATOM     18  C   UNL     1       2.077   3.620  21.763  0.00  0.00    +0.000 A 
ATOM     19  C   UNL     1       0.960   2.984  21.215  0.00  0.00    +0.000 A 
ATOM     20  C   UNL     1       0.819   2.908  19.835  0.00  0.00    +0.000 A 
ATOM     21  C   UNL     1       1.777   3.489  19.008  0.00  0.00    +0.000 A 
ENDBRANCH   5  16
TORSDOF 2
ENDMDL
MODEL 4
REMARK VINA RESULT:      -6.7      0.700      1.553
REMARK  Name = 
REMARK  4 active torsions:
REMARK  status: ('A' for Active; 'I' for Inactive)
REMARK    1  A    between atoms: C_1  and  C_2
REMARK    2  A    between atoms: C_5  and  C_6
REMARK    3  A    between atoms: N_10  and  C_11
REMARK    4  A    between atoms: N_19  and  C_20
REMARK                            x       y       z     vdW  Elec       q    Type
REMARK                         _______ _______ _______ _____ _____    ______ ____
ROOT
ATOM      1  C   UNL     1       6.315   4.069  16.293  0.00  0.00    +0.000 C 
ATOM      2  C   UNL     1       5.423   4.711  17.061  0.00  0.00    +0.000 C 
ATOM      3  C   UNL     1       4.981   4.045  18.338  0.00  0.00    +0.000 C 
ATOM      4  O   UNL     1       5.541   3.098  18.868  0.00  0.00    +0.000 OA
ATOM      5  N   UNL     1       3.806   4.692  18.675  0.00  0.00    +0.000 N 
ATOM      6  C   UNL     1       3.623   5.836  17.884  0.00  0.00    +0.000 C 
ATOM      7  S   UNL     1       2.458   7.030  18.066  0.00  0.00    +0.000 S 
ATOM      8  N   UNL     1       4.655   5.844  16.914  0.00  0.00    +0.000 N 
ATOM      9  C   UNL     1       4.876   6.906  15.953  0.00  0.00    +0.000 C 
ENDROOT
BRANCH   1  14
ATOM     10  C   UNL     1       6.439   3.371  11.446  0.00  0.00    +0.000 C 
ATOM     11  C   UNL     1       6.790   4.044  12.713  0.00  0.00    +0.000 A 
ATOM     12  C   UNL     1       7.630   5.082  13.026  0.00  0.00    +0.000 A 
ATOM     13  C   UNL     1       7.534   5.245  14.427  0.00  0.00    +0.000 A 
ATOM     14  C   UNL     1       6.637   4.303  14.924  0.00  0.00    +0.000 A 
ATOM     15  O   UNL     1       6.201   3.567  13.843  0.00  0.00    +0.000 OA
ENDBRANCH   1  14
BRANCH   5  16
ATOM     16  C   UNL     1       2.841   4.104  19.533  0.00  0.00    +0.000 A 
ATOM     17  C   UNL     1       1.671   3.519  19.039  0.00  0.00    +0.000 A 
ATOM     18  C   UNL     1       0.756   2.939  19.920  0.00  0.00    +0.000 A 
ATOM     19  C   UNL     1       0.976   2.975  21.300  0.00  0.00    +0.000 A 
ATOM     20  C   UNL     1       2.110   3.602  21.801  0.00  0.00    +0.000 A 
ATOM     21  C   UNL     1       3.033   4.167  20.923  0.00  0.00    +0.000 A 
ENDBRANCH   5  16
TORSDOF 2
ENDMDL
MODEL 5
REMARK VINA RESULT:      -6.6      1.920      2.440
REMARK  Name = 
REMARK  4 active torsions:
REMARK  status: ('A' for Active; 'I' for Inactive)
REMARK    1  A    between atoms: C_1  and  C_2
REMARK    2  A    between atoms: C_5  and  C_6
REMARK    3  A    between atoms: N_10  and  C_11
REMARK    4  A    between atoms: N_19  and  C_20
REMARK                            x       y       z     vdW  Elec       q    Type
REMARK                         _______ _______ _______ _____ _____    ______ ____
ROOT
ATOM      1  C   UNL     1       5.147   3.782  14.936  0.00  0.00    +0.000 C 
ATOM      2  C   UNL     1       5.279   4.035  16.246  0.00  0.00    +0.000 C 
ATOM      3  C   UNL     1       4.038   4.018  17.099  0.00  0.00    +0.000 C 
ATOM      4  O   UNL     1       2.961   3.550  16.763  0.00  0.00    +0.000 OA
ATOM      5  N   UNL     1       4.396   4.704  18.244  0.00  0.00    +0.000 N 
ATOM      6  C   UNL     1       5.783   4.914  18.285  0.00  0.00    +0.000 C 
ATOM      7  S   UNL     1       6.688   5.518  19.562  0.00  0.00    +0.000 S 
ATOM      8  N   UNL     1       6.312   4.462  17.051  0.00  0.00    +0.000 N 
ATOM      9  C   UNL     1       7.722   4.424  16.723  0.00  0.00    +0.000 C 
ENDROOT
BRANCH   1  14
ATOM     10  C   UNL     1       8.657   6.101  12.425  0.00  0.00    +0.000 C 
ATOM     11  C   UNL     1       7.625   5.067  12.645  0.00  0.00    +0.000 A 
ATOM     12  C   UNL     1       7.125   4.057  11.863  0.00  0.00    +0.000 A 
ATOM     13  C   UNL     1       6.137   3.419  12.647  0.00  0.00    +0.000 A 
ATOM     14  C   UNL     1       6.068   4.057  13.883  0.00  0.00    +0.000 A 
ATOM     15  O   UNL     1       6.992   5.079  13.848  0.00  0.00    +0.000 OA
ENDBRANCH   1  14
BRANCH   5  16
ATOM     16  C   UNL     1       3.433   5.300  19.099  0.00  0.00    +0.000 A 
ATOM     17  C   UNL     1       2.772   4.568  20.090  0.00  0.00    +0.000 A 
ATOM     18  C   UNL     1       1.842   5.200  20.919  0.00  0.00    +0.000 A 
ATOM     19  C   UNL     1       1.531   6.551  20.740  0.00  0.00    +0.000 A 
ATOM     20  C   UNL     1       2.145   7.269  19.722  0.00  0.00    +0.000 A 
ATOM     21  C   UNL     1       3.085   6.647  18.904  0.00  0.00    +0.000 A 
ENDBRANCH   5  16
TORSDOF 2
ENDMDL
MODEL 6
REMARK VINA RESULT:      -6.6      1.907      2.423
REMARK  Name = 
REMARK  4 active torsions:
REMARK  status: ('A' for Active; 'I' for Inactive)
REMARK    1  A    between atoms: C_1  and  C_2
REMARK    2  A    between atoms: C_5  and  C_6
REMARK    3  A    between atoms: N_10  and  C_11
REMARK    4  A    between atoms: N_19  and  C_20
REMARK                            x       y       z     vdW  Elec       q    Type
REMARK                         _______ _______ _______ _____ _____    ______ ____
ROOT
ATOM      1  C   UNL     1       5.156   3.774  14.929  0.00  0.00    +0.000 C 
ATOM      2  C   UNL     1       5.285   4.030  16.239  0.00  0.00    +0.000 C 
ATOM      3  C   UNL     1       4.042   4.007  17.090  0.00  0.00    +0.000 C 
ATOM      4  O   UNL     1       2.969   3.531  16.753  0.00  0.00    +0.000 OA
ATOM      5  N   UNL     1       4.395   4.697  18.235  0.00  0.00    +0.000 N 
ATOM      6  C   UNL     1       5.780   4.915  18.277  0.00  0.00    +0.000 C 
ATOM      7  S   UNL     1       6.681   5.527  19.555  0.00  0.00    +0.000 S 
ATOM      8  N   UNL     1       6.314   4.464  17.045  0.00  0.00    +0.000 N 
ATOM      9  C   UNL     1       7.724   4.435  16.718  0.00  0.00    +0.000 C 
ENDROOT
BRANCH   1  14
ATOM     10  C   UNL     1       8.667   6.101  12.427  0.00  0.00    +0.000 C 
ATOM     11  C   UNL     1       7.634   5.066  12.642  0.00  0.00    +0.000 A 
ATOM     12  C   UNL     1       7.132   4.061  11.856  0.00  0.00    +0.000 A 
ATOM     13  C   UNL     1       6.144   3.420  12.638  0.00  0.00    +0.000 A 
ATOM     14  C   UNL     1       6.076   4.053  13.877  0.00  0.00    +0.000 A 
ATOM     15  O   UNL     1       7.002   5.074  13.846  0.00  0.00    +0.000 OA
ENDBRANCH   1  14
BRANCH   5  16
ATOM     16  C   UNL     1       3.427   5.288  19.087  0.00  0.00    +0.000 A 
ATOM     17  C   UNL     1       3.079   6.639  18.984  0.00  0.00    +0.000 A 
ATOM     18  C   UNL     1       2.110   7.175  19.834  0.00  0.00    +0.000 A 
ATOM     19  C   UNL     1       1.513   6.385  20.821  0.00  0.00    +0.000 A 
ATOM     20  C   UNL     1       1.894   5.057  20.964  0.00  0.00    +0.000 A 
ATOM     21  C   UNL     1       2.848   4.515  20.106  0.00  0.00    +0.000 A 
ENDBRANCH   5  16
TORSDOF 2
ENDMDL
MODEL 7
REMARK VINA RESULT:      -6.1     10.339     12.078
REMARK  Name = 
REMARK  4 active torsions:
REMARK  status: ('A' for Active; 'I' for Inactive)
REMARK    1  A    between atoms: C_1  and  C_2
REMARK    2  A    between atoms: C_5  and  C_6
REMARK    3  A    between atoms: N_10  and  C_11
REMARK    4  A    between atoms: N_19  and  C_20
REMARK                            x       y       z     vdW  Elec       q    Type
REMARK                         _______ _______ _______ _____ _____    ______ ____
ROOT
ATOM      1  C   UNL     1       5.412  14.480  17.825  0.00  0.00    +0.000 C 
ATOM      2  C   UNL     1       6.706  14.805  17.967  0.00  0.00    +0.000 C 
ATOM      3  C   UNL     1       7.737  13.748  17.667  0.00  0.00    +0.000 C 
ATOM      4  O   UNL     1       7.522  12.707  17.066  0.00  0.00    +0.000 OA
ATOM      5  N   UNL     1       8.886  14.202  18.286  0.00  0.00    +0.000 N 
ATOM      6  C   UNL     1       8.731  15.530  18.712  0.00  0.00    +0.000 C 
ATOM      7  S   UNL     1       9.912  16.552  19.327  0.00  0.00    +0.000 S 
ATOM      8  N   UNL     1       7.382  15.891  18.474  0.00  0.00    +0.000 N 
ATOM      9  C   UNL     1       6.831  17.212  18.696  0.00  0.00    +0.000 C 
ENDROOT
BRANCH   1  14
ATOM     10  C   UNL     1       1.517  17.448  17.943  0.00  0.00    +0.000 C 
ATOM     11  C   UNL     1       2.506  16.510  18.513  0.00  0.00    +0.000 A 
ATOM     12  C   UNL     1       2.724  16.026  19.777  0.00  0.00    +0.000 A 
ATOM     13  C   UNL     1       3.842  15.167  19.672  0.00  0.00    +0.000 A 
ATOM     14  C   UNL     1       4.268  15.152  18.346  0.00  0.00    +0.000 A 
ATOM     15  O   UNL     1       3.430  16.000  17.654  0.00  0.00    +0.000 OA
ENDBRANCH   1  14
BRANCH   5  16
ATOM     16  C   UNL     1       9.951  13.330  18.633  0.00  0.00    +0.000 A 
ATOM     17  C   UNL     1      10.910  12.927  17.698  0.00  0.00    +0.000 A 
ATOM     18  C   UNL     1      11.949  12.080  18.088  0.00  0.00    +0.000 A 
ATOM     19  C   UNL     1      12.018  11.593  19.396  0.00  0.00    +0.000 A 
ATOM     20  C   UNL     1      11.038  11.947  20.315  0.00  0.00    +0.000 A 
ATOM     21  C   UNL     1      10.009  12.805  19.934  0.00  0.00    +0.000 A 
ENDBRANCH   5  16
TORSDOF 2
ENDMDL
MODEL 8
REMARK VINA RESULT:      -6.1     10.348     12.063
REMARK  Name = 
REMARK  4 active torsions:
REMARK  status: ('A' for Active; 'I' for Inactive)
REMARK    1  A    between atoms: C_1  and  C_2
REMARK    2  A    between atoms: C_5  and  C_6
REMARK    3  A    between atoms: N_10  and  C_11
REMARK    4  A    between atoms: N_19  and  C_20
REMARK                            x       y       z     vdW  Elec       q    Type
REMARK                         _______ _______ _______ _____ _____    ______ ____
ROOT
ATOM      1  C   UNL     1       5.427  14.491  17.817  0.00  0.00    +0.000 C 
ATOM      2  C   UNL     1       6.720  14.807  17.980  0.00  0.00    +0.000 C 
ATOM      3  C   UNL     1       7.749  13.746  17.691  0.00  0.00    +0.000 C 
ATOM      4  O   UNL     1       7.538  12.708  17.082  0.00  0.00    +0.000 OA
ATOM      5  N   UNL     1       8.892  14.189  18.330  0.00  0.00    +0.000 N 
ATOM      6  C   UNL     1       8.738  15.517  18.760  0.00  0.00    +0.000 C 
ATOM      7  S   UNL     1       9.915  16.528  19.397  0.00  0.00    +0.000 S 
ATOM      8  N   UNL     1       7.395  15.887  18.502  0.00  0.00    +0.000 N 
ATOM      9  C   UNL     1       6.848  17.210  18.722  0.00  0.00    +0.000 C 
ENDROOT
BRANCH   1  14
ATOM     10  C   UNL     1       1.545  17.478  17.887  0.00  0.00    +0.000 C 
ATOM     11  C   UNL     1       2.521  16.534  18.468  0.00  0.00    +0.000 A 
ATOM     12  C   UNL     1       2.720  16.046  19.735  0.00  0.00    +0.000 A 
ATOM     13  C   UNL     1       3.834  15.182  19.643  0.00  0.00    +0.000 A 
ATOM     14  C   UNL     1       4.279  15.167  18.323  0.00  0.00    +0.000 A 
ATOM     15  O   UNL     1       3.455  16.021  17.622  0.00  0.00    +0.000 OA
ENDBRANCH   1  14
BRANCH   5  16
ATOM     16  C   UNL     1       9.945  13.310  18.689  0.00  0.00    +0.000 A 
ATOM     17  C   UNL     1      10.078  12.807  19.988  0.00  0.00    +0.000 A 
ATOM     18  C   UNL     1      11.122  11.932  20.292  0.00  0.00    +0.000 A 
ATOM     19  C   UNL     1      12.066  11.585  19.322  0.00  0.00    +0.000 A 
ATOM     20  C   UNL     1      11.972  12.124  18.045  0.00  0.00    +0.000 A 
ATOM     21  C   UNL     1      10.921  12.984  17.733  0.00  0.00    +0.000 A 
ENDBRANCH   5  16
TORSDOF 2
ENDMDL
MODEL 9
REMARK VINA RESULT:      -6.1     10.365     12.076
REMARK  Name = 
REMARK  4 active torsions:
REMARK  status: ('A' for Active; 'I' for Inactive)
REMARK    1  A    between atoms: C_1  and  C_2
REMARK    2  A    between atoms: C_5  and  C_6
REMARK    3  A    between atoms: N_10  and  C_11
REMARK    4  A    between atoms: N_19  and  C_20
REMARK                            x       y       z     vdW  Elec       q    Type
REMARK                         _______ _______ _______ _____ _____    ______ ____
ROOT
ATOM      1  C   UNL     1       5.397  14.544  17.820  0.00  0.00    +0.000 C 
ATOM      2  C   UNL     1       6.694  14.849  17.971  0.00  0.00    +0.000 C 
ATOM      3  C   UNL     1       7.712  13.782  17.662  0.00  0.00    +0.000 C 
ATOM      4  O   UNL     1       7.486  12.751  17.048  0.00  0.00    +0.000 OA
ATOM      5  N   UNL     1       8.865  14.213  18.291  0.00  0.00    +0.000 N 
ATOM      6  C   UNL     1       8.726  15.538  18.733  0.00  0.00    +0.000 C 
ATOM      7  S   UNL     1       9.919  16.536  19.364  0.00  0.00    +0.000 S 
ATOM      8  N   UNL     1       7.384  15.920  18.493  0.00  0.00    +0.000 N 
ATOM      9  C   UNL     1       6.849  17.246  18.729  0.00  0.00    +0.000 C 
ENDROOT
BRANCH   1  14
ATOM     10  C   UNL     1       1.990  15.923  21.059  0.00  0.00    +0.000 C 
ATOM     11  C   UNL     1       2.640  15.878  19.733  0.00  0.00    +0.000 A 
ATOM     12  C   UNL     1       2.319  16.408  18.509  0.00  0.00    +0.000 A 
ATOM     13  C   UNL     1       3.344  15.993  17.630  0.00  0.00    +0.000 A 
ATOM     14  C   UNL     1       4.260  15.225  18.345  0.00  0.00    +0.000 A 
ATOM     15  O   UNL     1       3.793  15.162  19.640  0.00  0.00    +0.000 OA
ENDBRANCH   1  14
BRANCH   5  16
ATOM     16  C   UNL     1       9.916  13.323  18.632  0.00  0.00    +0.000 A 
ATOM     17  C   UNL     1      10.832  12.863  17.680  0.00  0.00    +0.000 A 
ATOM     18  C   UNL     1      11.860  11.999  18.064  0.00  0.00    +0.000 A 
ATOM     19  C   UNL     1      11.959  11.552  19.384  0.00  0.00    +0.000 A 
ATOM     20  C   UNL     1      11.021  11.963  20.322  0.00  0.00    +0.000 A 
ATOM     21  C   UNL     1      10.004  12.838  19.947  0.00  0.00    +0.000 A 
ENDBRANCH   5  16
TORSDOF 2
ENDMDL
