MODEL 1
REMARK VINA RESULT:      -7.6      0.000      0.000
REMARK  Name = 
REMARK  3 active torsions:
REMARK  status: ('A' for Active; 'I' for Inactive)
REMARK    1  A    between atoms: C_1  and  N_2
REMARK    2  A    between atoms: C_3  and  C_5
REMARK    3  A    between atoms: C_5  and  N_6
REMARK                            x       y       z     vdW  Elec       q    Type
REMARK                         _______ _______ _______ _____ _____    ______ ____
ROOT
ATOM      1  N   UNL     1       5.655   5.126  16.689  0.00  0.00    +0.000 N 
ATOM      2  C   UNL     1       5.561   6.526  16.831  0.00  0.00    +0.000 C 
ATOM      3  O   UNL     1       6.431   7.326  16.505  0.00  0.00    +0.000 OA
ATOM      4  C   UNL     1       4.239   6.706  17.396  0.00  0.00    +0.000 A 
ATOM      5  C   UNL     1       3.571   7.853  17.820  0.00  0.00    +0.000 A 
ATOM      6  C   UNL     1       2.278   7.675  18.347  0.00  0.00    +0.000 A 
ATOM      7  C   UNL     1       1.669   6.403  18.435  0.00  0.00    +0.000 A 
ATOM      8  C   UNL     1       2.361   5.260  17.996  0.00  0.00    +0.000 A 
ATOM      9  C   UNL     1       1.927   3.920  18.003  0.00  0.00    +0.000 A 
ATOM     10  C   UNL     1       2.778   2.896  17.528  0.00  0.00    +0.000 A 
ATOM     11  C   UNL     1       4.077   3.162  17.046  0.00  0.00    +0.000 A 
ATOM     12  C   UNL     1       4.469   4.492  17.060  0.00  0.00    +0.000 A 
ATOM     13  C   UNL     1       3.616   5.477  17.507  0.00  0.00    +0.000 A 
ENDROOT
BRANCH   1  14
ATOM     14  C   UNL     1       6.869   4.466  16.257  0.00  0.00    +0.000 C 
BRANCH  14  17
ATOM     15  C   UNL     1       6.304   3.544  12.610  0.00  0.00    +0.000 C 
ATOM     16  N   UNL     1       6.282   3.588  14.047  0.00  0.00    +0.000 N 
ATOM     17  C   UNL     1       7.027   4.516  14.743  0.00  0.00    +0.000 C 
ATOM     18  O   UNL     1       7.712   5.376  14.190  0.00  0.00    +0.000 OA
ATOM     19  H   UNL     1       5.634   2.991  14.558  0.00  0.00    +0.000 HD
ENDBRANCH  14  17
ENDBRANCH   1  14
TORSDOF 2
ENDMDL
MODEL 2
REMARK VINA RESULT:      -7.4      2.166      3.948
REMARK  Name = 
REMARK  3 active torsions:
REMARK  status: ('A' for Active; 'I' for Inactive)
REMARK    1  A    between atoms: C_1  and  N_2
REMARK    2  A    between atoms: C_3  and  C_5
REMARK    3  A    between atoms: C_5  and  N_6
REMARK                            x       y       z     vdW  Elec       q    Type
REMARK                         _______ _______ _______ _____ _____    ______ ____
ROOT
ATOM      1  N   UNL     1       4.152   5.443  17.441  0.00  0.00    +0.000 N 
ATOM      2  C   UNL     1       4.101   4.115  16.966  0.00  0.00    +0.000 C 
ATOM      3  O   UNL     1       4.824   3.654  16.091  0.00  0.00    +0.000 OA
ATOM      4  C   UNL     1       3.054   3.523  17.774  0.00  0.00    +0.000 A 
ATOM      5  C   UNL     1       2.488   2.250  17.751  0.00  0.00    +0.000 A 
ATOM      6  C   UNL     1       1.458   1.997  18.677  0.00  0.00    +0.000 A 
ATOM      7  C   UNL     1       1.019   2.973  19.600  0.00  0.00    +0.000 A 
ATOM      8  C   UNL     1       1.609   4.250  19.608  0.00  0.00    +0.000 A 
ATOM      9  C   UNL     1       1.312   5.345  20.442  0.00  0.00    +0.000 A 
ATOM     10  C   UNL     1       2.011   6.564  20.290  0.00  0.00    +0.000 A 
ATOM     11  C   UNL     1       3.009   6.740  19.308  0.00  0.00    +0.000 A 
ATOM     12  C   UNL     1       3.270   5.641  18.504  0.00  0.00    +0.000 A 
ATOM     13  C   UNL     1       2.592   4.456  18.684  0.00  0.00    +0.000 A 
ENDROOT
BRANCH   1  14
ATOM     14  C   UNL     1       4.993   6.454  16.839  0.00  0.00    +0.000 C 
BRANCH  14  17
ATOM     15  C   UNL     1       7.949   5.784  19.137  0.00  0.00    +0.000 C 
ATOM     16  N   UNL     1       6.631   5.990  18.599  0.00  0.00    +0.000 N 
ATOM     17  C   UNL     1       6.446   6.308  17.270  0.00  0.00    +0.000 C 
ATOM     18  O   UNL     1       7.373   6.391  16.466  0.00  0.00    +0.000 OA
ATOM     19  H   UNL     1       5.816   5.805  19.181  0.00  0.00    +0.000 HD
ENDBRANCH  14  17
ENDBRANCH   1  14
TORSDOF 2
ENDMDL
MODEL 3
REMARK VINA RESULT:      -7.4      2.059      2.957
REMARK  Name = 
REMARK  3 active torsions:
REMARK  status: ('A' for Active; 'I' for Inactive)
REMARK    1  A    between atoms: C_1  and  N_2
REMARK    2  A    between atoms: C_3  and  C_5
REMARK    3  A    between atoms: C_5  and  N_6
REMARK                            x       y       z     vdW  Elec       q    Type
REMARK                         _______ _______ _______ _____ _____    ______ ____
ROOT
ATOM      1  N   UNL     1       4.198   5.453  17.182  0.00  0.00    +0.000 N 
ATOM      2  C   UNL     1       3.591   6.509  17.892  0.00  0.00    +0.000 C 
ATOM      3  O   UNL     1       3.720   7.699  17.629  0.00  0.00    +0.000 OA
ATOM      4  C   UNL     1       2.824   5.817  18.908  0.00  0.00    +0.000 A 
ATOM      5  C   UNL     1       2.047   6.300  19.959  0.00  0.00    +0.000 A 
ATOM      6  C   UNL     1       1.437   5.342  20.790  0.00  0.00    +0.000 A 
ATOM      7  C   UNL     1       1.585   3.954  20.572  0.00  0.00    +0.000 A 
ATOM      8  C   UNL     1       2.370   3.489  19.502  0.00  0.00    +0.000 A 
ATOM      9  C   UNL     1       2.636   2.158  19.127  0.00  0.00    +0.000 A 
ATOM     10  C   UNL     1       3.468   1.886  18.017  0.00  0.00    +0.000 A 
ATOM     11  C   UNL     1       4.068   2.913  17.257  0.00  0.00    +0.000 A 
ATOM     12  C   UNL     1       3.786   4.209  17.661  0.00  0.00    +0.000 A 
ATOM     13  C   UNL     1       2.955   4.452  18.732  0.00  0.00    +0.000 A 
ENDROOT
BRANCH   1  14
ATOM     14  C   UNL     1       5.162   5.676  16.126  0.00  0.00    +0.000 C 
BRANCH  14  17
ATOM     15  C   UNL     1       7.879   7.868  17.638  0.00  0.00    +0.000 C 
ATOM     16  N   UNL     1       6.657   7.377  17.061  0.00  0.00    +0.000 N 
ATOM     17  C   UNL     1       6.528   6.057  16.683  0.00  0.00    +0.000 C 
ATOM     18  O   UNL     1       7.416   5.222  16.851  0.00  0.00    +0.000 OA
ATOM     19  H   UNL     1       5.841   7.985  17.018  0.00  0.00    +0.000 HD
ENDBRANCH  14  17
ENDBRANCH   1  14
TORSDOF 2
ENDMDL
MODEL 4
REMARK VINA RESULT:      -7.3      1.821      2.529
REMARK  Name = 
REMARK  3 active torsions:
REMARK  status: ('A' for Active; 'I' for Inactive)
REMARK    1  A    between atoms: C_1  and  N_2
REMARK    2  A    between atoms: C_3  and  C_5
REMARK    3  A    between atoms: C_5  and  N_6
REMARK                            x       y       z     vdW  Elec       q    Type
REMARK                         _______ _______ _______ _____ _____    ______ ____
ROOT
ATOM      1  N   UNL     1       4.174   4.587  17.071  0.00  0.00    +0.000 N 
ATOM      2  C   UNL     1       3.941   5.919  17.473  0.00  0.00    +0.000 C 
ATOM      3  O   UNL     1       4.405   6.911  16.922  0.00  0.00    +0.000 OA
ATOM      4  C   UNL     1       3.050   5.764  18.605  0.00  0.00    +0.000 A 
ATOM      5  C   UNL     1       2.500   6.703  19.474  0.00  0.00    +0.000 A 
ATOM      6  C   UNL     1       1.671   6.210  20.501  0.00  0.00    +0.000 A 
ATOM      7  C   UNL     1       1.391   4.833  20.644  0.00  0.00    +0.000 A 
ATOM      8  C   UNL     1       1.953   3.903  19.751  0.00  0.00    +0.000 A 
ATOM      9  C   UNL     1       1.794   2.504  19.732  0.00  0.00    +0.000 A 
ATOM     10  C   UNL     1       2.457   1.728  18.754  0.00  0.00    +0.000 A 
ATOM     11  C   UNL     1       3.299   2.305  17.780  0.00  0.00    +0.000 A 
ATOM     12  C   UNL     1       3.433   3.684  17.835  0.00  0.00    +0.000 A 
ATOM     13  C   UNL     1       2.761   4.423  18.783  0.00  0.00    +0.000 A 
ENDROOT
BRANCH   1  14
ATOM     14  C   UNL     1       5.112   4.241  16.025  0.00  0.00    +0.000 C 
BRANCH  14  17
ATOM     15  C   UNL     1       8.142   4.539  18.306  0.00  0.00    +0.000 C 
ATOM     16  N   UNL     1       6.818   4.341  17.779  0.00  0.00    +0.000 N 
ATOM     17  C   UNL     1       6.548   4.529  16.440  0.00  0.00    +0.000 C 
ATOM     18  O   UNL     1       7.414   4.830  15.619  0.00  0.00    +0.000 OA
ATOM     19  H   UNL     1       6.089   3.964  18.382  0.00  0.00    +0.000 HD
ENDBRANCH  14  17
ENDBRANCH   1  14
TORSDOF 2
ENDMDL
MODEL 5
REMARK VINA RESULT:      -7.3      1.945      3.821
REMARK  Name = 
REMARK  3 active torsions:
REMARK  status: ('A' for Active; 'I' for Inactive)
REMARK    1  A    between atoms: C_1  and  N_2
REMARK    2  A    between atoms: C_3  and  C_5
REMARK    3  A    between atoms: C_5  and  N_6
REMARK                            x       y       z     vdW  Elec       q    Type
REMARK                         _______ _______ _______ _____ _____    ______ ____
ROOT
ATOM      1  N   UNL     1       4.532   5.312  16.844  0.00  0.00    +0.000 N 
ATOM      2  C   UNL     1       4.662   3.918  16.673  0.00  0.00    +0.000 C 
ATOM      3  O   UNL     1       5.400   3.375  15.859  0.00  0.00    +0.000 OA
ATOM      4  C   UNL     1       3.765   3.384  17.679  0.00  0.00    +0.000 A 
ATOM      5  C   UNL     1       3.403   2.074  17.982  0.00  0.00    +0.000 A 
ATOM      6  C   UNL     1       2.476   1.897  19.027  0.00  0.00    +0.000 A 
ATOM      7  C   UNL     1       1.942   2.986  19.751  0.00  0.00    +0.000 A 
ATOM      8  C   UNL     1       2.327   4.300  19.430  0.00  0.00    +0.000 A 
ATOM      9  C   UNL     1       1.908   5.504  20.030  0.00  0.00    +0.000 A 
ATOM     10  C   UNL     1       2.401   6.742  19.558  0.00  0.00    +0.000 A 
ATOM     11  C   UNL     1       3.305   6.827  18.478  0.00  0.00    +0.000 A 
ATOM     12  C   UNL     1       3.689   5.622  17.911  0.00  0.00    +0.000 A 
ATOM     13  C   UNL     1       3.214   4.426  18.402  0.00  0.00    +0.000 A 
ENDROOT
BRANCH   1  14
ATOM     14  C   UNL     1       5.172   6.267  15.965  0.00  0.00    +0.000 C 
BRANCH  14  17
ATOM     15  C   UNL     1       7.963   8.090  17.798  0.00  0.00    +0.000 C 
ATOM     16  N   UNL     1       6.693   7.688  17.257  0.00  0.00    +0.000 N 
ATOM     17  C   UNL     1       6.587   6.594  16.424  0.00  0.00    +0.000 C 
ATOM     18  O   UNL     1       7.546   5.880  16.132  0.00  0.00    +0.000 OA
ATOM     19  H   UNL     1       5.843   8.157  17.567  0.00  0.00    +0.000 HD
ENDBRANCH  14  17
ENDBRANCH   1  14
TORSDOF 2
ENDMDL
MODEL 6
REMARK VINA RESULT:      -7.1      2.169      3.744
REMARK  Name = 
REMARK  3 active torsions:
REMARK  status: ('A' for Active; 'I' for Inactive)
REMARK    1  A    between atoms: C_1  and  N_2
REMARK    2  A    between atoms: C_3  and  C_5
REMARK    3  A    between atoms: C_5  and  N_6
REMARK                            x       y       z     vdW  Elec       q    Type
REMARK                         _______ _______ _______ _____ _____    ______ ____
ROOT
ATOM      1  N   UNL     1       4.163   3.963  17.285  0.00  0.00    +0.000 N 
ATOM      2  C   UNL     1       3.681   2.815  17.949  0.00  0.00    +0.000 C 
ATOM      3  O   UNL     1       4.024   1.665  17.703  0.00  0.00    +0.000 OA
ATOM      4  C   UNL     1       2.769   3.370  18.930  0.00  0.00    +0.000 A 
ATOM      5  C   UNL     1       1.934   2.751  19.857  0.00  0.00    +0.000 A 
ATOM      6  C   UNL     1       1.149   3.595  20.666  0.00  0.00    +0.000 A 
ATOM      7  C   UNL     1       1.206   5.002  20.562  0.00  0.00    +0.000 A 
ATOM      8  C   UNL     1       2.061   5.605  19.622  0.00  0.00    +0.000 A 
ATOM      9  C   UNL     1       2.255   6.977  19.371  0.00  0.00    +0.000 A 
ATOM     10  C   UNL     1       3.158   7.394  18.366  0.00  0.00    +0.000 A 
ATOM     11  C   UNL     1       3.881   6.474  17.577  0.00  0.00    +0.000 A 
ATOM     12  C   UNL     1       3.659   5.134  17.851  0.00  0.00    +0.000 A 
ATOM     13  C   UNL     1       2.791   4.750  18.850  0.00  0.00    +0.000 A 
ENDROOT
BRANCH   1  14
ATOM     14  C   UNL     1       5.033   3.887  16.131  0.00  0.00    +0.000 C 
BRANCH  14  17
ATOM     15  C   UNL     1       8.104   4.622  18.252  0.00  0.00    +0.000 C 
ATOM     16  N   UNL     1       6.788   4.264  17.798  0.00  0.00    +0.000 N 
ATOM     17  C   UNL     1       6.449   4.339  16.463  0.00  0.00    +0.000 C 
ATOM     18  O   UNL     1       7.248   4.669  15.588  0.00  0.00    +0.000 OA
ATOM     19  H   UNL     1       6.123   3.856  18.454  0.00  0.00    +0.000 HD
ENDBRANCH  14  17
ENDBRANCH   1  14
TORSDOF 2
ENDMDL
MODEL 7
REMARK VINA RESULT:      -7.0      2.156      4.004
REMARK  Name = 
REMARK  3 active torsions:
REMARK  status: ('A' for Active; 'I' for Inactive)
REMARK    1  A    between atoms: C_1  and  N_2
REMARK    2  A    between atoms: C_3  and  C_5
REMARK    3  A    between atoms: C_5  and  N_6
REMARK                            x       y       z     vdW  Elec       q    Type
REMARK                         _______ _______ _______ _____ _____    ______ ____
ROOT
ATOM      1  N   UNL     1       4.079   5.007  17.455  0.00  0.00    +0.000 N 
ATOM      2  C   UNL     1       3.986   3.607  17.597  0.00  0.00    +0.000 C 
ATOM      3  O   UNL     1       4.618   2.791  16.937  0.00  0.00    +0.000 OA
ATOM      4  C   UNL     1       3.031   3.454  18.677  0.00  0.00    +0.000 A 
ATOM      5  C   UNL     1       2.473   2.315  19.252  0.00  0.00    +0.000 A 
ATOM      6  C   UNL     1       1.545   2.519  20.292  0.00  0.00    +0.000 A 
ATOM      7  C   UNL     1       1.200   3.810  20.749  0.00  0.00    +0.000 A 
ATOM      8  C   UNL     1       1.780   4.945  20.156  0.00  0.00    +0.000 A 
ATOM      9  C   UNL     1       1.564   6.301  20.469  0.00  0.00    +0.000 A 
ATOM     10  C   UNL     1       2.237   7.313  19.747  0.00  0.00    +0.000 A 
ATOM     11  C   UNL     1       3.128   7.017  18.693  0.00  0.00    +0.000 A 
ATOM     12  C   UNL     1       3.310   5.672  18.412  0.00  0.00    +0.000 A 
ATOM     13  C   UNL     1       2.661   4.702  19.143  0.00  0.00    +0.000 A 
ENDROOT
BRANCH   1  14
ATOM     14  C   UNL     1       4.847   5.635  16.402  0.00  0.00    +0.000 C 
BRANCH  14  17
ATOM     15  C   UNL     1       7.727   7.818  17.589  0.00  0.00    +0.000 C 
ATOM     16  N   UNL     1       6.460   7.338  17.108  0.00  0.00    +0.000 N 
ATOM     17  C   UNL     1       6.251   5.995  16.869  0.00  0.00    +0.000 C 
ATOM     18  O   UNL     1       7.103   5.136  17.088  0.00  0.00    +0.000 OA
ATOM     19  H   UNL     1       5.674   7.981  17.033  0.00  0.00    +0.000 HD
ENDBRANCH  14  17
ENDBRANCH   1  14
TORSDOF 2
ENDMDL
MODEL 8
REMARK VINA RESULT:      -6.9      1.443      1.702
REMARK  Name = 
REMARK  3 active torsions:
REMARK  status: ('A' for Active; 'I' for Inactive)
REMARK    1  A    between atoms: C_1  and  N_2
REMARK    2  A    between atoms: C_3  and  C_5
REMARK    3  A    between atoms: C_5  and  N_6
REMARK                            x       y       z     vdW  Elec       q    Type
REMARK                         _______ _______ _______ _____ _____    ______ ____
ROOT
ATOM      1  N   UNL     1       5.078   4.695  17.504  0.00  0.00    +0.000 N 
ATOM      2  C   UNL     1       4.721   5.968  17.994  0.00  0.00    +0.000 C 
ATOM      3  O   UNL     1       5.302   7.013  17.725  0.00  0.00    +0.000 OA
ATOM      4  C   UNL     1       3.556   5.685  18.808  0.00  0.00    +0.000 A 
ATOM      5  C   UNL     1       2.772   6.516  19.607  0.00  0.00    +0.000 A 
ATOM      6  C   UNL     1       1.702   5.910  20.293  0.00  0.00    +0.000 A 
ATOM      7  C   UNL     1       1.417   4.532  20.175  0.00  0.00    +0.000 A 
ATOM      8  C   UNL     1       2.219   3.714  19.359  0.00  0.00    +0.000 A 
ATOM      9  C   UNL     1       2.096   2.332  19.116  0.00  0.00    +0.000 A 
ATOM     10  C   UNL     1       3.015   1.676  18.266  0.00  0.00    +0.000 A 
ATOM     11  C   UNL     1       4.082   2.358  17.644  0.00  0.00    +0.000 A 
ATOM     12  C   UNL     1       4.172   3.715  17.911  0.00  0.00    +0.000 A 
ATOM     13  C   UNL     1       3.253   4.339  18.725  0.00  0.00    +0.000 A 
ENDROOT
BRANCH   1  14
ATOM     14  C   UNL     1       6.274   4.469  16.720  0.00  0.00    +0.000 C 
BRANCH  14  17
ATOM     15  C   UNL     1       5.987   3.618  13.023  0.00  0.00    +0.000 C 
ATOM     16  N   UNL     1       6.225   3.573  14.441  0.00  0.00    +0.000 N 
ATOM     17  C   UNL     1       6.020   4.683  15.233  0.00  0.00    +0.000 C 
ATOM     18  O   UNL     1       5.589   5.748  14.795  0.00  0.00    +0.000 OA
ATOM     19  H   UNL     1       6.454   2.685  14.884  0.00  0.00    +0.000 HD
ENDBRANCH  14  17
ENDBRANCH   1  14
TORSDOF 2
ENDMDL
MODEL 9
REMARK VINA RESULT:      -6.8      1.482      1.493
REMARK  Name = 
REMARK  3 active torsions:
REMARK  status: ('A' for Active; 'I' for Inactive)
REMARK    1  A    between atoms: C_1  and  N_2
REMARK    2  A    between atoms: C_3  and  C_5
REMARK    3  A    between atoms: C_5  and  N_6
REMARK                            x       y       z     vdW  Elec       q    Type
REMARK                         _______ _______ _______ _____ _____    ______ ____
ROOT
ATOM      1  N   UNL     1       5.589   5.134  17.044  0.00  0.00    +0.000 N 
ATOM      2  C   UNL     1       5.153   6.402  16.605  0.00  0.00    +0.000 C 
ATOM      3  O   UNL     1       5.620   7.014  15.652  0.00  0.00    +0.000 OA
ATOM      4  C   UNL     1       4.073   6.707  17.522  0.00  0.00    +0.000 A 
ATOM      5  C   UNL     1       3.272   7.840  17.650  0.00  0.00    +0.000 A 
ATOM      6  C   UNL     1       2.306   7.821  18.675  0.00  0.00    +0.000 A 
ATOM      7  C   UNL     1       2.137   6.709  19.529  0.00  0.00    +0.000 A 
ATOM      8  C   UNL     1       2.954   5.574  19.377  0.00  0.00    +0.000 A 
ATOM      9  C   UNL     1       2.939   4.380  20.124  0.00  0.00    +0.000 A 
ATOM     10  C   UNL     1       3.855   3.346  19.828  0.00  0.00    +0.000 A 
ATOM     11  C   UNL     1       4.815   3.464  18.800  0.00  0.00    +0.000 A 
ATOM     12  C   UNL     1       4.802   4.655  18.091  0.00  0.00    +0.000 A 
ATOM     13  C   UNL     1       3.886   5.642  18.383  0.00  0.00    +0.000 A 
ENDROOT
BRANCH   1  14
ATOM     14  C   UNL     1       6.746   4.471  16.483  0.00  0.00    +0.000 C 
BRANCH  14  17
ATOM     15  C   UNL     1       7.757   5.262  12.902  0.00  0.00    +0.000 C 
ATOM     16  N   UNL     1       7.659   5.217  14.336  0.00  0.00    +0.000 N 
ATOM     17  C   UNL     1       6.699   4.449  14.961  0.00  0.00    +0.000 C 
ATOM     18  O   UNL     1       5.910   3.734  14.346  0.00  0.00    +0.000 OA
ATOM     19  H   UNL     1       8.367   5.681  14.903  0.00  0.00    +0.000 HD
ENDBRANCH  14  17
ENDBRANCH   1  14
TORSDOF 2
ENDMDL
