MODEL 1
REMARK VINA RESULT:      -8.2      0.000      0.000
REMARK  Name = 
REMARK  6 active torsions:
REMARK  status: ('A' for Active; 'I' for Inactive)
REMARK    1  A    between atoms: C_2  and  O_3
REMARK    2  A    between atoms: C_2  and  C_4
REMARK    3  A    between atoms: C_7  and  C_8
REMARK    4  A    between atoms: C_9  and  C_10
REMARK    5  A    between atoms: C_11  and  C_12
REMARK    6  A    between atoms: C_24  and  N_25
REMARK                            x       y       z     vdW  Elec       q    Type
REMARK                         _______ _______ _______ _____ _____    ______ ____
ROOT
ATOM      1  C   UNL     1      -0.021  12.792  18.644  0.00  0.00    +0.000 A 
ATOM      2  C   UNL     1       1.195  12.114  18.749  0.00  0.00    +0.000 A 
ATOM      3  N   UNL     1       2.261  12.983  18.762  0.00  0.00    +0.000 NA
ATOM      4  C   UNL     1       1.739  14.199  18.757  0.00  0.00    +0.000 A 
ATOM      5  C   UNL     1       2.363  15.500  18.833  0.00  0.00    +0.000 A 
ATOM      6  C   UNL     1       1.534  16.553  18.981  0.00  0.00    +0.000 A 
ATOM      7  C   UNL     1       0.082  16.331  18.993  0.00  0.00    +0.000 A 
ATOM      8  N   UNL     1      -0.517  15.193  18.863  0.00  0.00    +0.000 NA
ATOM      9  N   UNL     1       0.354  14.135  18.745  0.00  0.00    +0.000 N 
ENDROOT
BRANCH   1  13
ATOM     10  C   UNL     1      -4.121  11.502  18.279  0.00  0.00    +0.000 A 
ATOM     11  C   UNL     1      -3.203  11.282  17.249  0.00  0.00    +0.000 A 
ATOM     12  C   UNL     1      -1.873  11.697  17.375  0.00  0.00    +0.000 A 
ATOM     13  C   UNL     1      -1.427  12.349  18.532  0.00  0.00    +0.000 A 
ATOM     14  C   UNL     1      -2.349  12.539  19.571  0.00  0.00    +0.000 A 
ATOM     15  C   UNL     1      -3.685  12.107  19.466  0.00  0.00    +0.000 A 
BRANCH  10  17
ATOM     16  O   UNL     1      -6.051  10.206  18.784  0.00  0.00    +0.000 OA
ATOM     17  C   UNL     1      -5.523  11.058  18.092  0.00  0.00    +0.000 C 
BRANCH  17  18
ATOM     18  O   UNL     1      -6.145  11.645  17.046  0.00  0.00    +0.000 OA
ATOM     19  H   UNL     1      -5.570  11.833  16.281  0.00  0.00    +0.000 HD
ENDBRANCH  17  18
ENDBRANCH  10  17
ENDBRANCH   1  13
BRANCH   5  20
ATOM     20  N   UNL     1       3.749  15.674  18.774  0.00  0.00    +0.000 N 
ATOM     21  C   UNL     1       4.555  15.409  17.561  0.00  0.00    +0.000 C 
ATOM     22  C   UNL     1       5.728  14.474  17.889  0.00  0.00    +0.000 C 
ATOM     23  O   UNL     1       6.534  15.000  18.960  0.00  0.00    +0.000 OA
ATOM     24  C   UNL     1       5.734  15.166  20.141  0.00  0.00    +0.000 C 
ATOM     25  C   UNL     1       4.579  16.149  19.899  0.00  0.00    +0.000 C 
ENDBRANCH   5  20
BRANCH   2  26
ATOM     26  C   UNL     1       1.492  10.698  18.792  0.00  0.00    +0.000 C 
ATOM     27  C   UNL     1       1.663   9.512  18.891  0.00  0.00    +0.000 C 
BRANCH  27  28
ATOM     28  C   UNL     1       1.853   8.124  19.258  0.00  0.00    +0.000 A 
ATOM     29  C   UNL     1       1.480   7.745  20.536  0.00  0.00    +0.000 A 
ATOM     30  C   UNL     1       1.663   6.428  20.924  0.00  0.00    +0.000 A 
ATOM     31  C   UNL     1       2.045   5.485  19.978  0.00  0.00    +0.000 A 
ATOM     32  C   UNL     1       1.996   4.121  20.314  0.00  0.00    +0.000 A 
ATOM     33  C   UNL     1       2.176   3.152  19.337  0.00  0.00    +0.000 A 
ATOM     34  C   UNL     1       2.502   3.552  18.046  0.00  0.00    +0.000 A 
ATOM     35  C   UNL     1       2.633   4.919  17.738  0.00  0.00    +0.000 A 
ATOM     36  C   UNL     1       2.363   5.926  18.673  0.00  0.00    +0.000 A 
ATOM     37  N   UNL     1       2.327   7.250  18.333  0.00  0.00    +0.000 NA
ENDBRANCH  27  28
ENDBRANCH   2  26
TORSDOF 6
ENDMDL
MODEL 2
REMARK VINA RESULT:      -8.2      1.066      1.424
REMARK  Name = 
REMARK  6 active torsions:
REMARK  status: ('A' for Active; 'I' for Inactive)
REMARK    1  A    between atoms: C_2  and  O_3
REMARK    2  A    between atoms: C_2  and  C_4
REMARK    3  A    between atoms: C_7  and  C_8
REMARK    4  A    between atoms: C_9  and  C_10
REMARK    5  A    between atoms: C_11  and  C_12
REMARK    6  A    between atoms: C_24  and  N_25
REMARK                            x       y       z     vdW  Elec       q    Type
REMARK                         _______ _______ _______ _____ _____    ______ ____
ROOT
ATOM      1  C   UNL     1      -0.033  12.747  18.653  0.00  0.00    +0.000 A 
ATOM      2  C   UNL     1       1.187  12.070  18.640  0.00  0.00    +0.000 A 
ATOM      3  N   UNL     1       2.251  12.938  18.712  0.00  0.00    +0.000 NA
ATOM      4  C   UNL     1       1.726  14.144  18.859  0.00  0.00    +0.000 A 
ATOM      5  C   UNL     1       2.349  15.433  19.056  0.00  0.00    +0.000 A 
ATOM      6  C   UNL     1       1.524  16.458  19.347  0.00  0.00    +0.000 A 
ATOM      7  C   UNL     1       0.073  16.228  19.385  0.00  0.00    +0.000 A 
ATOM      8  N   UNL     1      -0.527  15.107  19.151  0.00  0.00    +0.000 NA
ATOM      9  N   UNL     1       0.341  14.073  18.888  0.00  0.00    +0.000 N 
ENDROOT
BRANCH   1  13
ATOM     10  C   UNL     1      -4.139  11.476  18.289  0.00  0.00    +0.000 A 
ATOM     11  C   UNL     1      -3.231  11.281  17.246  0.00  0.00    +0.000 A 
ATOM     12  C   UNL     1      -1.898  11.690  17.371  0.00  0.00    +0.000 A 
ATOM     13  C   UNL     1      -1.441  12.311  18.542  0.00  0.00    +0.000 A 
ATOM     14  C   UNL     1      -2.353  12.475  19.593  0.00  0.00    +0.000 A 
ATOM     15  C   UNL     1      -3.691  12.048  19.488  0.00  0.00    +0.000 A 
BRANCH  10  17
ATOM     16  O   UNL     1      -6.063  10.160  18.765  0.00  0.00    +0.000 OA
ATOM     17  C   UNL     1      -5.544  11.040  18.103  0.00  0.00    +0.000 C 
BRANCH  17  18
ATOM     18  O   UNL     1      -6.179  11.671  17.091  0.00  0.00    +0.000 OA
ATOM     19  H   UNL     1      -7.116  11.426  16.980  0.00  0.00    +0.000 HD
ENDBRANCH  17  18
ENDBRANCH  10  17
ENDBRANCH   1  13
BRANCH   5  20
ATOM     20  N   UNL     1       3.732  15.621  18.968  0.00  0.00    +0.000 N 
ATOM     21  C   UNL     1       4.495  15.502  17.706  0.00  0.00    +0.000 C 
ATOM     22  C   UNL     1       5.680  14.543  17.883  0.00  0.00    +0.000 C 
ATOM     23  O   UNL     1       6.524  14.948  18.979  0.00  0.00    +0.000 OA
ATOM     24  C   UNL     1       5.765  14.974  20.198  0.00  0.00    +0.000 C 
ATOM     25  C   UNL     1       4.600  15.970  20.111  0.00  0.00    +0.000 C 
ENDBRANCH   5  20
BRANCH   2  26
ATOM     26  C   UNL     1       1.489  10.659  18.518  0.00  0.00    +0.000 C 
ATOM     27  C   UNL     1       1.823   9.505  18.466  0.00  0.00    +0.000 C 
BRANCH  27  28
ATOM     28  C   UNL     1       2.448   8.206  18.333  0.00  0.00    +0.000 A 
ATOM     29  C   UNL     1       1.893   7.155  19.042  0.00  0.00    +0.000 A 
ATOM     30  C   UNL     1       2.476   5.902  18.948  0.00  0.00    +0.000 A 
ATOM     31  C   UNL     1       3.485   5.687  18.017  0.00  0.00    +0.000 A 
ATOM     32  C   UNL     1       3.906   4.372  17.756  0.00  0.00    +0.000 A 
ATOM     33  C   UNL     1       4.762   4.108  16.696  0.00  0.00    +0.000 A 
ATOM     34  C   UNL     1       5.272   5.172  15.963  0.00  0.00    +0.000 A 
ATOM     35  C   UNL     1       4.912   6.494  16.286  0.00  0.00    +0.000 A 
ATOM     36  C   UNL     1       3.976   6.792  17.284  0.00  0.00    +0.000 A 
ATOM     37  N   UNL     1       3.501   8.058  17.487  0.00  0.00    +0.000 NA
ENDBRANCH  27  28
ENDBRANCH   2  26
TORSDOF 6
ENDMDL
MODEL 3
REMARK VINA RESULT:      -8.1      0.769      1.392
REMARK  Name = 
REMARK  6 active torsions:
REMARK  status: ('A' for Active; 'I' for Inactive)
REMARK    1  A    between atoms: C_2  and  O_3
REMARK    2  A    between atoms: C_2  and  C_4
REMARK    3  A    between atoms: C_7  and  C_8
REMARK    4  A    between atoms: C_9  and  C_10
REMARK    5  A    between atoms: C_11  and  C_12
REMARK    6  A    between atoms: C_24  and  N_25
REMARK                            x       y       z     vdW  Elec       q    Type
REMARK                         _______ _______ _______ _____ _____    ______ ____
ROOT
ATOM      1  C   UNL     1      -0.090  12.403  18.867  0.00  0.00    +0.000 A 
ATOM      2  C   UNL     1       1.030  11.620  19.147  0.00  0.00    +0.000 A 
ATOM      3  N   UNL     1       2.168  12.384  19.262  0.00  0.00    +0.000 NA
ATOM      4  C   UNL     1       1.774  13.642  19.147  0.00  0.00    +0.000 A 
ATOM      5  C   UNL     1       2.510  14.881  19.253  0.00  0.00    +0.000 A 
ATOM      6  C   UNL     1       1.779  16.013  19.259  0.00  0.00    +0.000 A 
ATOM      7  C   UNL     1       0.321  15.930  19.097  0.00  0.00    +0.000 A 
ATOM      8  N   UNL     1      -0.368  14.849  18.934  0.00  0.00    +0.000 NA
ATOM      9  N   UNL     1       0.401  13.708  18.965  0.00  0.00    +0.000 N 
ENDROOT
BRANCH   1  13
ATOM     10  C   UNL     1      -4.238  11.488  18.116  0.00  0.00    +0.000 A 
ATOM     11  C   UNL     1      -3.838  12.076  19.318  0.00  0.00    +0.000 A 
ATOM     12  C   UNL     1      -2.491  12.376  19.554  0.00  0.00    +0.000 A 
ATOM     13  C   UNL     1      -1.509  12.090  18.596  0.00  0.00    +0.000 A 
ATOM     14  C   UNL     1      -1.926  11.527  17.382  0.00  0.00    +0.000 A 
ATOM     15  C   UNL     1      -3.280  11.240  17.123  0.00  0.00    +0.000 A 
BRANCH  10  17
ATOM     16  O   UNL     1      -6.259  10.309  18.546  0.00  0.00    +0.000 OA
ATOM     17  C   UNL     1      -5.674  11.174  17.919  0.00  0.00    +0.000 C 
BRANCH  17  18
ATOM     18  O   UNL     1      -6.259  11.896  16.938  0.00  0.00    +0.000 OA
ATOM     19  H   UNL     1      -5.641  12.399  16.376  0.00  0.00    +0.000 HD
ENDBRANCH  17  18
ENDBRANCH  10  17
ENDBRANCH   1  13
BRANCH   5  20
ATOM     20  N   UNL     1       3.904  14.920  19.362  0.00  0.00    +0.000 N 
ATOM     21  C   UNL     1       4.624  14.930  20.655  0.00  0.00    +0.000 C 
ATOM     22  C   UNL     1       5.622  16.095  20.705  0.00  0.00    +0.000 C 
ATOM     23  O   UNL     1       6.533  16.053  19.590  0.00  0.00    +0.000 OA
ATOM     24  C   UNL     1       5.801  16.127  18.357  0.00  0.00    +0.000 C 
ATOM     25  C   UNL     1       4.830  14.947  18.212  0.00  0.00    +0.000 C 
ENDBRANCH   5  20
BRANCH   2  26
ATOM     26  C   UNL     1       1.178  10.186  19.279  0.00  0.00    +0.000 C 
ATOM     27  C   UNL     1       1.391   9.011  19.425  0.00  0.00    +0.000 C 
BRANCH  27  28
ATOM     28  C   UNL     1       1.866   7.645  19.485  0.00  0.00    +0.000 A 
ATOM     29  C   UNL     1       1.430   6.864  20.542  0.00  0.00    +0.000 A 
ATOM     30  C   UNL     1       1.878   5.557  20.637  0.00  0.00    +0.000 A 
ATOM     31  C   UNL     1       2.604   5.006  19.587  0.00  0.00    +0.000 A 
ATOM     32  C   UNL     1       2.848   3.622  19.578  0.00  0.00    +0.000 A 
ATOM     33  C   UNL     1       3.390   3.014  18.454  0.00  0.00    +0.000 A 
ATOM     34  C   UNL     1       3.777   3.809  17.382  0.00  0.00    +0.000 A 
ATOM     35  C   UNL     1       3.607   5.204  17.434  0.00  0.00    +0.000 A 
ATOM     36  C   UNL     1       2.975   5.841  18.509  0.00  0.00    +0.000 A 
ATOM     37  N   UNL     1       2.660   7.172  18.489  0.00  0.00    +0.000 NA
ENDBRANCH  27  28
ENDBRANCH   2  26
TORSDOF 6
ENDMDL
MODEL 4
REMARK VINA RESULT:      -8.1      0.756      1.292
REMARK  Name = 
REMARK  6 active torsions:
REMARK  status: ('A' for Active; 'I' for Inactive)
REMARK    1  A    between atoms: C_2  and  O_3
REMARK    2  A    between atoms: C_2  and  C_4
REMARK    3  A    between atoms: C_7  and  C_8
REMARK    4  A    between atoms: C_9  and  C_10
REMARK    5  A    between atoms: C_11  and  C_12
REMARK    6  A    between atoms: C_24  and  N_25
REMARK                            x       y       z     vdW  Elec       q    Type
REMARK                         _______ _______ _______ _____ _____    ______ ____
ROOT
ATOM      1  C   UNL     1       0.074  12.778  18.645  0.00  0.00    +0.000 A 
ATOM      2  C   UNL     1       1.294  12.104  18.586  0.00  0.00    +0.000 A 
ATOM      3  N   UNL     1       2.358  12.969  18.685  0.00  0.00    +0.000 NA
ATOM      4  C   UNL     1       1.834  14.166  18.893  0.00  0.00    +0.000 A 
ATOM      5  C   UNL     1       2.459  15.445  19.142  0.00  0.00    +0.000 A 
ATOM      6  C   UNL     1       1.637  16.454  19.492  0.00  0.00    +0.000 A 
ATOM      7  C   UNL     1       0.186  16.221  19.536  0.00  0.00    +0.000 A 
ATOM      8  N   UNL     1      -0.416  15.112  19.258  0.00  0.00    +0.000 NA
ATOM      9  N   UNL     1       0.450  14.092  18.936  0.00  0.00    +0.000 N 
ENDROOT
BRANCH   1  13
ATOM     10  C   UNL     1      -4.035  11.520  18.274  0.00  0.00    +0.000 A 
ATOM     11  C   UNL     1      -3.134  11.350  17.220  0.00  0.00    +0.000 A 
ATOM     12  C   UNL     1      -1.800  11.755  17.347  0.00  0.00    +0.000 A 
ATOM     13  C   UNL     1      -1.335  12.345  18.531  0.00  0.00    +0.000 A 
ATOM     14  C   UNL     1      -2.241  12.483  19.591  0.00  0.00    +0.000 A 
ATOM     15  C   UNL     1      -3.580  12.060  19.483  0.00  0.00    +0.000 A 
BRANCH  10  17
ATOM     16  O   UNL     1      -6.014  10.328  18.843  0.00  0.00    +0.000 OA
ATOM     17  C   UNL     1      -5.442  11.089  18.084  0.00  0.00    +0.000 C 
BRANCH  17  18
ATOM     18  O   UNL     1      -6.012  11.575  16.960  0.00  0.00    +0.000 OA
ATOM     19  H   UNL     1      -6.252  12.519  16.997  0.00  0.00    +0.000 HD
ENDBRANCH  17  18
ENDBRANCH  10  17
ENDBRANCH   1  13
BRANCH   5  20
ATOM     20  N   UNL     1       3.840  15.639  19.047  0.00  0.00    +0.000 N 
ATOM     21  C   UNL     1       4.594  15.538  17.777  0.00  0.00    +0.000 C 
ATOM     22  C   UNL     1       5.784  14.580  17.933  0.00  0.00    +0.000 C 
ATOM     23  O   UNL     1       6.634  14.975  19.027  0.00  0.00    +0.000 OA
ATOM     24  C   UNL     1       5.885  14.983  20.253  0.00  0.00    +0.000 C 
ATOM     25  C   UNL     1       4.716  15.976  20.186  0.00  0.00    +0.000 C 
ENDBRANCH   5  20
BRANCH   2  26
ATOM     26  C   UNL     1       1.596  10.701  18.394  0.00  0.00    +0.000 C 
ATOM     27  C   UNL     1       1.829   9.522  18.331  0.00  0.00    +0.000 C 
BRANCH  27  28
ATOM     28  C   UNL     1       2.257   8.145  18.455  0.00  0.00    +0.000 A 
ATOM     29  C   UNL     1       3.281   7.718  17.628  0.00  0.00    +0.000 A 
ATOM     30  C   UNL     1       3.704   6.401  17.712  0.00  0.00    +0.000 A 
ATOM     31  C   UNL     1       3.221   5.593  18.734  0.00  0.00    +0.000 A 
ATOM     32  C   UNL     1       3.826   4.345  18.962  0.00  0.00    +0.000 A 
ATOM     33  C   UNL     1       3.504   3.607  20.092  0.00  0.00    +0.000 A 
ATOM     34  C   UNL     1       2.507   4.075  20.939  0.00  0.00    +0.000 A 
ATOM     35  C   UNL     1       1.847   5.285  20.657  0.00  0.00    +0.000 A 
ATOM     36  C   UNL     1       2.212   6.104  19.581  0.00  0.00    +0.000 A 
ATOM     37  N   UNL     1       1.688   7.354  19.402  0.00  0.00    +0.000 NA
ENDBRANCH  27  28
ENDBRANCH   2  26
TORSDOF 6
ENDMDL
MODEL 5
REMARK VINA RESULT:      -8.0      4.205      5.160
REMARK  Name = 
REMARK  6 active torsions:
REMARK  status: ('A' for Active; 'I' for Inactive)
REMARK    1  A    between atoms: C_2  and  O_3
REMARK    2  A    between atoms: C_2  and  C_4
REMARK    3  A    between atoms: C_7  and  C_8
REMARK    4  A    between atoms: C_9  and  C_10
REMARK    5  A    between atoms: C_11  and  C_12
REMARK    6  A    between atoms: C_24  and  N_25
REMARK                            x       y       z     vdW  Elec       q    Type
REMARK                         _______ _______ _______ _____ _____    ______ ____
ROOT
ATOM      1  C   UNL     1      -2.312  11.350  18.867  0.00  0.00    +0.000 A 
ATOM      2  C   UNL     1      -1.241  11.036  19.704  0.00  0.00    +0.000 A 
ATOM      3  N   UNL     1      -1.324  11.699  20.906  0.00  0.00    +0.000 NA
ATOM      4  C   UNL     1      -2.472  12.357  20.879  0.00  0.00    +0.000 A 
ATOM      5  C   UNL     1      -3.126  13.166  21.881  0.00  0.00    +0.000 A 
ATOM      6  C   UNL     1      -4.385  13.560  21.604  0.00  0.00    +0.000 A 
ATOM      7  C   UNL     1      -4.982  13.209  20.308  0.00  0.00    +0.000 A 
ATOM      8  N   UNL     1      -4.408  12.544  19.360  0.00  0.00    +0.000 NA
ATOM      9  N   UNL     1      -3.137  12.128  19.683  0.00  0.00    +0.000 N 
ENDROOT
BRANCH   1  13
ATOM     10  C   UNL     1      -3.315  10.231  14.823  0.00  0.00    +0.000 A 
ATOM     11  C   UNL     1      -2.259   9.614  15.499  0.00  0.00    +0.000 A 
ATOM     12  C   UNL     1      -1.941   9.977  16.813  0.00  0.00    +0.000 A 
ATOM     13  C   UNL     1      -2.669  10.970  17.483  0.00  0.00    +0.000 A 
ATOM     14  C   UNL     1      -3.744  11.561  16.806  0.00  0.00    +0.000 A 
ATOM     15  C   UNL     1      -4.087  11.190  15.491  0.00  0.00    +0.000 A 
BRANCH  10  17
ATOM     16  O   UNL     1      -4.730   9.669  12.996  0.00  0.00    +0.000 OA
ATOM     17  C   UNL     1      -3.602   9.823  13.427  0.00  0.00    +0.000 C 
BRANCH  17  18
ATOM     18  O   UNL     1      -2.494   9.582  12.691  0.00  0.00    +0.000 OA
ATOM     19  H   UNL     1      -2.541   8.788  12.129  0.00  0.00    +0.000 HD
ENDBRANCH  17  18
ENDBRANCH  10  17
ENDBRANCH   1  13
BRANCH   5  20
ATOM     20  N   UNL     1      -2.508  13.516  23.086  0.00  0.00    +0.000 N 
ATOM     21  C   UNL     1      -3.197  13.493  24.396  0.00  0.00    +0.000 C 
ATOM     22  C   UNL     1      -3.027  14.838  25.116  0.00  0.00    +0.000 C 
ATOM     23  O   UNL     1      -1.637  15.188  25.252  0.00  0.00    +0.000 OA
ATOM     24  C   UNL     1      -1.024  15.279  23.956  0.00  0.00    +0.000 C 
ATOM     25  C   UNL     1      -1.099  13.940  23.208  0.00  0.00    +0.000 C 
ENDBRANCH   5  20
BRANCH   2  26
ATOM     26  C   UNL     1      -0.081  10.197  19.488  0.00  0.00    +0.000 C 
ATOM     27  C   UNL     1       0.820   9.427  19.284  0.00  0.00    +0.000 C 
BRANCH  27  28
ATOM     28  C   UNL     1       1.770   8.340  19.177  0.00  0.00    +0.000 A 
ATOM     29  C   UNL     1       1.714   7.346  20.140  0.00  0.00    +0.000 A 
ATOM     30  C   UNL     1       2.619   6.300  20.075  0.00  0.00    +0.000 A 
ATOM     31  C   UNL     1       3.439   6.174  18.960  0.00  0.00    +0.000 A 
ATOM     32  C   UNL     1       4.178   4.992  18.784  0.00  0.00    +0.000 A 
ATOM     33  C   UNL     1       4.844   4.753  17.591  0.00  0.00    +0.000 A 
ATOM     34  C   UNL     1       4.849   5.742  16.615  0.00  0.00    +0.000 A 
ATOM     35  C   UNL     1       4.177   6.959  16.833  0.00  0.00    +0.000 A 
ATOM     36  C   UNL     1       3.414   7.196  17.983  0.00  0.00    +0.000 A 
ATOM     37  N   UNL     1       2.627   8.306  18.124  0.00  0.00    +0.000 NA
ENDBRANCH  27  28
ENDBRANCH   2  26
TORSDOF 6
ENDMDL
MODEL 6
REMARK VINA RESULT:      -8.0      0.880      1.762
REMARK  Name = 
REMARK  6 active torsions:
REMARK  status: ('A' for Active; 'I' for Inactive)
REMARK    1  A    between atoms: C_2  and  O_3
REMARK    2  A    between atoms: C_2  and  C_4
REMARK    3  A    between atoms: C_7  and  C_8
REMARK    4  A    between atoms: C_9  and  C_10
REMARK    5  A    between atoms: C_11  and  C_12
REMARK    6  A    between atoms: C_24  and  N_25
REMARK                            x       y       z     vdW  Elec       q    Type
REMARK                         _______ _______ _______ _____ _____    ______ ____
ROOT
ATOM      1  C   UNL     1      -0.065  12.503  18.857  0.00  0.00    +0.000 A 
ATOM      2  C   UNL     1       1.091  11.745  19.050  0.00  0.00    +0.000 A 
ATOM      3  N   UNL     1       2.208  12.540  19.158  0.00  0.00    +0.000 NA
ATOM      4  C   UNL     1       1.769  13.788  19.126  0.00  0.00    +0.000 A 
ATOM      5  C   UNL     1       2.470  15.044  19.266  0.00  0.00    +0.000 A 
ATOM      6  C   UNL     1       1.704  16.149  19.361  0.00  0.00    +0.000 A 
ATOM      7  C   UNL     1       0.243  16.025  19.255  0.00  0.00    +0.000 A 
ATOM      8  N   UNL     1      -0.417  14.931  19.064  0.00  0.00    +0.000 NA
ATOM      9  N   UNL     1       0.388  13.817  19.003  0.00  0.00    +0.000 N 
ENDROOT
BRANCH   1  13
ATOM     10  C   UNL     1      -4.210  11.490  18.230  0.00  0.00    +0.000 A 
ATOM     11  C   UNL     1      -3.794  12.122  19.405  0.00  0.00    +0.000 A 
ATOM     12  C   UNL     1      -2.449  12.453  19.601  0.00  0.00    +0.000 A 
ATOM     13  C   UNL     1      -1.483  12.156  18.629  0.00  0.00    +0.000 A 
ATOM     14  C   UNL     1      -1.917  11.549  17.443  0.00  0.00    +0.000 A 
ATOM     15  C   UNL     1      -3.271  11.229  17.224  0.00  0.00    +0.000 A 
BRANCH  10  17
ATOM     16  O   UNL     1      -6.203  10.300  18.754  0.00  0.00    +0.000 OA
ATOM     17  C   UNL     1      -5.644  11.144  18.076  0.00  0.00    +0.000 C 
BRANCH  17  18
ATOM     18  O   UNL     1      -6.260  11.810  17.074  0.00  0.00    +0.000 OA
ATOM     19  H   UNL     1      -6.185  12.781  17.122  0.00  0.00    +0.000 HD
ENDBRANCH  17  18
ENDBRANCH  10  17
ENDBRANCH   1  13
BRANCH   5  20
ATOM     20  N   UNL     1       3.865  15.125  19.319  0.00  0.00    +0.000 N 
ATOM     21  C   UNL     1       4.655  14.842  20.539  0.00  0.00    +0.000 C 
ATOM     22  C   UNL     1       5.610  16.004  20.842  0.00  0.00    +0.000 C 
ATOM     23  O   UNL     1       6.458  16.295  19.715  0.00  0.00    +0.000 OA
ATOM     24  C   UNL     1       5.656  16.643  18.575  0.00  0.00    +0.000 C 
ATOM     25  C   UNL     1       4.723  15.491  18.175  0.00  0.00    +0.000 C 
ENDBRANCH   5  20
BRANCH   2  26
ATOM     26  C   UNL     1       1.290  10.312  19.100  0.00  0.00    +0.000 C 
ATOM     27  C   UNL     1       1.552   9.139  19.143  0.00  0.00    +0.000 C 
BRANCH  27  28
ATOM     28  C   UNL     1       2.030   7.779  19.009  0.00  0.00    +0.000 A 
ATOM     29  C   UNL     1       2.928   7.515  17.989  0.00  0.00    +0.000 A 
ATOM     30  C   UNL     1       3.392   6.221  17.825  0.00  0.00    +0.000 A 
ATOM     31  C   UNL     1       3.092   5.261  18.783  0.00  0.00    +0.000 A 
ATOM     32  C   UNL     1       3.756   4.023  18.743  0.00  0.00    +0.000 A 
ATOM     33  C   UNL     1       3.629   3.125  19.793  0.00  0.00    +0.000 A 
ATOM     34  C   UNL     1       2.760   3.428  20.834  0.00  0.00    +0.000 A 
ATOM     35  C   UNL     1       2.033   4.632  20.825  0.00  0.00    +0.000 A 
ATOM     36  C   UNL     1       2.209   5.605  19.832  0.00  0.00    +0.000 A 
ATOM     37  N   UNL     1       1.632   6.842  19.909  0.00  0.00    +0.000 NA
ENDBRANCH  27  28
ENDBRANCH   2  26
TORSDOF 6
ENDMDL
MODEL 7
REMARK VINA RESULT:      -8.0      1.312      1.871
REMARK  Name = 
REMARK  6 active torsions:
REMARK  status: ('A' for Active; 'I' for Inactive)
REMARK    1  A    between atoms: C_2  and  O_3
REMARK    2  A    between atoms: C_2  and  C_4
REMARK    3  A    between atoms: C_7  and  C_8
REMARK    4  A    between atoms: C_9  and  C_10
REMARK    5  A    between atoms: C_11  and  C_12
REMARK    6  A    between atoms: C_24  and  N_25
REMARK                            x       y       z     vdW  Elec       q    Type
REMARK                         _______ _______ _______ _____ _____    ______ ____
ROOT
ATOM      1  C   UNL     1       0.134  12.608  18.825  0.00  0.00    +0.000 A 
ATOM      2  C   UNL     1       1.338  11.904  18.773  0.00  0.00    +0.000 A 
ATOM      3  N   UNL     1       2.419  12.730  18.967  0.00  0.00    +0.000 NA
ATOM      4  C   UNL     1       1.919  13.927  19.229  0.00  0.00    +0.000 A 
ATOM      5  C   UNL     1       2.566  15.170  19.582  0.00  0.00    +0.000 A 
ATOM      6  C   UNL     1       1.757  16.179  19.960  0.00  0.00    +0.000 A 
ATOM      7  C   UNL     1       0.300  15.985  19.932  0.00  0.00    +0.000 A 
ATOM      8  N   UNL     1      -0.319  14.913  19.562  0.00  0.00    +0.000 NA
ATOM      9  N   UNL     1       0.533  13.890  19.212  0.00  0.00    +0.000 N 
ENDROOT
BRANCH   1  13
ATOM     10  C   UNL     1      -3.987  11.491  18.213  0.00  0.00    +0.000 A 
ATOM     11  C   UNL     1      -3.031  11.288  17.214  0.00  0.00    +0.000 A 
ATOM     12  C   UNL     1      -1.694  11.647  17.420  0.00  0.00    +0.000 A 
ATOM     13  C   UNL     1      -1.280  12.224  18.628  0.00  0.00    +0.000 A 
ATOM     14  C   UNL     1      -2.241  12.396  19.633  0.00  0.00    +0.000 A 
ATOM     15  C   UNL     1      -3.585  12.019  19.447  0.00  0.00    +0.000 A 
BRANCH  10  17
ATOM     16  O   UNL     1      -6.044  10.391  18.680  0.00  0.00    +0.000 OA
ATOM     17  C   UNL     1      -5.394  11.109  17.941  0.00  0.00    +0.000 C 
BRANCH  17  18
ATOM     18  O   UNL     1      -5.870  11.583  16.769  0.00  0.00    +0.000 OA
ATOM     19  H   UNL     1      -6.149  10.899  16.134  0.00  0.00    +0.000 HD
ENDBRANCH  17  18
ENDBRANCH  10  17
ENDBRANCH   1  13
BRANCH   5  20
ATOM     20  N   UNL     1       3.955  15.329  19.553  0.00  0.00    +0.000 N 
ATOM     21  C   UNL     1       4.843  14.969  20.681  0.00  0.00    +0.000 C 
ATOM     22  C   UNL     1       5.754  16.150  21.045  0.00  0.00    +0.000 C 
ATOM     23  O   UNL     1       6.503  16.606  19.903  0.00  0.00    +0.000 OA
ATOM     24  C   UNL     1       5.606  17.021  18.861  0.00  0.00    +0.000 C 
ATOM     25  C   UNL     1       4.710  15.862  18.401  0.00  0.00    +0.000 C 
ENDBRANCH   5  20
BRANCH   2  26
ATOM     26  C   UNL     1       1.610  10.507  18.506  0.00  0.00    +0.000 C 
ATOM     27  C   UNL     1       1.909   9.352  18.351  0.00  0.00    +0.000 C 
BRANCH  27  28
ATOM     28  C   UNL     1       2.505   8.049  18.144  0.00  0.00    +0.000 A 
ATOM     29  C   UNL     1       1.852   6.956  18.688  0.00  0.00    +0.000 A 
ATOM     30  C   UNL     1       2.404   5.696  18.522  0.00  0.00    +0.000 A 
ATOM     31  C   UNL     1       3.491   5.534  17.672  0.00  0.00    +0.000 A 
ATOM     32  C   UNL     1       3.894   4.235  17.318  0.00  0.00    +0.000 A 
ATOM     33  C   UNL     1       4.840   4.042  16.322  0.00  0.00    +0.000 A 
ATOM     34  C   UNL     1       5.450   5.153  15.751  0.00  0.00    +0.000 A 
ATOM     35  C   UNL     1       5.101   6.449  16.171  0.00  0.00    +0.000 A 
ATOM     36  C   UNL     1       4.083   6.685  17.104  0.00  0.00    +0.000 A 
ATOM     37  N   UNL     1       3.629   7.943  17.389  0.00  0.00    +0.000 NA
ENDBRANCH  27  28
ENDBRANCH   2  26
TORSDOF 6
ENDMDL
MODEL 8
REMARK VINA RESULT:      -7.8      2.718      6.856
REMARK  Name = 
REMARK  6 active torsions:
REMARK  status: ('A' for Active; 'I' for Inactive)
REMARK    1  A    between atoms: C_2  and  O_3
REMARK    2  A    between atoms: C_2  and  C_4
REMARK    3  A    between atoms: C_7  and  C_8
REMARK    4  A    between atoms: C_9  and  C_10
REMARK    5  A    between atoms: C_11  and  C_12
REMARK    6  A    between atoms: C_24  and  N_25
REMARK                            x       y       z     vdW  Elec       q    Type
REMARK                         _______ _______ _______ _____ _____    ______ ____
ROOT
ATOM      1  C   UNL     1       0.655  13.091  20.326  0.00  0.00    +0.000 A 
ATOM      2  C   UNL     1       0.149  11.795  20.436  0.00  0.00    +0.000 A 
ATOM      3  N   UNL     1      -1.061  11.776  21.090  0.00  0.00    +0.000 NA
ATOM      4  C   UNL     1      -1.371  13.043  21.317  0.00  0.00    +0.000 A 
ATOM      5  C   UNL     1      -2.547  13.641  21.905  0.00  0.00    +0.000 A 
ATOM      6  C   UNL     1      -2.634  14.984  21.836  0.00  0.00    +0.000 A 
ATOM      7  C   UNL     1      -1.529  15.748  21.240  0.00  0.00    +0.000 A 
ATOM      8  N   UNL     1      -0.433  15.256  20.763  0.00  0.00    +0.000 NA
ATOM      9  N   UNL     1      -0.387  13.883  20.819  0.00  0.00    +0.000 N 
ENDROOT
BRANCH   1  13
ATOM     10  C   UNL     1       4.321  14.747  18.769  0.00  0.00    +0.000 A 
ATOM     11  C   UNL     1       4.102  14.654  20.145  0.00  0.00    +0.000 A 
ATOM     12  C   UNL     1       2.913  14.110  20.646  0.00  0.00    +0.000 A 
ATOM     13  C   UNL     1       1.909  13.652  19.781  0.00  0.00    +0.000 A 
ATOM     14  C   UNL     1       2.152  13.723  18.403  0.00  0.00    +0.000 A 
ATOM     15  C   UNL     1       3.353  14.248  17.887  0.00  0.00    +0.000 A 
BRANCH  10  17
ATOM     16  O   UNL     1       6.400  14.736  17.612  0.00  0.00    +0.000 OA
ATOM     17  C   UNL     1       5.590  15.345  18.287  0.00  0.00    +0.000 C 
BRANCH  17  18
ATOM     18  O   UNL     1       5.791  16.611  18.715  0.00  0.00    +0.000 OA
ATOM     19  H   UNL     1       5.295  16.855  19.518  0.00  0.00    +0.000 HD
ENDBRANCH  17  18
ENDBRANCH  10  17
ENDBRANCH   1  13
BRANCH   5  20
ATOM     20  N   UNL     1      -3.558  12.882  22.503  0.00  0.00    +0.000 N 
ATOM     21  C   UNL     1      -4.917  12.736  21.934  0.00  0.00    +0.000 C 
ATOM     22  C   UNL     1      -5.980  13.079  22.986  0.00  0.00    +0.000 C 
ATOM     23  O   UNL     1      -5.814  12.286  24.177  0.00  0.00    +0.000 OA
ATOM     24  C   UNL     1      -4.514  12.517  24.743  0.00  0.00    +0.000 C 
ATOM     25  C   UNL     1      -3.400  12.126  23.761  0.00  0.00    +0.000 C 
ENDBRANCH   5  20
BRANCH   2  26
ATOM     26  C   UNL     1       0.704  10.522  20.030  0.00  0.00    +0.000 C 
ATOM     27  C   UNL     1       1.130   9.426  19.777  0.00  0.00    +0.000 C 
BRANCH  27  28
ATOM     28  C   UNL     1       1.737   8.113  19.706  0.00  0.00    +0.000 A 
ATOM     29  C   UNL     1       1.366   7.186  20.665  0.00  0.00    +0.000 A 
ATOM     30  C   UNL     1       1.939   5.926  20.635  0.00  0.00    +0.000 A 
ATOM     31  C   UNL     1       2.730   5.562  19.552  0.00  0.00    +0.000 A 
ATOM     32  C   UNL     1       3.110   4.217  19.405  0.00  0.00    +0.000 A 
ATOM     33  C   UNL     1       3.724   3.786  18.237  0.00  0.00    +0.000 A 
ATOM     34  C   UNL     1       4.045   4.723  17.263  0.00  0.00    +0.000 A 
ATOM     35  C   UNL     1       3.738   6.083  17.456  0.00  0.00    +0.000 A 
ATOM     36  C   UNL     1       3.032   6.538  18.576  0.00  0.00    +0.000 A 
ATOM     37  N   UNL     1       2.587   7.827  18.686  0.00  0.00    +0.000 NA
ENDBRANCH  27  28
ENDBRANCH   2  26
TORSDOF 6
ENDMDL
MODEL 9
REMARK VINA RESULT:      -7.8      0.547      1.101
REMARK  Name = 
REMARK  6 active torsions:
REMARK  status: ('A' for Active; 'I' for Inactive)
REMARK    1  A    between atoms: C_2  and  O_3
REMARK    2  A    between atoms: C_2  and  C_4
REMARK    3  A    between atoms: C_7  and  C_8
REMARK    4  A    between atoms: C_9  and  C_10
REMARK    5  A    between atoms: C_11  and  C_12
REMARK    6  A    between atoms: C_24  and  N_25
REMARK                            x       y       z     vdW  Elec       q    Type
REMARK                         _______ _______ _______ _____ _____    ______ ____
ROOT
ATOM      1  C   UNL     1      -0.270  12.737  18.694  0.00  0.00    +0.000 A 
ATOM      2  C   UNL     1       0.943  12.052  18.777  0.00  0.00    +0.000 A 
ATOM      3  N   UNL     1       2.012  12.916  18.822  0.00  0.00    +0.000 NA
ATOM      4  C   UNL     1       1.494  14.133  18.857  0.00  0.00    +0.000 A 
ATOM      5  C   UNL     1       2.122  15.428  18.979  0.00  0.00    +0.000 A 
ATOM      6  C   UNL     1       1.297  16.478  19.162  0.00  0.00    +0.000 A 
ATOM      7  C   UNL     1      -0.157  16.262  19.164  0.00  0.00    +0.000 A 
ATOM      8  N   UNL     1      -0.759  15.131  18.994  0.00  0.00    +0.000 NA
ATOM      9  N   UNL     1       0.108  14.074  18.841  0.00  0.00    +0.000 N 
ENDROOT
BRANCH   1  13
ATOM     10  C   UNL     1      -4.380  11.471  18.357  0.00  0.00    +0.000 A 
ATOM     11  C   UNL     1      -3.931  12.161  19.486  0.00  0.00    +0.000 A 
ATOM     12  C   UNL     1      -2.597  12.574  19.588  0.00  0.00    +0.000 A 
ATOM     13  C   UNL     1      -1.678  12.303  18.565  0.00  0.00    +0.000 A 
ATOM     14  C   UNL     1      -2.147  11.637  17.425  0.00  0.00    +0.000 A 
ATOM     15  C   UNL     1      -3.491  11.234  17.301  0.00  0.00    +0.000 A 
BRANCH  10  17
ATOM     16  O   UNL     1      -6.681  11.712  17.800  0.00  0.00    +0.000 OA
ATOM     17  C   UNL     1      -5.798  11.040  18.303  0.00  0.00    +0.000 C 
BRANCH  17  18
ATOM     18  O   UNL     1      -6.031   9.858  18.915  0.00  0.00    +0.000 OA
ATOM     19  H   UNL     1      -5.972   9.078  18.334  0.00  0.00    +0.000 HD
ENDBRANCH  17  18
ENDBRANCH  10  17
ENDBRANCH   1  13
BRANCH   5  20
ATOM     20  N   UNL     1       3.509  15.599  18.927  0.00  0.00    +0.000 N 
ATOM     21  C   UNL     1       4.305  15.462  17.687  0.00  0.00    +0.000 C 
ATOM     22  C   UNL     1       5.473  14.490  17.903  0.00  0.00    +0.000 C 
ATOM     23  O   UNL     1       6.291  14.893  19.018  0.00  0.00    +0.000 OA
ATOM     24  C   UNL     1       5.500  14.937  20.216  0.00  0.00    +0.000 C 
ATOM     25  C   UNL     1       4.350  15.946  20.090  0.00  0.00    +0.000 C 
ENDBRANCH   5  20
BRANCH   2  26
ATOM     26  C   UNL     1       1.235  10.634  18.772  0.00  0.00    +0.000 C 
ATOM     27  C   UNL     1       1.482   9.461  18.867  0.00  0.00    +0.000 C 
BRANCH  27  28
ATOM     28  C   UNL     1       1.962   8.122  19.136  0.00  0.00    +0.000 A 
ATOM     29  C   UNL     1       1.562   7.527  20.321  0.00  0.00    +0.000 A 
ATOM     30  C   UNL     1       2.016   6.252  20.616  0.00  0.00    +0.000 A 
ATOM     31  C   UNL     1       2.710   5.534  19.649  0.00  0.00    +0.000 A 
ATOM     32  C   UNL     1       2.957   4.167  19.860  0.00  0.00    +0.000 A 
ATOM     33  C   UNL     1       3.465   3.380  18.836  0.00  0.00    +0.000 A 
ATOM     34  C   UNL     1       3.815   3.986  17.635  0.00  0.00    +0.000 A 
ATOM     35  C   UNL     1       3.644   5.372  17.462  0.00  0.00    +0.000 A 
ATOM     36  C   UNL     1       3.045   6.179  18.437  0.00  0.00    +0.000 A 
ATOM     37  N   UNL     1       2.725   7.489  18.208  0.00  0.00    +0.000 NA
ENDBRANCH  27  28
ENDBRANCH   2  26
TORSDOF 6
ENDMDL
