MODEL 1
REMARK VINA RESULT:      -6.0      0.000      0.000
REMARK  Name = 
REMARK  3 active torsions:
REMARK  status: ('A' for Active; 'I' for Inactive)
REMARK    1  A    between atoms: C_1  and  C_2
REMARK    2  A    between atoms: N_4  and  C_5
REMARK    3  A    between atoms: C_11  and  N_12
REMARK                            x       y       z     vdW  Elec       q    Type
REMARK                         _______ _______ _______ _____ _____    ______ ____
ROOT
ATOM      1  C   UNL     1       5.930   6.300  16.787  0.00  0.00    +0.000 A 
ATOM      2  C   UNL     1       4.719   6.151  17.479  0.00  0.00    +0.000 A 
ATOM      3  C   UNL     1       3.958   4.991  17.335  0.00  0.00    +0.000 A 
ATOM      4 BR   UNL     1       2.339   4.808  18.293  0.00  0.00    +0.000 Br
ATOM      5  C   UNL     1       4.390   3.963  16.509  0.00  0.00    +0.000 A 
ATOM      6  C   UNL     1       5.586   4.104  15.804  0.00  0.00    +0.000 A 
ATOM      7  C   UNL     1       6.340   5.287  15.887  0.00  0.00    +0.000 A 
ENDROOT
BRANCH   1  11
ATOM      8  C   UNL     1       8.276   9.042  17.899  0.00  0.00    +0.000 C 
ATOM      9  C   UNL     1       7.721   7.641  17.909  0.00  0.00    +0.000 C 
ATOM     10  O   UNL     1       8.131   6.817  18.717  0.00  0.00    +0.000 OA
ATOM     11  N   UNL     1       6.744   7.448  16.948  0.00  0.00    +0.000 N 
ATOM     12  H   UNL     1       6.692   8.129  16.206  0.00  0.00    +0.000 HD
ENDBRANCH   1  11
BRANCH   7  13
ATOM     13  N   UNL     1       7.589   5.323  15.229  0.00  0.00    +0.000 N 
ATOM     14  H   UNL     1       7.502   5.475  14.225  0.00  0.00    +0.000 HD
ATOM     15  H   UNL     1       8.258   5.968  15.629  0.00  0.00    +0.000 HD
ENDBRANCH   7  13
TORSDOF 2
ENDMDL
MODEL 2
REMARK VINA RESULT:      -5.7      3.622      4.328
REMARK  Name = 
REMARK  3 active torsions:
REMARK  status: ('A' for Active; 'I' for Inactive)
REMARK    1  A    between atoms: C_1  and  C_2
REMARK    2  A    between atoms: N_4  and  C_5
REMARK    3  A    between atoms: C_11  and  N_12
REMARK                            x       y       z     vdW  Elec       q    Type
REMARK                         _______ _______ _______ _____ _____    ______ ____
ROOT
ATOM      1  C   UNL     1       4.447   3.940  19.379  0.00  0.00    +0.000 A 
ATOM      2  C   UNL     1       3.632   5.067  19.561  0.00  0.00    +0.000 A 
ATOM      3  C   UNL     1       2.525   5.013  20.407  0.00  0.00    +0.000 A 
ATOM      4 BR   UNL     1       1.453   6.552  20.649  0.00  0.00    +0.000 Br
ATOM      5  C   UNL     1       2.216   3.844  21.090  0.00  0.00    +0.000 A 
ATOM      6  C   UNL     1       3.011   2.712  20.907  0.00  0.00    +0.000 A 
ATOM      7  C   UNL     1       4.095   2.725  20.014  0.00  0.00    +0.000 A 
ENDROOT
BRANCH   1  11
ATOM      8  C   UNL     1       7.714   4.658  17.627  0.00  0.00    +0.000 C 
ATOM      9  C   UNL     1       6.751   4.717  18.784  0.00  0.00    +0.000 C 
ATOM     10  O   UNL     1       7.018   5.377  19.781  0.00  0.00    +0.000 OA
ATOM     11  N   UNL     1       5.601   3.980  18.559  0.00  0.00    +0.000 N 
ATOM     12  H   UNL     1       5.632   3.301  17.814  0.00  0.00    +0.000 HD
ENDBRANCH   1  11
BRANCH   7  13
ATOM     13  N   UNL     1       4.918   1.578  19.955  0.00  0.00    +0.000 N 
ATOM     14  H   UNL     1       4.468   0.750  20.342  0.00  0.00    +0.000 HD
ATOM     15  H   UNL     1       5.301   1.380  19.040  0.00  0.00    +0.000 HD
ENDBRANCH   7  13
TORSDOF 2
ENDMDL
MODEL 3
REMARK VINA RESULT:      -5.6      2.582      3.629
REMARK  Name = 
REMARK  3 active torsions:
REMARK  status: ('A' for Active; 'I' for Inactive)
REMARK    1  A    between atoms: C_1  and  C_2
REMARK    2  A    between atoms: N_4  and  C_5
REMARK    3  A    between atoms: C_11  and  N_12
REMARK                            x       y       z     vdW  Elec       q    Type
REMARK                         _______ _______ _______ _____ _____    ______ ____
ROOT
ATOM      1  C   UNL     1       5.504   4.235  16.680  0.00  0.00    +0.000 A 
ATOM      2  C   UNL     1       4.192   4.469  17.119  0.00  0.00    +0.000 A 
ATOM      3  C   UNL     1       3.954   4.993  18.389  0.00  0.00    +0.000 A 
ATOM      4 BR   UNL     1       2.178   5.317  18.951  0.00  0.00    +0.000 Br
ATOM      5  C   UNL     1       5.010   5.297  19.237  0.00  0.00    +0.000 A 
ATOM      6  C   UNL     1       6.319   5.055  18.817  0.00  0.00    +0.000 A 
ATOM      7  C   UNL     1       6.582   4.473  17.565  0.00  0.00    +0.000 A 
ENDROOT
BRANCH   1  11
ATOM      8  C   UNL     1       6.348   3.673  13.042  0.00  0.00    +0.000 C 
ATOM      9  C   UNL     1       6.361   4.444  14.336  0.00  0.00    +0.000 C 
ATOM     10  O   UNL     1       6.843   5.568  14.385  0.00  0.00    +0.000 OA
ATOM     11  N   UNL     1       5.777   3.745  15.379  0.00  0.00    +0.000 N 
ATOM     12  H   UNL     1       5.653   2.752  15.251  0.00  0.00    +0.000 HD
ENDBRANCH   1  11
BRANCH   7  13
ATOM     13  N   UNL     1       7.930   4.351  17.162  0.00  0.00    +0.000 N 
ATOM     14  H   UNL     1       8.577   4.800  17.809  0.00  0.00    +0.000 HD
ATOM     15  H   UNL     1       8.226   3.406  16.960  0.00  0.00    +0.000 HD
ENDBRANCH   7  13
TORSDOF 2
ENDMDL
MODEL 4
REMARK VINA RESULT:      -5.6      4.138      5.463
REMARK  Name = 
REMARK  3 active torsions:
REMARK  status: ('A' for Active; 'I' for Inactive)
REMARK    1  A    between atoms: C_1  and  C_2
REMARK    2  A    between atoms: N_4  and  C_5
REMARK    3  A    between atoms: C_11  and  N_12
REMARK                            x       y       z     vdW  Elec       q    Type
REMARK                         _______ _______ _______ _____ _____    ______ ____
ROOT
ATOM      1  C   UNL     1       3.341   5.067  19.504  0.00  0.00    +0.000 A 
ATOM      2  C   UNL     1       2.633   6.244  19.217  0.00  0.00    +0.000 A 
ATOM      3  C   UNL     1       3.073   7.110  18.217  0.00  0.00    +0.000 A 
ATOM      4 BR   UNL     1       2.091   8.680  17.838  0.00  0.00    +0.000 Br
ATOM      5  C   UNL     1       4.215   6.817  17.484  0.00  0.00    +0.000 A 
ATOM      6  C   UNL     1       4.936   5.657  17.769  0.00  0.00    +0.000 A 
ATOM      7  C   UNL     1       4.546   4.800  18.811  0.00  0.00    +0.000 A 
ENDROOT
BRANCH   1  11
ATOM      8  C   UNL     1       1.513   2.577  21.677  0.00  0.00    +0.000 C 
ATOM      9  C   UNL     1       1.808   3.295  20.385  0.00  0.00    +0.000 C 
ATOM     10  O   UNL     1       1.112   3.102  19.396  0.00  0.00    +0.000 OA
ATOM     11  N   UNL     1       2.893   4.149  20.485  0.00  0.00    +0.000 N 
ATOM     12  H   UNL     1       3.507   4.016  21.273  0.00  0.00    +0.000 HD
ENDBRANCH   1  11
BRANCH   7  13
ATOM     13  N   UNL     1       5.259   3.593  18.978  0.00  0.00    +0.000 N 
ATOM     14  H   UNL     1       4.695   2.856  19.400  0.00  0.00    +0.000 HD
ATOM     15  H   UNL     1       5.718   3.254  18.142  0.00  0.00    +0.000 HD
ENDBRANCH   7  13
TORSDOF 2
ENDMDL
MODEL 5
REMARK VINA RESULT:      -5.5      3.900      5.438
REMARK  Name = 
REMARK  3 active torsions:
REMARK  status: ('A' for Active; 'I' for Inactive)
REMARK    1  A    between atoms: C_1  and  C_2
REMARK    2  A    between atoms: N_4  and  C_5
REMARK    3  A    between atoms: C_11  and  N_12
REMARK                            x       y       z     vdW  Elec       q    Type
REMARK                         _______ _______ _______ _____ _____    ______ ____
ROOT
ATOM      1  C   UNL     1       3.671   4.697  17.695  0.00  0.00    +0.000 A 
ATOM      2  C   UNL     1       4.429   4.108  16.673  0.00  0.00    +0.000 A 
ATOM      3  C   UNL     1       5.236   4.890  15.847  0.00  0.00    +0.000 A 
ATOM      4 BR   UNL     1       6.262   4.068  14.489  0.00  0.00    +0.000 Br
ATOM      5  C   UNL     1       5.306   6.265  16.027  0.00  0.00    +0.000 A 
ATOM      6  C   UNL     1       4.545   6.865  17.031  0.00  0.00    +0.000 A 
ATOM      7  C   UNL     1       3.681   6.105  17.837  0.00  0.00    +0.000 A 
ENDROOT
BRANCH   1  11
ATOM      8  C   UNL     1       0.966   2.903  19.625  0.00  0.00    +0.000 C 
ATOM      9  C   UNL     1       1.540   3.599  18.418  0.00  0.00    +0.000 C 
ATOM     10  O   UNL     1       0.837   3.832  17.442  0.00  0.00    +0.000 OA
ATOM     11  N   UNL     1       2.877   3.922  18.575  0.00  0.00    +0.000 N 
ATOM     12  H   UNL     1       3.377   3.453  19.315  0.00  0.00    +0.000 HD
ENDBRANCH   1  11
BRANCH   7  13
ATOM     13  N   UNL     1       3.019   6.760  18.899  0.00  0.00    +0.000 N 
ATOM     14  H   UNL     1       2.028   6.909  18.715  0.00  0.00    +0.000 HD
ATOM     15  H   UNL     1       3.152   6.332  19.807  0.00  0.00    +0.000 HD
ENDBRANCH   7  13
TORSDOF 2
ENDMDL
MODEL 6
REMARK VINA RESULT:      -5.5      2.642      3.386
REMARK  Name = 
REMARK  3 active torsions:
REMARK  status: ('A' for Active; 'I' for Inactive)
REMARK    1  A    between atoms: C_1  and  C_2
REMARK    2  A    between atoms: N_4  and  C_5
REMARK    3  A    between atoms: C_11  and  N_12
REMARK                            x       y       z     vdW  Elec       q    Type
REMARK                         _______ _______ _______ _____ _____    ______ ____
ROOT
ATOM      1  C   UNL     1       6.237   5.581  16.588  0.00  0.00    +0.000 A 
ATOM      2  C   UNL     1       4.999   6.220  16.749  0.00  0.00    +0.000 A 
ATOM      3  C   UNL     1       4.324   6.164  17.968  0.00  0.00    +0.000 A 
ATOM      4 BR   UNL     1       2.665   7.049  18.164  0.00  0.00    +0.000 Br
ATOM      5  C   UNL     1       4.871   5.480  19.045  0.00  0.00    +0.000 A 
ATOM      6  C   UNL     1       6.096   4.828  18.894  0.00  0.00    +0.000 A 
ATOM      7  C   UNL     1       6.765   4.821  17.659  0.00  0.00    +0.000 A 
ENDROOT
BRANCH   1  11
ATOM      8  C   UNL     1       7.869   5.091  13.218  0.00  0.00    +0.000 C 
ATOM      9  C   UNL     1       6.822   4.835  14.271  0.00  0.00    +0.000 C 
ATOM     10  O   UNL     1       5.974   3.967  14.106  0.00  0.00    +0.000 OA
ATOM     11  N   UNL     1       6.963   5.659  15.375  0.00  0.00    +0.000 N 
ATOM     12  H   UNL     1       7.541   6.478  15.263  0.00  0.00    +0.000 HD
ENDBRANCH   1  11
BRANCH   7  13
ATOM     13  N   UNL     1       8.047   4.231  17.604  0.00  0.00    +0.000 N 
ATOM     14  H   UNL     1       8.690   4.619  18.293  0.00  0.00    +0.000 HD
ATOM     15  H   UNL     1       8.049   3.220  17.645  0.00  0.00    +0.000 HD
ENDBRANCH   7  13
TORSDOF 2
ENDMDL
MODEL 7
REMARK VINA RESULT:      -5.5      3.399      4.669
REMARK  Name = 
REMARK  3 active torsions:
REMARK  status: ('A' for Active; 'I' for Inactive)
REMARK    1  A    between atoms: C_1  and  C_2
REMARK    2  A    between atoms: N_4  and  C_5
REMARK    3  A    between atoms: C_11  and  N_12
REMARK                            x       y       z     vdW  Elec       q    Type
REMARK                         _______ _______ _______ _____ _____    ______ ____
ROOT
ATOM      1  C   UNL     1       5.110   4.248  17.842  0.00  0.00    +0.000 A 
ATOM      2  C   UNL     1       4.920   3.986  16.477  0.00  0.00    +0.000 A 
ATOM      3  C   UNL     1       5.956   4.188  15.566  0.00  0.00    +0.000 A 
ATOM      4 BR   UNL     1       5.680   3.810  13.734  0.00  0.00    +0.000 Br
ATOM      5  C   UNL     1       7.194   4.645  15.996  0.00  0.00    +0.000 A 
ATOM      6  C   UNL     1       7.392   4.922  17.349  0.00  0.00    +0.000 A 
ATOM      7  C   UNL     1       6.346   4.784  18.277  0.00  0.00    +0.000 A 
ENDROOT
BRANCH   1  11
ATOM      8  C   UNL     1       2.751   2.942  20.486  0.00  0.00    +0.000 C 
ATOM      9  C   UNL     1       4.063   3.008  19.748  0.00  0.00    +0.000 C 
ATOM     10  O   UNL     1       4.963   2.218  20.009  0.00  0.00    +0.000 OA
ATOM     11  N   UNL     1       4.089   4.011  18.795  0.00  0.00    +0.000 N 
ATOM     12  H   UNL     1       3.382   4.727  18.866  0.00  0.00    +0.000 HD
ENDBRANCH   1  11
BRANCH   7  13
ATOM     13  N   UNL     1       6.643   4.982  19.643  0.00  0.00    +0.000 N 
ATOM     14  H   UNL     1       6.971   4.134  20.103  0.00  0.00    +0.000 HD
ATOM     15  H   UNL     1       7.269   5.754  19.832  0.00  0.00    +0.000 HD
ENDBRANCH   7  13
TORSDOF 2
ENDMDL
MODEL 8
REMARK VINA RESULT:      -5.5      2.428      2.842
REMARK  Name = 
REMARK  3 active torsions:
REMARK  status: ('A' for Active; 'I' for Inactive)
REMARK    1  A    between atoms: C_1  and  C_2
REMARK    2  A    between atoms: N_4  and  C_5
REMARK    3  A    between atoms: C_11  and  N_12
REMARK                            x       y       z     vdW  Elec       q    Type
REMARK                         _______ _______ _______ _____ _____    ______ ____
ROOT
ATOM      1  C   UNL     1       4.743   4.593  18.505  0.00  0.00    +0.000 A 
ATOM      2  C   UNL     1       3.961   4.532  19.668  0.00  0.00    +0.000 A 
ATOM      3  C   UNL     1       3.071   3.477  19.870  0.00  0.00    +0.000 A 
ATOM      4 BR   UNL     1       2.041   3.409  21.453  0.00  0.00    +0.000 Br
ATOM      5  C   UNL     1       2.950   2.467  18.925  0.00  0.00    +0.000 A 
ATOM      6  C   UNL     1       3.713   2.523  17.758  0.00  0.00    +0.000 A 
ATOM      7  C   UNL     1       4.572   3.606  17.506  0.00  0.00    +0.000 A 
ENDROOT
BRANCH   1  11
ATOM      8  C   UNL     1       7.762   6.844  18.225  0.00  0.00    +0.000 C 
ATOM      9  C   UNL     1       7.065   5.512  18.320  0.00  0.00    +0.000 C 
ATOM     10  O   UNL     1       7.713   4.477  18.417  0.00  0.00    +0.000 OA
ATOM     11  N   UNL     1       5.685   5.629  18.296  0.00  0.00    +0.000 N 
ATOM     12  H   UNL     1       5.307   6.504  17.966  0.00  0.00    +0.000 HD
ENDBRANCH   1  11
BRANCH   7  13
ATOM     13  N   UNL     1       5.390   3.548  16.356  0.00  0.00    +0.000 N 
ATOM     14  H   UNL     1       6.192   4.174  16.411  0.00  0.00    +0.000 HD
ATOM     15  H   UNL     1       5.683   2.617  16.092  0.00  0.00    +0.000 HD
ENDBRANCH   7  13
TORSDOF 2
ENDMDL
MODEL 9
REMARK VINA RESULT:      -5.5      3.741      5.091
REMARK  Name = 
REMARK  3 active torsions:
REMARK  status: ('A' for Active; 'I' for Inactive)
REMARK    1  A    between atoms: C_1  and  C_2
REMARK    2  A    between atoms: N_4  and  C_5
REMARK    3  A    between atoms: C_11  and  N_12
REMARK                            x       y       z     vdW  Elec       q    Type
REMARK                         _______ _______ _______ _____ _____    ______ ____
ROOT
ATOM      1  C   UNL     1       4.773   4.075  17.297  0.00  0.00    +0.000 A 
ATOM      2  C   UNL     1       4.880   3.917  15.907  0.00  0.00    +0.000 A 
ATOM      3  C   UNL     1       6.094   4.141  15.259  0.00  0.00    +0.000 A 
ATOM      4 BR   UNL     1       6.215   3.904  13.388  0.00  0.00    +0.000 Br
ATOM      5  C   UNL     1       7.219   4.519  15.980  0.00  0.00    +0.000 A 
ATOM      6  C   UNL     1       7.122   4.692  17.362  0.00  0.00    +0.000 A 
ATOM      7  C   UNL     1       5.896   4.530  18.028  0.00  0.00    +0.000 A 
ENDROOT
BRANCH   1  11
ATOM      8  C   UNL     1       1.658   2.649  18.885  0.00  0.00    +0.000 C 
ATOM      9  C   UNL     1       3.043   2.567  18.299  0.00  0.00    +0.000 C 
ATOM     10  O   UNL     1       3.586   1.481  18.136  0.00  0.00    +0.000 OA
ATOM     11  N   UNL     1       3.564   3.811  17.986  0.00  0.00    +0.000 N 
ATOM     12  H   UNL     1       3.113   4.613  18.400  0.00  0.00    +0.000 HD
ENDBRANCH   1  11
BRANCH   7  13
ATOM     13  N   UNL     1       5.892   4.620  19.437  0.00  0.00    +0.000 N 
ATOM     14  H   UNL     1       6.131   3.739  19.890  0.00  0.00    +0.000 HD
ATOM     15  H   UNL     1       6.449   5.376  19.814  0.00  0.00    +0.000 HD
ENDBRANCH   7  13
TORSDOF 2
ENDMDL
