MODEL 1
REMARK VINA RESULT:      -8.4      0.000      0.000
REMARK  Name = 
REMARK  14 active torsions:
REMARK  status: ('A' for Active; 'I' for Inactive)
REMARK    1  A    between atoms: C_1  and  C_2
REMARK    2  A    between atoms: C_2  and  C_3
REMARK    3  A    between atoms: C_2  and  C_4
REMARK    4  A    between atoms: C_4  and  C_5
REMARK    5  A    between atoms: C_5  and  N_6
REMARK    6  A    between atoms: C_5  and  C_28
REMARK    7  A    between atoms: C_7  and  C_9
REMARK    8  A    between atoms: C_11  and  C_12
REMARK    9  A    between atoms: C_12  and  O_13
REMARK   10  A    between atoms: O_13  and  C_14
REMARK   11  A    between atoms: C_22  and  C_23
REMARK   12  A    between atoms: C_23  and  C_24
REMARK   13  A    between atoms: C_24  and  C_25
REMARK   14  A    between atoms: C_25  and  O_27
REMARK                            x       y       z     vdW  Elec       q    Type
REMARK                         _______ _______ _______ _____ _____    ______ ____
ROOT
ATOM      1  C   UNL     1       2.821   7.003  18.841  0.00  0.00    +0.000 A 
ATOM      2  C   UNL     1       3.618   7.277  17.703  0.00  0.00    +0.000 A 
ATOM      3  C   UNL     1       4.447   6.296  17.126  0.00  0.00    +0.000 A 
ATOM      4  C   UNL     1       4.532   5.050  17.746  0.00  0.00    +0.000 A 
ATOM      5  C   UNL     1       3.770   4.765  18.875  0.00  0.00    +0.000 A 
ATOM      6  C   UNL     1       2.880   5.712  19.424  0.00  0.00    +0.000 A 
ENDROOT
BRANCH   1   8
ATOM      7  N   UNL     1       1.244   8.876  18.419  0.00  0.00    +0.000 N 
ATOM      8  C   UNL     1       1.872   8.058  19.347  0.00  0.00    +0.000 C 
ATOM      9  O   UNL     1       1.668   8.173  20.549  0.00  0.00    +0.000 OA
ATOM     10  H   UNL     1       1.484   8.803  17.444  0.00  0.00    +0.000 HD
BRANCH   7  11
ATOM     11  C   UNL     1       0.361   9.983  18.784  0.00  0.00    +0.000 C 
BRANCH  11  12
ATOM     12  C   UNL     1       1.132  11.236  19.200  0.00  0.00    +0.000 A 
ATOM     13  C   UNL     1       0.931  11.814  20.469  0.00  0.00    +0.000 A 
ATOM     14  C   UNL     1       1.571  13.012  20.819  0.00  0.00    +0.000 A 
ATOM     15  C   UNL     1       2.424  13.632  19.915  0.00  0.00    +0.000 A 
ATOM     16  F   UNL     1       3.012  14.790  20.242  0.00  0.00    +0.000 F 
ATOM     17  C   UNL     1       2.657  13.060  18.672  0.00  0.00    +0.000 A 
ATOM     18  F   UNL     1       3.477  13.653  17.794  0.00  0.00    +0.000 F 
ATOM     19  C   UNL     1       2.027  11.872  18.319  0.00  0.00    +0.000 A 
ENDBRANCH  11  12
BRANCH  11  20
ATOM     20  C   UNL     1      -0.752  10.278  17.734  0.00  0.00    +0.000 C 
BRANCH  20  22
ATOM     21  C   UNL     1      -2.570  11.743  18.734  0.00  0.00    +0.000 C 
ATOM     22  C   UNL     1      -2.192  10.338  18.276  0.00  0.00    +0.000 C 
ATOM     23  C   UNL     1      -3.204   9.896  17.205  0.00  0.00    +0.000 C 
ENDBRANCH  20  22
ENDBRANCH  11  20
ENDBRANCH   7  11
ENDBRANCH   1   8
BRANCH   3  24
ATOM     24  C   UNL     1       5.194   6.562  15.835  0.00  0.00    +0.000 C 
BRANCH  24  25
ATOM     25  O   UNL     1       6.314   5.685  15.742  0.00  0.00    +0.000 OA
BRANCH  25  26
ATOM     26  C   UNL     1       6.501   5.071  14.530  0.00  0.00    +0.000 A 
ATOM     27  C   UNL     1       5.518   4.141  14.186  0.00  0.00    +0.000 A 
ATOM     28  C   UNL     1       5.585   3.444  12.978  0.00  0.00    +0.000 A 
ATOM     29  C   UNL     1       6.628   3.692  12.089  0.00  0.00    +0.000 A 
ATOM     30  C   UNL     1       7.597   4.642  12.412  0.00  0.00    +0.000 A 
ATOM     31  C   UNL     1       7.536   5.333  13.629  0.00  0.00    +0.000 A 
ENDBRANCH  25  26
ENDBRANCH  24  25
ENDBRANCH   3  24
BRANCH   6  32
ATOM     32  C   UNL     1       2.050   5.232  20.609  0.00  0.00    +0.000 C 
BRANCH  32  33
ATOM     33  C   UNL     1       1.534   3.793  20.522  0.00  0.00    +0.000 C 
BRANCH  33  34
ATOM     34  C   UNL     1       2.102   2.814  21.531  0.00  0.00    +0.000 C 
ATOM     35  O   UNL     1       3.263   2.440  21.567  0.00  0.00    +0.000 OA
BRANCH  34  36
ATOM     36  O   UNL     1       1.186   2.448  22.463  0.00  0.00    +0.000 OA
ATOM     37  H   UNL     1       0.437   1.931  22.105  0.00  0.00    +0.000 HD
ENDBRANCH  34  36
ENDBRANCH  33  34
ENDBRANCH  32  33
ENDBRANCH   6  32
TORSDOF 12
ENDMDL
MODEL 2
REMARK VINA RESULT:      -8.3      3.052      4.923
REMARK  Name = 
REMARK  14 active torsions:
REMARK  status: ('A' for Active; 'I' for Inactive)
REMARK    1  A    between atoms: C_1  and  C_2
REMARK    2  A    between atoms: C_2  and  C_3
REMARK    3  A    between atoms: C_2  and  C_4
REMARK    4  A    between atoms: C_4  and  C_5
REMARK    5  A    between atoms: C_5  and  N_6
REMARK    6  A    between atoms: C_5  and  C_28
REMARK    7  A    between atoms: C_7  and  C_9
REMARK    8  A    between atoms: C_11  and  C_12
REMARK    9  A    between atoms: C_12  and  O_13
REMARK   10  A    between atoms: O_13  and  C_14
REMARK   11  A    between atoms: C_22  and  C_23
REMARK   12  A    between atoms: C_23  and  C_24
REMARK   13  A    between atoms: C_24  and  C_25
REMARK   14  A    between atoms: C_25  and  O_27
REMARK                            x       y       z     vdW  Elec       q    Type
REMARK                         _______ _______ _______ _____ _____    ______ ____
ROOT
ATOM      1  C   UNL     1       1.932   7.693  18.936  0.00  0.00    +0.000 A 
ATOM      2  C   UNL     1       2.188   6.641  18.023  0.00  0.00    +0.000 A 
ATOM      3  C   UNL     1       2.356   5.311  18.454  0.00  0.00    +0.000 A 
ATOM      4  C   UNL     1       2.342   5.050  19.823  0.00  0.00    +0.000 A 
ATOM      5  C   UNL     1       2.109   6.071  20.739  0.00  0.00    +0.000 A 
ATOM      6  C   UNL     1       1.866   7.396  20.321  0.00  0.00    +0.000 A 
ENDROOT
BRANCH   1   8
ATOM      7  N   UNL     1       0.489   9.712  18.817  0.00  0.00    +0.000 N 
ATOM      8  C   UNL     1       1.651   9.075  18.407  0.00  0.00    +0.000 C 
ATOM      9  O   UNL     1       2.442   9.610  17.640  0.00  0.00    +0.000 OA
ATOM     10  H   UNL     1      -0.174   9.220  19.393  0.00  0.00    +0.000 HD
BRANCH   7  11
ATOM     11  C   UNL     1       0.066  11.020  18.320  0.00  0.00    +0.000 C 
BRANCH  11  12
ATOM     12  C   UNL     1      -1.425  11.065  17.983  0.00  0.00    +0.000 A 
ATOM     13  C   UNL     1      -2.331  11.735  18.830  0.00  0.00    +0.000 A 
ATOM     14  C   UNL     1      -3.709  11.703  18.570  0.00  0.00    +0.000 A 
ATOM     15  C   UNL     1      -4.191  11.017  17.461  0.00  0.00    +0.000 A 
ATOM     16  F   UNL     1      -5.509  10.966  17.233  0.00  0.00    +0.000 F 
ATOM     17  C   UNL     1      -3.309  10.378  16.601  0.00  0.00    +0.000 A 
ATOM     18  F   UNL     1      -3.766   9.714  15.532  0.00  0.00    +0.000 F 
ATOM     19  C   UNL     1      -1.942  10.407  16.852  0.00  0.00    +0.000 A 
ENDBRANCH  11  12
BRANCH  11  20
ATOM     20  C   UNL     1       0.521  12.215  19.211  0.00  0.00    +0.000 C 
BRANCH  20  22
ATOM     21  C   UNL     1       0.781  14.742  19.199  0.00  0.00    +0.000 C 
ATOM     22  C   UNL     1       1.081  13.439  18.464  0.00  0.00    +0.000 C 
ATOM     23  C   UNL     1       2.605  13.330  18.290  0.00  0.00    +0.000 C 
ENDBRANCH  20  22
ENDBRANCH  11  20
ENDBRANCH   7  11
ENDBRANCH   1   8
BRANCH   3  24
ATOM     24  C   UNL     1       2.500   4.178  17.459  0.00  0.00    +0.000 C 
BRANCH  24  25
ATOM     25  O   UNL     1       3.683   3.437  17.747  0.00  0.00    +0.000 OA
BRANCH  25  26
ATOM     26  C   UNL     1       4.858   3.970  17.280  0.00  0.00    +0.000 A 
ATOM     27  C   UNL     1       4.916   4.136  15.895  0.00  0.00    +0.000 A 
ATOM     28  C   UNL     1       6.055   4.670  15.286  0.00  0.00    +0.000 A 
ATOM     29  C   UNL     1       7.138   5.067  16.067  0.00  0.00    +0.000 A 
ATOM     30  C   UNL     1       7.075   4.931  17.453  0.00  0.00    +0.000 A 
ATOM     31  C   UNL     1       5.938   4.386  18.062  0.00  0.00    +0.000 A 
ENDBRANCH  25  26
ENDBRANCH  24  25
ENDBRANCH   3  24
BRANCH   6  32
ATOM     32  C   UNL     1       1.543   8.392  21.429  0.00  0.00    +0.000 C 
BRANCH  32  33
ATOM     33  C   UNL     1       0.056   8.589  21.736  0.00  0.00    +0.000 C 
BRANCH  33  34
ATOM     34  C   UNL     1      -0.291   9.727  22.677  0.00  0.00    +0.000 C 
ATOM     35  O   UNL     1       0.096   9.826  23.830  0.00  0.00    +0.000 OA
BRANCH  34  36
ATOM     36  O   UNL     1      -1.028  10.690  22.067  0.00  0.00    +0.000 OA
ATOM     37  H   UNL     1      -1.129  10.564  21.102  0.00  0.00    +0.000 HD
ENDBRANCH  34  36
ENDBRANCH  33  34
ENDBRANCH  32  33
ENDBRANCH   6  32
TORSDOF 12
ENDMDL
MODEL 3
REMARK VINA RESULT:      -8.3      3.676      8.639
REMARK  Name = 
REMARK  14 active torsions:
REMARK  status: ('A' for Active; 'I' for Inactive)
REMARK    1  A    between atoms: C_1  and  C_2
REMARK    2  A    between atoms: C_2  and  C_3
REMARK    3  A    between atoms: C_2  and  C_4
REMARK    4  A    between atoms: C_4  and  C_5
REMARK    5  A    between atoms: C_5  and  N_6
REMARK    6  A    between atoms: C_5  and  C_28
REMARK    7  A    between atoms: C_7  and  C_9
REMARK    8  A    between atoms: C_11  and  C_12
REMARK    9  A    between atoms: C_12  and  O_13
REMARK   10  A    between atoms: O_13  and  C_14
REMARK   11  A    between atoms: C_22  and  C_23
REMARK   12  A    between atoms: C_23  and  C_24
REMARK   13  A    between atoms: C_24  and  C_25
REMARK   14  A    between atoms: C_25  and  O_27
REMARK                            x       y       z     vdW  Elec       q    Type
REMARK                         _______ _______ _______ _____ _____    ______ ____
ROOT
ATOM      1  C   UNL     1       3.630   5.163  19.613  0.00  0.00    +0.000 A 
ATOM      2  C   UNL     1       2.949   6.372  19.896  0.00  0.00    +0.000 A 
ATOM      3  C   UNL     1       1.727   6.387  20.596  0.00  0.00    +0.000 A 
ATOM      4  C   UNL     1       1.149   5.169  20.948  0.00  0.00    +0.000 A 
ATOM      5  C   UNL     1       1.793   3.968  20.666  0.00  0.00    +0.000 A 
ATOM      6  C   UNL     1       3.052   3.937  20.030  0.00  0.00    +0.000 A 
ENDROOT
BRANCH   1   8
ATOM      7  N   UNL     1       5.135   5.992  17.818  0.00  0.00    +0.000 N 
ATOM      8  C   UNL     1       4.986   5.218  18.959  0.00  0.00    +0.000 C 
ATOM      9  O   UNL     1       5.924   4.593  19.440  0.00  0.00    +0.000 OA
ATOM     10  H   UNL     1       4.331   6.438  17.408  0.00  0.00    +0.000 HD
BRANCH   7  11
ATOM     11  C   UNL     1       6.376   6.069  17.049  0.00  0.00    +0.000 C 
BRANCH  11  12
ATOM     12  C   UNL     1       6.290   5.318  15.720  0.00  0.00    +0.000 A 
ATOM     13  C   UNL     1       5.343   4.290  15.537  0.00  0.00    +0.000 A 
ATOM     14  C   UNL     1       5.320   3.541  14.351  0.00  0.00    +0.000 A 
ATOM     15  C   UNL     1       6.229   3.820  13.338  0.00  0.00    +0.000 A 
ATOM     16  F   UNL     1       6.222   3.084  12.219  0.00  0.00    +0.000 F 
ATOM     17  C   UNL     1       7.149   4.848  13.490  0.00  0.00    +0.000 A 
ATOM     18  F   UNL     1       8.029   5.121  12.518  0.00  0.00    +0.000 F 
ATOM     19  C   UNL     1       7.175   5.595  14.661  0.00  0.00    +0.000 A 
ENDBRANCH  11  12
BRANCH  11  20
ATOM     20  C   UNL     1       6.935   7.515  16.891  0.00  0.00    +0.000 C 
BRANCH  20  22
ATOM     21  C   UNL     1       8.278   9.301  18.100  0.00  0.00    +0.000 C 
ATOM     22  C   UNL     1       8.215   7.834  17.685  0.00  0.00    +0.000 C 
ATOM     23  C   UNL     1       8.305   6.974  18.957  0.00  0.00    +0.000 C 
ENDBRANCH  20  22
ENDBRANCH  11  20
ENDBRANCH   7  11
ENDBRANCH   1   8
BRANCH   3  24
ATOM     24  C   UNL     1       1.075   7.692  21.004  0.00  0.00    +0.000 C 
BRANCH  24  25
ATOM     25  O   UNL     1       1.427   8.713  20.073  0.00  0.00    +0.000 OA
BRANCH  25  26
ATOM     26  C   UNL     1       0.487   9.690  19.865  0.00  0.00    +0.000 A 
ATOM     27  C   UNL     1       0.048   9.809  18.544  0.00  0.00    +0.000 A 
ATOM     28  C   UNL     1      -0.909  10.764  18.193  0.00  0.00    +0.000 A 
ATOM     29  C   UNL     1      -1.455  11.593  19.170  0.00  0.00    +0.000 A 
ATOM     30  C   UNL     1      -1.044  11.459  20.496  0.00  0.00    +0.000 A 
ATOM     31  C   UNL     1      -0.076  10.509  20.846  0.00  0.00    +0.000 A 
ENDBRANCH  25  26
ENDBRANCH  24  25
ENDBRANCH   3  24
BRANCH   6  32
ATOM     32  C   UNL     1       3.676   2.557  19.861  0.00  0.00    +0.000 C 
BRANCH  32  33
ATOM     33  C   UNL     1       3.537   1.928  18.473  0.00  0.00    +0.000 C 
BRANCH  33  34
ATOM     34  C   UNL     1       2.302   2.314  17.681  0.00  0.00    +0.000 C 
ATOM     35  O   UNL     1       2.289   3.084  16.734  0.00  0.00    +0.000 OA
BRANCH  34  36
ATOM     36  O   UNL     1       1.198   1.638  18.090  0.00  0.00    +0.000 OA
ATOM     37  H   UNL     1       0.462   2.213  18.378  0.00  0.00    +0.000 HD
ENDBRANCH  34  36
ENDBRANCH  33  34
ENDBRANCH  32  33
ENDBRANCH   6  32
TORSDOF 12
ENDMDL
MODEL 4
REMARK VINA RESULT:      -8.3      2.842      5.001
REMARK  Name = 
REMARK  14 active torsions:
REMARK  status: ('A' for Active; 'I' for Inactive)
REMARK    1  A    between atoms: C_1  and  C_2
REMARK    2  A    between atoms: C_2  and  C_3
REMARK    3  A    between atoms: C_2  and  C_4
REMARK    4  A    between atoms: C_4  and  C_5
REMARK    5  A    between atoms: C_5  and  N_6
REMARK    6  A    between atoms: C_5  and  C_28
REMARK    7  A    between atoms: C_7  and  C_9
REMARK    8  A    between atoms: C_11  and  C_12
REMARK    9  A    between atoms: C_12  and  O_13
REMARK   10  A    between atoms: O_13  and  C_14
REMARK   11  A    between atoms: C_22  and  C_23
REMARK   12  A    between atoms: C_23  and  C_24
REMARK   13  A    between atoms: C_24  and  C_25
REMARK   14  A    between atoms: C_25  and  O_27
REMARK                            x       y       z     vdW  Elec       q    Type
REMARK                         _______ _______ _______ _____ _____    ______ ____
ROOT
ATOM      1  C   UNL     1       1.918   7.731  18.920  0.00  0.00    +0.000 A 
ATOM      2  C   UNL     1       2.222   6.668  18.035  0.00  0.00    +0.000 A 
ATOM      3  C   UNL     1       2.476   5.365  18.505  0.00  0.00    +0.000 A 
ATOM      4  C   UNL     1       2.500   5.147  19.881  0.00  0.00    +0.000 A 
ATOM      5  C   UNL     1       2.221   6.181  20.769  0.00  0.00    +0.000 A 
ATOM      6  C   UNL     1       1.892   7.476  20.314  0.00  0.00    +0.000 A 
ENDROOT
BRANCH   1   8
ATOM      7  N   UNL     1       0.474   9.754  18.916  0.00  0.00    +0.000 N 
ATOM      8  C   UNL     1       1.546   9.076  18.353  0.00  0.00    +0.000 C 
ATOM      9  O   UNL     1       2.188   9.548  17.423  0.00  0.00    +0.000 OA
ATOM     10  H   UNL     1      -0.077   9.310  19.633  0.00  0.00    +0.000 HD
BRANCH   7  11
ATOM     11  C   UNL     1      -0.032  11.029  18.410  0.00  0.00    +0.000 C 
BRANCH  11  12
ATOM     12  C   UNL     1      -1.532  10.989  18.116  0.00  0.00    +0.000 A 
ATOM     13  C   UNL     1      -2.034  10.209  17.054  0.00  0.00    +0.000 A 
ATOM     14  C   UNL     1      -3.397  10.240  16.727  0.00  0.00    +0.000 A 
ATOM     15  C   UNL     1      -4.269  11.034  17.462  0.00  0.00    +0.000 A 
ATOM     16  F   UNL     1      -5.565  11.081  17.129  0.00  0.00    +0.000 F 
ATOM     17  C   UNL     1      -3.796  11.784  18.529  0.00  0.00    +0.000 A 
ATOM     18  F   UNL     1      -4.631  12.554  19.240  0.00  0.00    +0.000 F 
ATOM     19  C   UNL     1      -2.447  11.758  18.860  0.00  0.00    +0.000 A 
ENDBRANCH  11  12
BRANCH  11  20
ATOM     20  C   UNL     1       0.383  12.261  19.270  0.00  0.00    +0.000 C 
BRANCH  20  22
ATOM     21  C   UNL     1       2.503  13.133  18.176  0.00  0.00    +0.000 C 
ATOM     22  C   UNL     1       1.897  12.497  19.424  0.00  0.00    +0.000 C 
ATOM     23  C   UNL     1       2.194  13.416  20.620  0.00  0.00    +0.000 C 
ENDBRANCH  20  22
ENDBRANCH  11  20
ENDBRANCH   7  11
ENDBRANCH   1   8
BRANCH   3  24
ATOM     24  C   UNL     1       2.671   4.211  17.542  0.00  0.00    +0.000 C 
BRANCH  24  25
ATOM     25  O   UNL     1       3.890   3.537  17.846  0.00  0.00    +0.000 OA
BRANCH  25  26
ATOM     26  C   UNL     1       5.023   4.043  17.259  0.00  0.00    +0.000 A 
ATOM     27  C   UNL     1       4.942   4.202  15.874  0.00  0.00    +0.000 A 
ATOM     28  C   UNL     1       6.024   4.710  15.149  0.00  0.00    +0.000 A 
ATOM     29  C   UNL     1       7.188   5.087  15.813  0.00  0.00    +0.000 A 
ATOM     30  C   UNL     1       7.265   4.959  17.199  0.00  0.00    +0.000 A 
ATOM     31  C   UNL     1       6.184   4.440  17.924  0.00  0.00    +0.000 A 
ENDBRANCH  25  26
ENDBRANCH  24  25
ENDBRANCH   3  24
BRANCH   6  32
ATOM     32  C   UNL     1       1.528   8.486  21.396  0.00  0.00    +0.000 C 
BRANCH  32  33
ATOM     33  C   UNL     1       0.058   8.505  21.823  0.00  0.00    +0.000 C 
BRANCH  33  34
ATOM     34  C   UNL     1      -0.429   9.774  22.496  0.00  0.00    +0.000 C 
ATOM     35  O   UNL     1      -0.933  10.724  21.920  0.00  0.00    +0.000 OA
BRANCH  34  36
ATOM     36  O   UNL     1      -0.319   9.712  23.848  0.00  0.00    +0.000 OA
ATOM     37  H   UNL     1      -0.279  10.586  24.285  0.00  0.00    +0.000 HD
ENDBRANCH  34  36
ENDBRANCH  33  34
ENDBRANCH  32  33
ENDBRANCH   6  32
TORSDOF 12
ENDMDL
MODEL 5
REMARK VINA RESULT:      -8.2      3.316      5.052
REMARK  Name = 
REMARK  14 active torsions:
REMARK  status: ('A' for Active; 'I' for Inactive)
REMARK    1  A    between atoms: C_1  and  C_2
REMARK    2  A    between atoms: C_2  and  C_3
REMARK    3  A    between atoms: C_2  and  C_4
REMARK    4  A    between atoms: C_4  and  C_5
REMARK    5  A    between atoms: C_5  and  N_6
REMARK    6  A    between atoms: C_5  and  C_28
REMARK    7  A    between atoms: C_7  and  C_9
REMARK    8  A    between atoms: C_11  and  C_12
REMARK    9  A    between atoms: C_12  and  O_13
REMARK   10  A    between atoms: O_13  and  C_14
REMARK   11  A    between atoms: C_22  and  C_23
REMARK   12  A    between atoms: C_23  and  C_24
REMARK   13  A    between atoms: C_24  and  C_25
REMARK   14  A    between atoms: C_25  and  O_27
REMARK                            x       y       z     vdW  Elec       q    Type
REMARK                         _______ _______ _______ _____ _____    ______ ____
ROOT
ATOM      1  C   UNL     1       2.224   7.487  18.887  0.00  0.00    +0.000 A 
ATOM      2  C   UNL     1       3.093   6.640  18.157  0.00  0.00    +0.000 A 
ATOM      3  C   UNL     1       3.411   5.343  18.605  0.00  0.00    +0.000 A 
ATOM      4  C   UNL     1       2.910   4.924  19.836  0.00  0.00    +0.000 A 
ATOM      5  C   UNL     1       2.067   5.746  20.577  0.00  0.00    +0.000 A 
ATOM      6  C   UNL     1       1.680   7.020  20.111  0.00  0.00    +0.000 A 
ENDROOT
BRANCH   1   8
ATOM      7  N   UNL     1       0.826   9.541  18.927  0.00  0.00    +0.000 N 
ATOM      8  C   UNL     1       1.834   8.820  18.304  0.00  0.00    +0.000 C 
ATOM      9  O   UNL     1       2.407   9.244  17.307  0.00  0.00    +0.000 OA
ATOM     10  H   UNL     1       0.328   9.135  19.702  0.00  0.00    +0.000 HD
BRANCH   7  11
ATOM     11  C   UNL     1       0.305  10.809  18.418  0.00  0.00    +0.000 C 
BRANCH  11  12
ATOM     12  C   UNL     1      -1.206  10.773  18.189  0.00  0.00    +0.000 A 
ATOM     13  C   UNL     1      -1.764   9.917  17.218  0.00  0.00    +0.000 A 
ATOM     14  C   UNL     1      -3.139   9.946  16.945  0.00  0.00    +0.000 A 
ATOM     15  C   UNL     1      -3.967  10.814  17.646  0.00  0.00    +0.000 A 
ATOM     16  F   UNL     1      -5.275  10.858  17.363  0.00  0.00    +0.000 F 
ATOM     17  C   UNL     1      -3.439  11.642  18.626  0.00  0.00    +0.000 A 
ATOM     18  F   UNL     1      -4.230  12.483  19.304  0.00  0.00    +0.000 F 
ATOM     19  C   UNL     1      -2.077  11.617  18.903  0.00  0.00    +0.000 A 
ENDBRANCH  11  12
BRANCH  11  20
ATOM     20  C   UNL     1       0.764  12.055  19.235  0.00  0.00    +0.000 C 
BRANCH  20  22
ATOM     21  C   UNL     1       0.523  14.562  18.901  0.00  0.00    +0.000 C 
ATOM     22  C   UNL     1       1.192  13.282  18.409  0.00  0.00    +0.000 C 
ATOM     23  C   UNL     1       2.714  13.485  18.470  0.00  0.00    +0.000 C 
ENDBRANCH  20  22
ENDBRANCH  11  20
ENDBRANCH   7  11
ENDBRANCH   1   8
BRANCH   3  24
ATOM     24  C   UNL     1       4.236   4.401  17.752  0.00  0.00    +0.000 C 
BRANCH  24  25
ATOM     25  O   UNL     1       5.041   5.157  16.849  0.00  0.00    +0.000 OA
BRANCH  25  26
ATOM     26  C   UNL     1       6.083   5.853  17.407  0.00  0.00    +0.000 A 
ATOM     27  C   UNL     1       6.733   5.196  18.453  0.00  0.00    +0.000 A 
ATOM     28  C   UNL     1       7.814   5.791  19.109  0.00  0.00    +0.000 A 
ATOM     29  C   UNL     1       8.269   7.043  18.702  0.00  0.00    +0.000 A 
ATOM     30  C   UNL     1       7.644   7.692  17.638  0.00  0.00    +0.000 A 
ATOM     31  C   UNL     1       6.553   7.100  16.988  0.00  0.00    +0.000 A 
ENDBRANCH  25  26
ENDBRANCH  24  25
ENDBRANCH   3  24
BRANCH   6  32
ATOM     32  C   UNL     1       0.688   7.774  20.988  0.00  0.00    +0.000 C 
BRANCH  32  33
ATOM     33  C   UNL     1       1.299   8.713  22.031  0.00  0.00    +0.000 C 
BRANCH  33  34
ATOM     34  C   UNL     1       0.331   9.620  22.767  0.00  0.00    +0.000 C 
ATOM     35  O   UNL     1       0.301   9.778  23.977  0.00  0.00    +0.000 OA
BRANCH  34  36
ATOM     36  O   UNL     1      -0.466  10.317  21.918  0.00  0.00    +0.000 OA
ATOM     37  H   UNL     1       0.018  10.773  21.200  0.00  0.00    +0.000 HD
ENDBRANCH  34  36
ENDBRANCH  33  34
ENDBRANCH  32  33
ENDBRANCH   6  32
TORSDOF 12
ENDMDL
MODEL 6
REMARK VINA RESULT:      -8.2      0.690      1.671
REMARK  Name = 
REMARK  14 active torsions:
REMARK  status: ('A' for Active; 'I' for Inactive)
REMARK    1  A    between atoms: C_1  and  C_2
REMARK    2  A    between atoms: C_2  and  C_3
REMARK    3  A    between atoms: C_2  and  C_4
REMARK    4  A    between atoms: C_4  and  C_5
REMARK    5  A    between atoms: C_5  and  N_6
REMARK    6  A    between atoms: C_5  and  C_28
REMARK    7  A    between atoms: C_7  and  C_9
REMARK    8  A    between atoms: C_11  and  C_12
REMARK    9  A    between atoms: C_12  and  O_13
REMARK   10  A    between atoms: O_13  and  C_14
REMARK   11  A    between atoms: C_22  and  C_23
REMARK   12  A    between atoms: C_23  and  C_24
REMARK   13  A    between atoms: C_24  and  C_25
REMARK   14  A    between atoms: C_25  and  O_27
REMARK                            x       y       z     vdW  Elec       q    Type
REMARK                         _______ _______ _______ _____ _____    ______ ____
ROOT
ATOM      1  C   UNL     1       2.773   6.736  18.755  0.00  0.00    +0.000 A 
ATOM      2  C   UNL     1       3.710   7.138  17.772  0.00  0.00    +0.000 A 
ATOM      3  C   UNL     1       4.348   6.205  16.933  0.00  0.00    +0.000 A 
ATOM      4  C   UNL     1       4.099   4.849  17.136  0.00  0.00    +0.000 A 
ATOM      5  C   UNL     1       3.194   4.431  18.107  0.00  0.00    +0.000 A 
ATOM      6  C   UNL     1       2.491   5.355  18.908  0.00  0.00    +0.000 A 
ENDROOT
BRANCH   1   8
ATOM      7  N   UNL     1       1.403   8.807  18.855  0.00  0.00    +0.000 N 
ATOM      8  C   UNL     1       2.040   7.788  19.547  0.00  0.00    +0.000 C 
ATOM      9  O   UNL     1       2.014   7.726  20.770  0.00  0.00    +0.000 OA
ATOM     10  H   UNL     1       1.500   8.869  17.855  0.00  0.00    +0.000 HD
BRANCH   7  11
ATOM     11  C   UNL     1       0.723   9.925  19.507  0.00  0.00    +0.000 C 
BRANCH  11  12
ATOM     12  C   UNL     1       1.397  11.268  19.221  0.00  0.00    +0.000 A 
ATOM     13  C   UNL     1       2.179  11.445  18.063  0.00  0.00    +0.000 A 
ATOM     14  C   UNL     1       2.869  12.647  17.843  0.00  0.00    +0.000 A 
ATOM     15  C   UNL     1       2.772  13.681  18.766  0.00  0.00    +0.000 A 
ATOM     16  F   UNL     1       3.454  14.816  18.566  0.00  0.00    +0.000 F 
ATOM     17  C   UNL     1       1.981  13.533  19.897  0.00  0.00    +0.000 A 
ATOM     18  F   UNL     1       1.885  14.525  20.792  0.00  0.00    +0.000 F 
ATOM     19  C   UNL     1       1.294  12.346  20.120  0.00  0.00    +0.000 A 
ENDBRANCH  11  12
BRANCH  11  20
ATOM     20  C   UNL     1      -0.817   9.957  19.268  0.00  0.00    +0.000 C 
BRANCH  20  22
ATOM     21  C   UNL     1      -2.007   9.833  17.027  0.00  0.00    +0.000 C 
ATOM     22  C   UNL     1      -1.290  10.736  18.026  0.00  0.00    +0.000 C 
ATOM     23  C   UNL     1      -2.249  11.871  18.418  0.00  0.00    +0.000 C 
ENDBRANCH  20  22
ENDBRANCH  11  20
ENDBRANCH   7  11
ENDBRANCH   1   8
BRANCH   3  24
ATOM     24  C   UNL     1       5.248   6.657  15.801  0.00  0.00    +0.000 C 
BRANCH  24  25
ATOM     25  O   UNL     1       6.345   5.755  15.674  0.00  0.00    +0.000 OA
BRANCH  25  26
ATOM     26  C   UNL     1       6.446   5.091  14.478  0.00  0.00    +0.000 A 
ATOM     27  C   UNL     1       7.553   5.443  13.704  0.00  0.00    +0.000 A 
ATOM     28  C   UNL     1       7.778   4.841  12.463  0.00  0.00    +0.000 A 
ATOM     29  C   UNL     1       6.906   3.860  11.999  0.00  0.00    +0.000 A 
ATOM     30  C   UNL     1       5.815   3.481  12.780  0.00  0.00    +0.000 A 
ATOM     31  C   UNL     1       5.583   4.092  14.019  0.00  0.00    +0.000 A 
ENDBRANCH  25  26
ENDBRANCH  24  25
ENDBRANCH   3  24
BRANCH   6  32
ATOM     32  C   UNL     1       1.471   4.758  19.871  0.00  0.00    +0.000 C 
BRANCH  32  33
ATOM     33  C   UNL     1       1.986   4.448  21.279  0.00  0.00    +0.000 C 
BRANCH  33  34
ATOM     34  C   UNL     1       2.201   2.984  21.609  0.00  0.00    +0.000 C 
ATOM     35  O   UNL     1       1.449   2.299  22.283  0.00  0.00    +0.000 OA
BRANCH  34  36
ATOM     36  O   UNL     1       3.302   2.477  20.997  0.00  0.00    +0.000 OA
ATOM     37  H   UNL     1       3.508   1.554  21.247  0.00  0.00    +0.000 HD
ENDBRANCH  34  36
ENDBRANCH  33  34
ENDBRANCH  32  33
ENDBRANCH   6  32
TORSDOF 12
ENDMDL
MODEL 7
REMARK VINA RESULT:      -8.2      3.345      5.255
REMARK  Name = 
REMARK  14 active torsions:
REMARK  status: ('A' for Active; 'I' for Inactive)
REMARK    1  A    between atoms: C_1  and  C_2
REMARK    2  A    between atoms: C_2  and  C_3
REMARK    3  A    between atoms: C_2  and  C_4
REMARK    4  A    between atoms: C_4  and  C_5
REMARK    5  A    between atoms: C_5  and  N_6
REMARK    6  A    between atoms: C_5  and  C_28
REMARK    7  A    between atoms: C_7  and  C_9
REMARK    8  A    between atoms: C_11  and  C_12
REMARK    9  A    between atoms: C_12  and  O_13
REMARK   10  A    between atoms: O_13  and  C_14
REMARK   11  A    between atoms: C_22  and  C_23
REMARK   12  A    between atoms: C_23  and  C_24
REMARK   13  A    between atoms: C_24  and  C_25
REMARK   14  A    between atoms: C_25  and  O_27
REMARK                            x       y       z     vdW  Elec       q    Type
REMARK                         _______ _______ _______ _____ _____    ______ ____
ROOT
ATOM      1  C   UNL     1       1.753   8.355  18.893  0.00  0.00    +0.000 A 
ATOM      2  C   UNL     1       2.119   7.265  18.067  0.00  0.00    +0.000 A 
ATOM      3  C   UNL     1       2.375   5.986  18.598  0.00  0.00    +0.000 A 
ATOM      4  C   UNL     1       2.336   5.822  19.981  0.00  0.00    +0.000 A 
ATOM      5  C   UNL     1       1.994   6.883  20.814  0.00  0.00    +0.000 A 
ATOM      6  C   UNL     1       1.664   8.152  20.294  0.00  0.00    +0.000 A 
ENDROOT
BRANCH   1   8
ATOM      7  N   UNL     1       0.190  10.269  18.631  0.00  0.00    +0.000 N 
ATOM      8  C   UNL     1       1.384   9.670  18.258  0.00  0.00    +0.000 C 
ATOM      9  O   UNL     1       2.134  10.186  17.438  0.00  0.00    +0.000 OA
ATOM     10  H   UNL     1      -0.437   9.787  19.255  0.00  0.00    +0.000 HD
BRANCH   7  11
ATOM     11  C   UNL     1      -0.316  11.504  18.035  0.00  0.00    +0.000 C 
BRANCH  11  12
ATOM     12  C   UNL     1      -1.830  11.474  17.821  0.00  0.00    +0.000 A 
ATOM     13  C   UNL     1      -2.708  11.852  18.857  0.00  0.00    +0.000 A 
ATOM     14  C   UNL     1      -4.097  11.742  18.693  0.00  0.00    +0.000 A 
ATOM     15  C   UNL     1      -4.618  11.270  17.495  0.00  0.00    +0.000 A 
ATOM     16  F   UNL     1      -5.943  11.141  17.352  0.00  0.00    +0.000 F 
ATOM     17  C   UNL     1      -3.768  10.922  16.454  0.00  0.00    +0.000 A 
ATOM     18  F   UNL     1      -4.264  10.464  15.297  0.00  0.00    +0.000 F 
ATOM     19  C   UNL     1      -2.392  11.030  16.609  0.00  0.00    +0.000 A 
ENDBRANCH  11  12
BRANCH  11  20
ATOM     20  C   UNL     1       0.168  12.799  18.754  0.00  0.00    +0.000 C 
BRANCH  20  22
ATOM     21  C   UNL     1       2.080  13.116  20.396  0.00  0.00    +0.000 C 
ATOM     22  C   UNL     1       0.648  12.625  20.207  0.00  0.00    +0.000 C 
ATOM     23  C   UNL     1      -0.254  13.397  21.183  0.00  0.00    +0.000 C 
ENDBRANCH  20  22
ENDBRANCH  11  20
ENDBRANCH   7  11
ENDBRANCH   1   8
BRANCH   3  24
ATOM     24  C   UNL     1       2.639   4.801  17.692  0.00  0.00    +0.000 C 
BRANCH  24  25
ATOM     25  O   UNL     1       3.847   4.157  18.088  0.00  0.00    +0.000 OA
BRANCH  25  26
ATOM     26  C   UNL     1       4.996   4.896  17.959  0.00  0.00    +0.000 A 
ATOM     27  C   UNL     1       5.796   4.940  19.102  0.00  0.00    +0.000 A 
ATOM     28  C   UNL     1       6.997   5.655  19.108  0.00  0.00    +0.000 A 
ATOM     29  C   UNL     1       7.418   6.313  17.955  0.00  0.00    +0.000 A 
ATOM     30  C   UNL     1       6.639   6.248  16.800  0.00  0.00    +0.000 A 
ATOM     31  C   UNL     1       5.430   5.540  16.798  0.00  0.00    +0.000 A 
ENDBRANCH  25  26
ENDBRANCH  24  25
ENDBRANCH   3  24
BRANCH   6  32
ATOM     32  C   UNL     1       1.229   9.195  21.317  0.00  0.00    +0.000 C 
BRANCH  32  33
ATOM     33  C   UNL     1      -0.094   8.914  22.034  0.00  0.00    +0.000 C 
BRANCH  33  34
ATOM     34  C   UNL     1      -0.335   9.676  23.323  0.00  0.00    +0.000 C 
ATOM     35  O   UNL     1       0.318   9.548  24.346  0.00  0.00    +0.000 OA
BRANCH  34  36
ATOM     36  O   UNL     1      -1.325  10.597  23.197  0.00  0.00    +0.000 OA
ATOM     37  H   UNL     1      -2.097  10.285  22.684  0.00  0.00    +0.000 HD
ENDBRANCH  34  36
ENDBRANCH  33  34
ENDBRANCH  32  33
ENDBRANCH   6  32
TORSDOF 12
ENDMDL
MODEL 8
REMARK VINA RESULT:      -8.1      3.738      9.027
REMARK  Name = 
REMARK  14 active torsions:
REMARK  status: ('A' for Active; 'I' for Inactive)
REMARK    1  A    between atoms: C_1  and  C_2
REMARK    2  A    between atoms: C_2  and  C_3
REMARK    3  A    between atoms: C_2  and  C_4
REMARK    4  A    between atoms: C_4  and  C_5
REMARK    5  A    between atoms: C_5  and  N_6
REMARK    6  A    between atoms: C_5  and  C_28
REMARK    7  A    between atoms: C_7  and  C_9
REMARK    8  A    between atoms: C_11  and  C_12
REMARK    9  A    between atoms: C_12  and  O_13
REMARK   10  A    between atoms: O_13  and  C_14
REMARK   11  A    between atoms: C_22  and  C_23
REMARK   12  A    between atoms: C_23  and  C_24
REMARK   13  A    between atoms: C_24  and  C_25
REMARK   14  A    between atoms: C_25  and  O_27
REMARK                            x       y       z     vdW  Elec       q    Type
REMARK                         _______ _______ _______ _____ _____    ______ ____
ROOT
ATOM      1  C   UNL     1       3.044   5.769  18.485  0.00  0.00    +0.000 A 
ATOM      2  C   UNL     1       2.612   6.762  19.398  0.00  0.00    +0.000 A 
ATOM      3  C   UNL     1       1.633   6.494  20.374  0.00  0.00    +0.000 A 
ATOM      4  C   UNL     1       1.028   5.239  20.381  0.00  0.00    +0.000 A 
ATOM      5  C   UNL     1       1.426   4.254  19.483  0.00  0.00    +0.000 A 
ATOM      6  C   UNL     1       2.456   4.480  18.545  0.00  0.00    +0.000 A 
ENDROOT
BRANCH   1   8
ATOM      7  N   UNL     1       5.333   5.327  17.624  0.00  0.00    +0.000 N 
ATOM      8  C   UNL     1       4.172   6.082  17.537  0.00  0.00    +0.000 C 
ATOM      9  O   UNL     1       4.049   6.979  16.712  0.00  0.00    +0.000 OA
ATOM     10  H   UNL     1       5.430   4.643  18.357  0.00  0.00    +0.000 HD
BRANCH   7  11
ATOM     11  C   UNL     1       6.524   5.578  16.815  0.00  0.00    +0.000 C 
BRANCH  11  12
ATOM     12  C   UNL     1       6.411   4.991  15.407  0.00  0.00    +0.000 A 
ATOM     13  C   UNL     1       5.448   4.004  15.117  0.00  0.00    +0.000 A 
ATOM     14  C   UNL     1       5.400   3.401  13.852  0.00  0.00    +0.000 A 
ATOM     15  C   UNL     1       6.301   3.786  12.866  0.00  0.00    +0.000 A 
ATOM     16  F   UNL     1       6.269   3.189  11.668  0.00  0.00    +0.000 F 
ATOM     17  C   UNL     1       7.235   4.778  13.126  0.00  0.00    +0.000 A 
ATOM     18  F   UNL     1       8.108   5.153  12.181  0.00  0.00    +0.000 F 
ATOM     19  C   UNL     1       7.287   5.381  14.377  0.00  0.00    +0.000 A 
ENDBRANCH  11  12
BRANCH  11  20
ATOM     20  C   UNL     1       6.986   7.067  16.813  0.00  0.00    +0.000 C 
BRANCH  20  22
ATOM     21  C   UNL     1       8.238   6.599  18.974  0.00  0.00    +0.000 C 
ATOM     22  C   UNL     1       7.452   7.630  18.169  0.00  0.00    +0.000 C 
ATOM     23  C   UNL     1       8.344   8.867  17.976  0.00  0.00    +0.000 C 
ENDBRANCH  20  22
ENDBRANCH  11  20
ENDBRANCH   7  11
ENDBRANCH   1   8
BRANCH   3  24
ATOM     24  C   UNL     1       1.275   7.524  21.426  0.00  0.00    +0.000 C 
BRANCH  24  25
ATOM     25  O   UNL     1       1.290   8.825  20.844  0.00  0.00    +0.000 OA
BRANCH  25  26
ATOM     26  C   UNL     1       0.396   9.729  21.361  0.00  0.00    +0.000 A 
ATOM     27  C   UNL     1      -0.137  10.623  20.430  0.00  0.00    +0.000 A 
ATOM     28  C   UNL     1      -1.061  11.595  20.821  0.00  0.00    +0.000 A 
ATOM     29  C   UNL     1      -1.478  11.663  22.148  0.00  0.00    +0.000 A 
ATOM     30  C   UNL     1      -0.973  10.754  23.077  0.00  0.00    +0.000 A 
ATOM     31  C   UNL     1      -0.038   9.786  22.687  0.00  0.00    +0.000 A 
ENDBRANCH  25  26
ENDBRANCH  24  25
ENDBRANCH   3  24
BRANCH   6  32
ATOM     32  C   UNL     1       2.842   3.285  17.682  0.00  0.00    +0.000 C 
BRANCH  32  33
ATOM     33  C   UNL     1       3.617   2.173  18.392  0.00  0.00    +0.000 C 
BRANCH  33  34
ATOM     34  C   UNL     1       4.411   2.584  19.617  0.00  0.00    +0.000 C 
ATOM     35  O   UNL     1       5.425   3.263  19.601  0.00  0.00    +0.000 OA
BRANCH  34  36
ATOM     36  O   UNL     1       3.821   2.177  20.771  0.00  0.00    +0.000 OA
ATOM     37  H   UNL     1       2.885   1.912  20.668  0.00  0.00    +0.000 HD
ENDBRANCH  34  36
ENDBRANCH  33  34
ENDBRANCH  32  33
ENDBRANCH   6  32
TORSDOF 12
ENDMDL
MODEL 9
REMARK VINA RESULT:      -8.1      3.628      5.279
REMARK  Name = 
REMARK  14 active torsions:
REMARK  status: ('A' for Active; 'I' for Inactive)
REMARK    1  A    between atoms: C_1  and  C_2
REMARK    2  A    between atoms: C_2  and  C_3
REMARK    3  A    between atoms: C_2  and  C_4
REMARK    4  A    between atoms: C_4  and  C_5
REMARK    5  A    between atoms: C_5  and  N_6
REMARK    6  A    between atoms: C_5  and  C_28
REMARK    7  A    between atoms: C_7  and  C_9
REMARK    8  A    between atoms: C_11  and  C_12
REMARK    9  A    between atoms: C_12  and  O_13
REMARK   10  A    between atoms: O_13  and  C_14
REMARK   11  A    between atoms: C_22  and  C_23
REMARK   12  A    between atoms: C_23  and  C_24
REMARK   13  A    between atoms: C_24  and  C_25
REMARK   14  A    between atoms: C_25  and  O_27
REMARK                            x       y       z     vdW  Elec       q    Type
REMARK                         _______ _______ _______ _____ _____    ______ ____
ROOT
ATOM      1  C   UNL     1       1.758   8.276  18.907  0.00  0.00    +0.000 A 
ATOM      2  C   UNL     1       2.573   7.383  18.170  0.00  0.00    +0.000 A 
ATOM      3  C   UNL     1       2.857   6.085  18.636  0.00  0.00    +0.000 A 
ATOM      4  C   UNL     1       2.381   5.710  19.890  0.00  0.00    +0.000 A 
ATOM      5  C   UNL     1       1.592   6.578  20.639  0.00  0.00    +0.000 A 
ATOM      6  C   UNL     1       1.237   7.855  20.157  0.00  0.00    +0.000 A 
ENDROOT
BRANCH   1   8
ATOM      7  N   UNL     1       0.254  10.249  18.762  0.00  0.00    +0.000 N 
ATOM      8  C   UNL     1       1.399   9.611  18.308  0.00  0.00    +0.000 C 
ATOM      9  O   UNL     1       2.113  10.108  17.446  0.00  0.00    +0.000 OA
ATOM     10  H   UNL     1      -0.349   9.784  19.421  0.00  0.00    +0.000 HD
BRANCH   7  11
ATOM     11  C   UNL     1      -0.243  11.508  18.210  0.00  0.00    +0.000 C 
BRANCH  11  12
ATOM     12  C   UNL     1      -1.752  11.484  17.962  0.00  0.00    +0.000 A 
ATOM     13  C   UNL     1      -2.651  11.895  18.967  0.00  0.00    +0.000 A 
ATOM     14  C   UNL     1      -4.036  11.792  18.773  0.00  0.00    +0.000 A 
ATOM     15  C   UNL     1      -4.534  11.292  17.576  0.00  0.00    +0.000 A 
ATOM     16  F   UNL     1      -5.856  11.169  17.406  0.00  0.00    +0.000 F 
ATOM     17  C   UNL     1      -3.663  10.911  16.565  0.00  0.00    +0.000 A 
ATOM     18  F   UNL     1      -4.135  10.426  15.409  0.00  0.00    +0.000 F 
ATOM     19  C   UNL     1      -2.289  11.012  16.749  0.00  0.00    +0.000 A 
ENDBRANCH  11  12
BRANCH  11  20
ATOM     20  C   UNL     1       0.220  12.771  18.996  0.00  0.00    +0.000 C 
BRANCH  20  22
ATOM     21  C   UNL     1       2.212  13.184  20.517  0.00  0.00    +0.000 C 
ATOM     22  C   UNL     1       0.850  12.513  20.378  0.00  0.00    +0.000 C 
ATOM     23  C   UNL     1      -0.057  13.035  21.504  0.00  0.00    +0.000 C 
ENDBRANCH  20  22
ENDBRANCH  11  20
ENDBRANCH   7  11
ENDBRANCH   1   8
BRANCH   3  24
ATOM     24  C   UNL     1       3.621   5.096  17.778  0.00  0.00    +0.000 C 
BRANCH  24  25
ATOM     25  O   UNL     1       4.576   5.793  16.982  0.00  0.00    +0.000 OA
BRANCH  25  26
ATOM     26  C   UNL     1       5.776   6.075  17.586  0.00  0.00    +0.000 A 
ATOM     27  C   UNL     1       6.403   7.235  17.128  0.00  0.00    +0.000 A 
ATOM     28  C   UNL     1       7.630   7.641  17.659  0.00  0.00    +0.000 A 
ATOM     29  C   UNL     1       8.227   6.898  18.674  0.00  0.00    +0.000 A 
ATOM     30  C   UNL     1       7.592   5.755  19.157  0.00  0.00    +0.000 A 
ATOM     31  C   UNL     1       6.367   5.342  18.617  0.00  0.00    +0.000 A 
ENDBRANCH  25  26
ENDBRANCH  24  25
ENDBRANCH   3  24
BRANCH   6  32
ATOM     32  C   UNL     1       0.300   8.663  21.048  0.00  0.00    +0.000 C 
BRANCH  32  33
ATOM     33  C   UNL     1       0.944   9.318  22.273  0.00  0.00    +0.000 C 
BRANCH  33  34
ATOM     34  C   UNL     1       0.006   9.701  23.401  0.00  0.00    +0.000 C 
ATOM     35  O   UNL     1      -1.099  10.198  23.255  0.00  0.00    +0.000 OA
BRANCH  34  36
ATOM     36  O   UNL     1       0.497   9.352  24.617  0.00  0.00    +0.000 OA
ATOM     37  H   UNL     1       0.569   8.387  24.757  0.00  0.00    +0.000 HD
ENDBRANCH  34  36
ENDBRANCH  33  34
ENDBRANCH  32  33
ENDBRANCH   6  32
TORSDOF 12
ENDMDL
