MODEL 1
REMARK VINA RESULT:      -9.2      0.000      0.000
REMARK  Name = 
REMARK  8 active torsions:
REMARK  status: ('A' for Active; 'I' for Inactive)
REMARK    1  A    between atoms: C_1  and  O_2
REMARK    2  A    between atoms: O_2  and  C_3
REMARK    3  A    between atoms: N_9  and  C_10
REMARK    4  A    between atoms: C_10  and  C_11
REMARK    5  A    between atoms: C_11  and  C_12
REMARK    6  A    between atoms: C_12  and  C_13
REMARK    7  A    between atoms: C_14  and  C_15
REMARK    8  A    between atoms: C_22  and  C_23
REMARK                            x       y       z     vdW  Elec       q    Type
REMARK                         _______ _______ _______ _____ _____    ______ ____
ROOT
ATOM      1  C   UNL     1       2.541   8.429  17.827  0.00  0.00    +0.000 C 
ATOM      2  C   UNL     1       2.408   7.098  17.917  0.00  0.00    +0.000 C 
ENDROOT
BRANCH   2   3
ATOM      3  C   UNL     1       3.551   6.177  17.893  0.00  0.00    +0.000 A 
ATOM      4  C   UNL     1       4.489   6.324  16.857  0.00  0.00    +0.000 A 
ATOM      5  C   UNL     1       5.536   5.412  16.702  0.00  0.00    +0.000 A 
ATOM      6  C   UNL     1       5.666   4.342  17.580  0.00  0.00    +0.000 A 
ATOM      7  C   UNL     1       4.755   4.207  18.624  0.00  0.00    +0.000 A 
ATOM      8  C   UNL     1       3.687   5.115  18.810  0.00  0.00    +0.000 A 
ATOM      9  N   UNL     1       2.731   4.882  19.840  0.00  0.00    +0.000 N 
ATOM     10  C   UNL     1       1.931   3.640  19.706  0.00  0.00    +0.000 C 
ATOM     11  C   UNL     1       1.321   3.471  18.312  0.00  0.00    +0.000 C 
ATOM     12  C   UNL     1       2.686   2.397  20.189  0.00  0.00    +0.000 C 
ATOM     13  C   UNL     1       3.936   2.148  19.375  0.00  0.00    +0.000 C 
ATOM     14  O   UNL     1       4.051   1.194  18.611  0.00  0.00    +0.000 OA
ATOM     15  N   UNL     1       4.900   3.137  19.549  0.00  0.00    +0.000 N 
ATOM     16  H   UNL     1       2.125   5.700  19.925  0.00  0.00    +0.000 HD
ATOM     17  H   UNL     1       4.721   3.556  20.460  0.00  0.00    +0.000 HD
ENDBRANCH   2   3
BRANCH   1  18
ATOM     18  C   UNL     1       1.371   9.373  17.826  0.00  0.00    +0.000 C 
BRANCH  18  19
ATOM     19  C   UNL     1       1.299  10.153  19.141  0.00  0.00    +0.000 C 
BRANCH  19  20
ATOM     20  C   UNL     1       0.555  11.487  19.028  0.00  0.00    +0.000 C 
BRANCH  20  27
ATOM     21  C   UNL     1      -2.854  10.311  16.589  0.00  0.00    +0.000 A 
ATOM     22  C   UNL     1      -4.079  10.896  16.883  0.00  0.00    +0.000 A 
ATOM     23  C   UNL     1      -4.233  11.636  18.053  0.00  0.00    +0.000 A 
ATOM     24  C   UNL     1      -3.151  11.815  18.933  0.00  0.00    +0.000 A 
ATOM     25  C   UNL     1      -1.895  11.246  18.642  0.00  0.00    +0.000 A 
ATOM     26  C   UNL     1      -1.776  10.506  17.454  0.00  0.00    +0.000 A 
ATOM     27  N   UNL     1      -0.821  11.387  19.520  0.00  0.00    +0.000 N 
ATOM     28  C   UNL     1      -1.109  11.837  20.881  0.00  0.00    +0.000 C 
ATOM     29  C   UNL     1      -2.063  13.018  20.860  0.00  0.00    +0.000 C 
ATOM     30  C   UNL     1      -3.372  12.609  20.196  0.00  0.00    +0.000 C 
BRANCH  21  32
ATOM     31  C   UNL     1      -3.481  10.168  14.317  0.00  0.00    +0.000 C 
ATOM     32  O   UNL     1      -2.801   9.588  15.427  0.00  0.00    +0.000 OA
ENDBRANCH  21  32
ENDBRANCH  20  27
ENDBRANCH  19  20
ENDBRANCH  18  19
ENDBRANCH   1  18
TORSDOF 6
ENDMDL
MODEL 2
REMARK VINA RESULT:      -9.1      0.947      1.340
REMARK  Name = 
REMARK  8 active torsions:
REMARK  status: ('A' for Active; 'I' for Inactive)
REMARK    1  A    between atoms: C_1  and  O_2
REMARK    2  A    between atoms: O_2  and  C_3
REMARK    3  A    between atoms: N_9  and  C_10
REMARK    4  A    between atoms: C_10  and  C_11
REMARK    5  A    between atoms: C_11  and  C_12
REMARK    6  A    between atoms: C_12  and  C_13
REMARK    7  A    between atoms: C_14  and  C_15
REMARK    8  A    between atoms: C_22  and  C_23
REMARK                            x       y       z     vdW  Elec       q    Type
REMARK                         _______ _______ _______ _____ _____    ______ ____
ROOT
ATOM      1  C   UNL     1       2.237   8.332  17.661  0.00  0.00    +0.000 C 
ATOM      2  C   UNL     1       2.744   7.478  18.560  0.00  0.00    +0.000 C 
ENDROOT
BRANCH   2   3
ATOM      3  C   UNL     1       3.698   6.418  18.208  0.00  0.00    +0.000 A 
ATOM      4  C   UNL     1       4.307   6.481  16.944  0.00  0.00    +0.000 A 
ATOM      5  C   UNL     1       5.134   5.448  16.492  0.00  0.00    +0.000 A 
ATOM      6  C   UNL     1       5.368   4.340  17.298  0.00  0.00    +0.000 A 
ATOM      7  C   UNL     1       4.787   4.285  18.562  0.00  0.00    +0.000 A 
ATOM      8  C   UNL     1       3.949   5.316  19.048  0.00  0.00    +0.000 A 
ATOM      9  N   UNL     1       3.309   5.170  20.313  0.00  0.00    +0.000 N 
ATOM     10  C   UNL     1       2.347   4.047  20.420  0.00  0.00    +0.000 C 
ATOM     11  C   UNL     1       1.343   4.008  19.265  0.00  0.00    +0.000 C 
ATOM     12  C   UNL     1       3.036   2.701  20.666  0.00  0.00    +0.000 C 
ATOM     13  C   UNL     1       3.953   2.322  19.525  0.00  0.00    +0.000 C 
ATOM     14  O   UNL     1       3.714   1.391  18.763  0.00  0.00    +0.000 OA
ATOM     15  N   UNL     1       5.048   3.173  19.408  0.00  0.00    +0.000 N 
ATOM     16  H   UNL     1       2.868   6.056  20.568  0.00  0.00    +0.000 HD
ATOM     17  H   UNL     1       5.198   3.578  20.331  0.00  0.00    +0.000 HD
ENDBRANCH   2   3
BRANCH   1  18
ATOM     18  C   UNL     1       1.241   9.402  18.015  0.00  0.00    +0.000 C 
BRANCH  18  19
ATOM     19  C   UNL     1       1.096   9.531  19.533  0.00  0.00    +0.000 C 
BRANCH  19  20
ATOM     20  C   UNL     1       0.805  10.958  20.007  0.00  0.00    +0.000 C 
BRANCH  20  27
ATOM     21  C   UNL     1      -3.072  11.530  18.110  0.00  0.00    +0.000 A 
ATOM     22  C   UNL     1      -4.019  12.270  18.808  0.00  0.00    +0.000 A 
ATOM     23  C   UNL     1      -3.799  12.597  20.144  0.00  0.00    +0.000 A 
ATOM     24  C   UNL     1      -2.613  12.203  20.789  0.00  0.00    +0.000 A 
ATOM     25  C   UNL     1      -1.631  11.471  20.094  0.00  0.00    +0.000 A 
ATOM     26  C   UNL     1      -1.887  11.157  18.748  0.00  0.00    +0.000 A 
ATOM     27  N   UNL     1      -0.466  11.045  20.729  0.00  0.00    +0.000 N 
ATOM     28  C   UNL     1      -0.437  11.078  22.190  0.00  0.00    +0.000 C 
ATOM     29  C   UNL     1      -0.987  12.397  22.704  0.00  0.00    +0.000 C 
ATOM     30  C   UNL     1      -2.429  12.565  22.242  0.00  0.00    +0.000 C 
BRANCH  21  32
ATOM     31  C   UNL     1      -2.722  10.098  16.266  0.00  0.00    +0.000 C 
ATOM     32  O   UNL     1      -3.380  11.241  16.807  0.00  0.00    +0.000 OA
ENDBRANCH  21  32
ENDBRANCH  20  27
ENDBRANCH  19  20
ENDBRANCH  18  19
ENDBRANCH   1  18
TORSDOF 6
ENDMDL
MODEL 3
REMARK VINA RESULT:      -9.0      2.386      3.311
REMARK  Name = 
REMARK  8 active torsions:
REMARK  status: ('A' for Active; 'I' for Inactive)
REMARK    1  A    between atoms: C_1  and  O_2
REMARK    2  A    between atoms: O_2  and  C_3
REMARK    3  A    between atoms: N_9  and  C_10
REMARK    4  A    between atoms: C_10  and  C_11
REMARK    5  A    between atoms: C_11  and  C_12
REMARK    6  A    between atoms: C_12  and  C_13
REMARK    7  A    between atoms: C_14  and  C_15
REMARK    8  A    between atoms: C_22  and  C_23
REMARK                            x       y       z     vdW  Elec       q    Type
REMARK                         _______ _______ _______ _____ _____    ______ ____
ROOT
ATOM      1  C   UNL     1       2.288   8.315  17.572  0.00  0.00    +0.000 C 
ATOM      2  C   UNL     1       2.584   7.348  18.451  0.00  0.00    +0.000 C 
ENDROOT
BRANCH   2   3
ATOM      3  C   UNL     1       3.638   6.352  18.220  0.00  0.00    +0.000 A 
ATOM      4  C   UNL     1       4.383   6.451  17.033  0.00  0.00    +0.000 A 
ATOM      5  C   UNL     1       5.320   5.473  16.689  0.00  0.00    +0.000 A 
ATOM      6  C   UNL     1       5.531   4.383  17.527  0.00  0.00    +0.000 A 
ATOM      7  C   UNL     1       4.814   4.294  18.717  0.00  0.00    +0.000 A 
ATOM      8  C   UNL     1       3.862   5.269  19.094  0.00  0.00    +0.000 A 
ATOM      9  N   UNL     1       3.092   5.086  20.279  0.00  0.00    +0.000 N 
ATOM     10  C   UNL     1       2.198   3.903  20.287  0.00  0.00    +0.000 C 
ATOM     11  C   UNL     1       1.337   3.796  19.025  0.00  0.00    +0.000 C 
ATOM     12  C   UNL     1       2.939   2.605  20.622  0.00  0.00    +0.000 C 
ATOM     13  C   UNL     1       4.003   2.284  19.597  0.00  0.00    +0.000 C 
ATOM     14  O   UNL     1       3.913   1.337  18.822  0.00  0.00    +0.000 OA
ATOM     15  N   UNL     1       5.048   3.204  19.597  0.00  0.00    +0.000 N 
ATOM     16  H   UNL     1       2.569   5.942  20.473  0.00  0.00    +0.000 HD
ATOM     17  H   UNL     1       5.065   3.619  20.527  0.00  0.00    +0.000 HD
ENDBRANCH   2   3
BRANCH   1  18
ATOM     18  C   UNL     1       1.193   9.321  17.795  0.00  0.00    +0.000 C 
BRANCH  18  19
ATOM     19  C   UNL     1       1.526  10.237  18.975  0.00  0.00    +0.000 C 
BRANCH  19  20
ATOM     20  C   UNL     1       0.401  11.210  19.338  0.00  0.00    +0.000 C 
BRANCH  20  27
ATOM     21  C   UNL     1      -2.699  13.513  21.349  0.00  0.00    +0.000 A 
ATOM     22  C   UNL     1      -2.882  13.284  22.707  0.00  0.00    +0.000 A 
ATOM     23  C   UNL     1      -2.258  12.199  23.320  0.00  0.00    +0.000 A 
ATOM     24  C   UNL     1      -1.424  11.343  22.578  0.00  0.00    +0.000 A 
ATOM     25  C   UNL     1      -1.209  11.570  21.205  0.00  0.00    +0.000 A 
ATOM     26  C   UNL     1      -1.856  12.672  20.619  0.00  0.00    +0.000 A 
ATOM     27  N   UNL     1      -0.412  10.712  20.449  0.00  0.00    +0.000 N 
ATOM     28  C   UNL     1      -0.085   9.406  21.023  0.00  0.00    +0.000 C 
ATOM     29  C   UNL     1       0.346   9.554  22.471  0.00  0.00    +0.000 C 
ATOM     30  C   UNL     1      -0.785  10.172  23.283  0.00  0.00    +0.000 C 
BRANCH  21  32
ATOM     31  C   UNL     1      -4.560  14.955  21.515  0.00  0.00    +0.000 C 
ATOM     32  O   UNL     1      -3.365  14.590  20.829  0.00  0.00    +0.000 OA
ENDBRANCH  21  32
ENDBRANCH  20  27
ENDBRANCH  19  20
ENDBRANCH  18  19
ENDBRANCH   1  18
TORSDOF 6
ENDMDL
MODEL 4
REMARK VINA RESULT:      -9.0      2.743      3.853
REMARK  Name = 
REMARK  8 active torsions:
REMARK  status: ('A' for Active; 'I' for Inactive)
REMARK    1  A    between atoms: C_1  and  O_2
REMARK    2  A    between atoms: O_2  and  C_3
REMARK    3  A    between atoms: N_9  and  C_10
REMARK    4  A    between atoms: C_10  and  C_11
REMARK    5  A    between atoms: C_11  and  C_12
REMARK    6  A    between atoms: C_12  and  C_13
REMARK    7  A    between atoms: C_14  and  C_15
REMARK    8  A    between atoms: C_22  and  C_23
REMARK                            x       y       z     vdW  Elec       q    Type
REMARK                         _______ _______ _______ _____ _____    ______ ____
ROOT
ATOM      1  C   UNL     1       2.325   8.496  17.729  0.00  0.00    +0.000 C 
ATOM      2  C   UNL     1       2.515   7.404  18.483  0.00  0.00    +0.000 C 
ENDROOT
BRANCH   2   3
ATOM      3  C   UNL     1       3.569   6.418  18.211  0.00  0.00    +0.000 A 
ATOM      4  C   UNL     1       4.257   6.516  16.990  0.00  0.00    +0.000 A 
ATOM      5  C   UNL     1       5.189   5.546  16.611  0.00  0.00    +0.000 A 
ATOM      6  C   UNL     1       5.451   4.466  17.447  0.00  0.00    +0.000 A 
ATOM      7  C   UNL     1       4.791   4.379  18.670  0.00  0.00    +0.000 A 
ATOM      8  C   UNL     1       3.846   5.346  19.083  0.00  0.00    +0.000 A 
ATOM      9  N   UNL     1       3.134   5.164  20.303  0.00  0.00    +0.000 N 
ATOM     10  C   UNL     1       2.255   3.971  20.362  0.00  0.00    +0.000 C 
ATOM     11  C   UNL     1       1.339   3.843  19.142  0.00  0.00    +0.000 C 
ATOM     12  C   UNL     1       3.026   2.684  20.673  0.00  0.00    +0.000 C 
ATOM     13  C   UNL     1       4.046   2.367  19.603  0.00  0.00    +0.000 C 
ATOM     14  O   UNL     1       3.932   1.412  18.840  0.00  0.00    +0.000 OA
ATOM     15  N   UNL     1       5.078   3.299  19.547  0.00  0.00    +0.000 N 
ATOM     16  H   UNL     1       2.610   6.015  20.515  0.00  0.00    +0.000 HD
ATOM     17  H   UNL     1       5.133   3.723  20.472  0.00  0.00    +0.000 HD
ENDBRANCH   2   3
BRANCH   1  18
ATOM     18  C   UNL     1       1.231   9.494  17.991  0.00  0.00    +0.000 C 
BRANCH  18  19
ATOM     19  C   UNL     1       0.941   9.606  19.489  0.00  0.00    +0.000 C 
BRANCH  19  20
ATOM     20  C   UNL     1      -0.091  10.682  19.840  0.00  0.00    +0.000 C 
BRANCH  20  27
ATOM     21  C   UNL     1      -2.243  12.348  23.238  0.00  0.00    +0.000 A 
ATOM     22  C   UNL     1      -1.984  13.672  23.568  0.00  0.00    +0.000 A 
ATOM     23  C   UNL     1      -0.913  14.339  22.978  0.00  0.00    +0.000 A 
ATOM     24  C   UNL     1      -0.100  13.688  22.032  0.00  0.00    +0.000 A 
ATOM     25  C   UNL     1      -0.359  12.352  21.668  0.00  0.00    +0.000 A 
ATOM     26  C   UNL     1      -1.447  11.710  22.284  0.00  0.00    +0.000 A 
ATOM     27  N   UNL     1       0.457  11.683  20.757  0.00  0.00    +0.000 N 
ATOM     28  C   UNL     1       1.759  12.273  20.449  0.00  0.00    +0.000 C 
ATOM     29  C   UNL     1       1.621  13.764  20.195  0.00  0.00    +0.000 C 
ATOM     30  C   UNL     1       1.059  14.447  21.435  0.00  0.00    +0.000 C 
BRANCH  21  32
ATOM     31  C   UNL     1      -4.398  12.641  24.156  0.00  0.00    +0.000 C 
ATOM     32  O   UNL     1      -3.305  11.768  23.879  0.00  0.00    +0.000 OA
ENDBRANCH  21  32
ENDBRANCH  20  27
ENDBRANCH  19  20
ENDBRANCH  18  19
ENDBRANCH   1  18
TORSDOF 6
ENDMDL
MODEL 5
REMARK VINA RESULT:      -9.0      7.252     10.939
REMARK  Name = 
REMARK  8 active torsions:
REMARK  status: ('A' for Active; 'I' for Inactive)
REMARK    1  A    between atoms: C_1  and  O_2
REMARK    2  A    between atoms: O_2  and  C_3
REMARK    3  A    between atoms: N_9  and  C_10
REMARK    4  A    between atoms: C_10  and  C_11
REMARK    5  A    between atoms: C_11  and  C_12
REMARK    6  A    between atoms: C_12  and  C_13
REMARK    7  A    between atoms: C_14  and  C_15
REMARK    8  A    between atoms: C_22  and  C_23
REMARK                            x       y       z     vdW  Elec       q    Type
REMARK                         _______ _______ _______ _____ _____    ______ ____
ROOT
ATOM      1  C   UNL     1       8.848   9.766  18.273  0.00  0.00    +0.000 C 
ATOM      2  C   UNL     1       8.891  11.089  18.070  0.00  0.00    +0.000 C 
ENDROOT
BRANCH   2   3
ATOM      3  C   UNL     1      10.019  11.927  18.497  0.00  0.00    +0.000 A 
ATOM      4  C   UNL     1      10.969  11.355  19.359  0.00  0.00    +0.000 A 
ATOM      5  C   UNL     1      12.003  12.124  19.900  0.00  0.00    +0.000 A 
ATOM      6  C   UNL     1      12.107  13.475  19.585  0.00  0.00    +0.000 A 
ATOM      7  C   UNL     1      11.183  14.040  18.711  0.00  0.00    +0.000 A 
ATOM      8  C   UNL     1      10.128  13.287  18.144  0.00  0.00    +0.000 A 
ATOM      9  N   UNL     1       9.158  13.934  17.325  0.00  0.00    +0.000 N 
ATOM     10  C   UNL     1       8.340  14.973  17.996  0.00  0.00    +0.000 C 
ATOM     11  C   UNL     1       7.741  14.497  19.322  0.00  0.00    +0.000 C 
ATOM     12  C   UNL     1       9.069  16.315  18.112  0.00  0.00    +0.000 C 
ATOM     13  C   UNL     1      10.324  16.203  18.949  0.00  0.00    +0.000 C 
ATOM     14  O   UNL     1      10.431  16.722  20.056  0.00  0.00    +0.000 OA
ATOM     15  N   UNL     1      11.301  15.411  18.354  0.00  0.00    +0.000 N 
ATOM     16  H   UNL     1       8.565  13.226  16.888  0.00  0.00    +0.000 HD
ATOM     17  H   UNL     1      11.120  15.435  17.352  0.00  0.00    +0.000 HD
ENDBRANCH   2   3
BRANCH   1  18
ATOM     18  C   UNL     1       7.682   8.909  17.859  0.00  0.00    +0.000 C 
BRANCH  18  19
ATOM     19  C   UNL     1       8.082   7.433  17.807  0.00  0.00    +0.000 C 
BRANCH  19  20
ATOM     20  C   UNL     1       7.043   6.490  18.419  0.00  0.00    +0.000 C 
BRANCH  20  27
ATOM     21  C   UNL     1       3.123   4.804  19.283  0.00  0.00    +0.000 A 
ATOM     22  C   UNL     1       2.688   3.759  18.477  0.00  0.00    +0.000 A 
ATOM     23  C   UNL     1       3.383   3.443  17.312  0.00  0.00    +0.000 A 
ATOM     24  C   UNL     1       4.537   4.162  16.953  0.00  0.00    +0.000 A 
ATOM     25  C   UNL     1       5.006   5.212  17.766  0.00  0.00    +0.000 A 
ATOM     26  C   UNL     1       4.280   5.503  18.934  0.00  0.00    +0.000 A 
ATOM     27  N   UNL     1       6.130   5.954  17.407  0.00  0.00    +0.000 N 
ATOM     28  C   UNL     1       6.603   5.847  16.027  0.00  0.00    +0.000 C 
ATOM     29  C   UNL     1       6.644   4.394  15.590  0.00  0.00    +0.000 C 
ATOM     30  C   UNL     1       5.245   3.794  15.672  0.00  0.00    +0.000 C 
BRANCH  21  32
ATOM     31  C   UNL     1       1.158   4.306  20.493  0.00  0.00    +0.000 C 
ATOM     32  O   UNL     1       2.368   5.054  20.398  0.00  0.00    +0.000 OA
ENDBRANCH  21  32
ENDBRANCH  20  27
ENDBRANCH  19  20
ENDBRANCH  18  19
ENDBRANCH   1  18
TORSDOF 6
ENDMDL
MODEL 6
REMARK VINA RESULT:      -8.9      1.690      2.844
REMARK  Name = 
REMARK  8 active torsions:
REMARK  status: ('A' for Active; 'I' for Inactive)
REMARK    1  A    between atoms: C_1  and  O_2
REMARK    2  A    between atoms: O_2  and  C_3
REMARK    3  A    between atoms: N_9  and  C_10
REMARK    4  A    between atoms: C_10  and  C_11
REMARK    5  A    between atoms: C_11  and  C_12
REMARK    6  A    between atoms: C_12  and  C_13
REMARK    7  A    between atoms: C_14  and  C_15
REMARK    8  A    between atoms: C_22  and  C_23
REMARK                            x       y       z     vdW  Elec       q    Type
REMARK                         _______ _______ _______ _____ _____    ______ ____
ROOT
ATOM      1  C   UNL     1       1.953   8.527  18.361  0.00  0.00    +0.000 C 
ATOM      2  C   UNL     1       2.939   7.861  17.745  0.00  0.00    +0.000 C 
ENDROOT
BRANCH   2   3
ATOM      3  C   UNL     1       3.420   6.548  18.195  0.00  0.00    +0.000 A 
ATOM      4  C   UNL     1       2.971   6.079  19.440  0.00  0.00    +0.000 A 
ATOM      5  C   UNL     1       3.476   4.895  19.986  0.00  0.00    +0.000 A 
ATOM      6  C   UNL     1       4.433   4.160  19.294  0.00  0.00    +0.000 A 
ATOM      7  C   UNL     1       4.861   4.608  18.048  0.00  0.00    +0.000 A 
ATOM      8  C   UNL     1       4.366   5.799  17.468  0.00  0.00    +0.000 A 
ATOM      9  N   UNL     1       4.902   6.259  16.230  0.00  0.00    +0.000 N 
ATOM     10  C   UNL     1       6.341   6.613  16.245  0.00  0.00    +0.000 C 
ATOM     11  C   UNL     1       6.718   7.536  17.407  0.00  0.00    +0.000 C 
ATOM     12  C   UNL     1       7.252   5.387  16.130  0.00  0.00    +0.000 C 
ATOM     13  C   UNL     1       7.070   4.440  17.295  0.00  0.00    +0.000 C 
ATOM     14  O   UNL     1       7.933   4.265  18.149  0.00  0.00    +0.000 OA
ATOM     15  N   UNL     1       5.811   3.846  17.316  0.00  0.00    +0.000 N 
ATOM     16  H   UNL     1       4.336   7.039  15.891  0.00  0.00    +0.000 HD
ATOM     17  H   UNL     1       5.471   3.859  16.356  0.00  0.00    +0.000 HD
ENDBRANCH   2   3
BRANCH   1  18
ATOM     18  C   UNL     1       1.475   9.883  17.918  0.00  0.00    +0.000 C 
BRANCH  18  19
ATOM     19  C   UNL     1       1.168  10.774  19.124  0.00  0.00    +0.000 C 
BRANCH  19  20
ATOM     20  C   UNL     1       0.198  11.918  18.815  0.00  0.00    +0.000 C 
BRANCH  20  27
ATOM     21  C   UNL     1      -2.925  10.722  16.028  0.00  0.00    +0.000 A 
ATOM     22  C   UNL     1      -4.225  11.112  16.324  0.00  0.00    +0.000 A 
ATOM     23  C   UNL     1      -4.522  11.650  17.574  0.00  0.00    +0.000 A 
ATOM     24  C   UNL     1      -3.511  11.823  18.535  0.00  0.00    +0.000 A 
ATOM     25  C   UNL     1      -2.182  11.453  18.248  0.00  0.00    +0.000 A 
ATOM     26  C   UNL     1      -1.919  10.913  16.977  0.00  0.00    +0.000 A 
ATOM     27  N   UNL     1      -1.175  11.588  19.201  0.00  0.00    +0.000 N 
ATOM     28  C   UNL     1      -1.578  11.798  20.591  0.00  0.00    +0.000 C 
ATOM     29  C   UNL     1      -2.669  12.850  20.676  0.00  0.00    +0.000 C 
ATOM     30  C   UNL     1      -3.886  12.393  19.881  0.00  0.00    +0.000 C 
BRANCH  21  32
ATOM     31  C   UNL     1      -3.912   9.994  14.011  0.00  0.00    +0.000 C 
ATOM     32  O   UNL     1      -2.730  10.188  14.782  0.00  0.00    +0.000 OA
ENDBRANCH  21  32
ENDBRANCH  20  27
ENDBRANCH  19  20
ENDBRANCH  18  19
ENDBRANCH   1  18
TORSDOF 6
ENDMDL
MODEL 7
REMARK VINA RESULT:      -8.9      3.274      8.697
REMARK  Name = 
REMARK  8 active torsions:
REMARK  status: ('A' for Active; 'I' for Inactive)
REMARK    1  A    between atoms: C_1  and  O_2
REMARK    2  A    between atoms: O_2  and  C_3
REMARK    3  A    between atoms: N_9  and  C_10
REMARK    4  A    between atoms: C_10  and  C_11
REMARK    5  A    between atoms: C_11  and  C_12
REMARK    6  A    between atoms: C_12  and  C_13
REMARK    7  A    between atoms: C_14  and  C_15
REMARK    8  A    between atoms: C_22  and  C_23
REMARK                            x       y       z     vdW  Elec       q    Type
REMARK                         _______ _______ _______ _____ _____    ______ ____
ROOT
ATOM      1  C   UNL     1       1.687   4.732  20.503  0.00  0.00    +0.000 C 
ATOM      2  C   UNL     1       1.819   6.013  20.871  0.00  0.00    +0.000 C 
ENDROOT
BRANCH   2   3
ATOM      3  C   UNL     1       1.789   7.127  19.914  0.00  0.00    +0.000 A 
ATOM      4  C   UNL     1       2.683   7.083  18.831  0.00  0.00    +0.000 A 
ATOM      5  C   UNL     1       2.794   8.160  17.948  0.00  0.00    +0.000 A 
ATOM      6  C   UNL     1       2.013   9.296  18.130  0.00  0.00    +0.000 A 
ATOM      7  C   UNL     1       1.108   9.334  19.187  0.00  0.00    +0.000 A 
ATOM      8  C   UNL     1       0.969   8.259  20.095  0.00  0.00    +0.000 A 
ATOM      9  N   UNL     1       0.092   8.384  21.211  0.00  0.00    +0.000 N 
ATOM     10  C   UNL     1       0.441   9.442  22.188  0.00  0.00    +0.000 C 
ATOM     11  C   UNL     1       1.910   9.395  22.619  0.00  0.00    +0.000 C 
ATOM     12  C   UNL     1      -0.009  10.835  21.737  0.00  0.00    +0.000 C 
ATOM     13  C   UNL     1       0.663  11.253  20.448  0.00  0.00    +0.000 C 
ATOM     14  O   UNL     1       1.495  12.154  20.397  0.00  0.00    +0.000 OA
ATOM     15  N   UNL     1       0.278  10.475  19.361  0.00  0.00    +0.000 N 
ATOM     16  H   UNL     1       0.004   7.475  21.670  0.00  0.00    +0.000 HD
ATOM     17  H   UNL     1      -0.640  10.097  19.588  0.00  0.00    +0.000 HD
ENDBRANCH   2   3
BRANCH   1  18
ATOM     18  C   UNL     1       1.741   3.587  21.478  0.00  0.00    +0.000 C 
BRANCH  18  19
ATOM     19  C   UNL     1       2.803   2.567  21.061  0.00  0.00    +0.000 C 
BRANCH  19  20
ATOM     20  C   UNL     1       4.099   3.199  20.546  0.00  0.00    +0.000 C 
BRANCH  20  27
ATOM     21  C   UNL     1       6.473   5.886  18.076  0.00  0.00    +0.000 A 
ATOM     22  C   UNL     1       5.992   6.171  16.804  0.00  0.00    +0.000 A 
ATOM     23  C   UNL     1       4.930   5.438  16.281  0.00  0.00    +0.000 A 
ATOM     24  C   UNL     1       4.323   4.421  17.039  0.00  0.00    +0.000 A 
ATOM     25  C   UNL     1       4.781   4.129  18.338  0.00  0.00    +0.000 A 
ATOM     26  C   UNL     1       5.855   4.888  18.834  0.00  0.00    +0.000 A 
ATOM     27  N   UNL     1       4.211   3.103  19.089  0.00  0.00    +0.000 N 
ATOM     28  C   UNL     1       3.373   2.131  18.388  0.00  0.00    +0.000 C 
ATOM     29  C   UNL     1       2.407   2.838  17.454  0.00  0.00    +0.000 C 
ATOM     30  C   UNL     1       3.188   3.642  16.421  0.00  0.00    +0.000 C 
BRANCH  21  32
ATOM     31  C   UNL     1       7.796   7.808  17.720  0.00  0.00    +0.000 C 
ATOM     32  O   UNL     1       7.530   6.645  18.501  0.00  0.00    +0.000 OA
ENDBRANCH  21  32
ENDBRANCH  20  27
ENDBRANCH  19  20
ENDBRANCH  18  19
ENDBRANCH   1  18
TORSDOF 6
ENDMDL
MODEL 8
REMARK VINA RESULT:      -8.9      1.929      9.411
REMARK  Name = 
REMARK  8 active torsions:
REMARK  status: ('A' for Active; 'I' for Inactive)
REMARK    1  A    between atoms: C_1  and  O_2
REMARK    2  A    between atoms: O_2  and  C_3
REMARK    3  A    between atoms: N_9  and  C_10
REMARK    4  A    between atoms: C_10  and  C_11
REMARK    5  A    between atoms: C_11  and  C_12
REMARK    6  A    between atoms: C_12  and  C_13
REMARK    7  A    between atoms: C_14  and  C_15
REMARK    8  A    between atoms: C_22  and  C_23
REMARK                            x       y       z     vdW  Elec       q    Type
REMARK                         _______ _______ _______ _____ _____    ______ ____
ROOT
ATOM      1  C   UNL     1       0.758   9.869  18.656  0.00  0.00    +0.000 C 
ATOM      2  C   UNL     1       0.501  11.176  18.807  0.00  0.00    +0.000 C 
ENDROOT
BRANCH   2   3
ATOM      3  C   UNL     1      -0.627  11.683  19.599  0.00  0.00    +0.000 A 
ATOM      4  C   UNL     1      -0.516  11.638  20.998  0.00  0.00    +0.000 A 
ATOM      5  C   UNL     1      -1.592  11.993  21.816  0.00  0.00    +0.000 A 
ATOM      6  C   UNL     1      -2.795  12.402  21.249  0.00  0.00    +0.000 A 
ATOM      7  C   UNL     1      -2.900  12.472  19.863  0.00  0.00    +0.000 A 
ATOM      8  C   UNL     1      -1.828  12.124  19.009  0.00  0.00    +0.000 A 
ATOM      9  N   UNL     1      -2.017  12.129  17.597  0.00  0.00    +0.000 N 
ATOM     10  C   UNL     1      -3.020  11.168  17.079  0.00  0.00    +0.000 C 
ATOM     11  C   UNL     1      -2.825   9.750  17.623  0.00  0.00    +0.000 C 
ATOM     12  C   UNL     1      -4.457  11.677  17.227  0.00  0.00    +0.000 C 
ATOM     13  C   UNL     1      -4.832  11.891  18.676  0.00  0.00    +0.000 C 
ATOM     14  O   UNL     1      -5.649  11.188  19.261  0.00  0.00    +0.000 OA
ATOM     15  N   UNL     1      -4.113  12.923  19.273  0.00  0.00    +0.000 N 
ATOM     16  H   UNL     1      -1.113  11.998  17.139  0.00  0.00    +0.000 HD
ATOM     17  H   UNL     1      -3.820  13.543  18.519  0.00  0.00    +0.000 HD
ENDBRANCH   2   3
BRANCH   1  18
ATOM     18  C   UNL     1       1.898   9.346  17.825  0.00  0.00    +0.000 C 
BRANCH  18  19
ATOM     19  C   UNL     1       2.096   7.846  18.055  0.00  0.00    +0.000 C 
BRANCH  19  20
ATOM     20  C   UNL     1       2.336   7.472  19.520  0.00  0.00    +0.000 C 
BRANCH  20  27
ATOM     21  C   UNL     1       4.968   5.154  16.939  0.00  0.00    +0.000 A 
ATOM     22  C   UNL     1       4.627   3.826  16.712  0.00  0.00    +0.000 A 
ATOM     23  C   UNL     1       3.626   3.225  17.471  0.00  0.00    +0.000 A 
ATOM     24  C   UNL     1       2.939   3.958  18.455  0.00  0.00    +0.000 A 
ATOM     25  C   UNL     1       3.254   5.311  18.687  0.00  0.00    +0.000 A 
ATOM     26  C   UNL     1       4.270   5.885  17.903  0.00  0.00    +0.000 A 
ATOM     27  N   UNL     1       2.604   6.042  19.680  0.00  0.00    +0.000 N 
ATOM     28  C   UNL     1       1.844   5.298  20.684  0.00  0.00    +0.000 C 
ATOM     29  C   UNL     1       0.986   4.235  20.022  0.00  0.00    +0.000 C 
ATOM     30  C   UNL     1       1.875   3.257  19.263  0.00  0.00    +0.000 C 
BRANCH  21  32
ATOM     31  C   UNL     1       6.729   4.683  15.440  0.00  0.00    +0.000 C 
ATOM     32  O   UNL     1       5.974   5.656  16.159  0.00  0.00    +0.000 OA
ENDBRANCH  21  32
ENDBRANCH  20  27
ENDBRANCH  19  20
ENDBRANCH  18  19
ENDBRANCH   1  18
TORSDOF 6
ENDMDL
MODEL 9
REMARK VINA RESULT:      -8.9      2.659      9.561
REMARK  Name = 
REMARK  8 active torsions:
REMARK  status: ('A' for Active; 'I' for Inactive)
REMARK    1  A    between atoms: C_1  and  O_2
REMARK    2  A    between atoms: O_2  and  C_3
REMARK    3  A    between atoms: N_9  and  C_10
REMARK    4  A    between atoms: C_10  and  C_11
REMARK    5  A    between atoms: C_11  and  C_12
REMARK    6  A    between atoms: C_12  and  C_13
REMARK    7  A    between atoms: C_14  and  C_15
REMARK    8  A    between atoms: C_22  and  C_23
REMARK                            x       y       z     vdW  Elec       q    Type
REMARK                         _______ _______ _______ _____ _____    ______ ____
ROOT
ATOM      1  C   UNL     1       1.046   9.585  19.070  0.00  0.00    +0.000 C 
ATOM      2  C   UNL     1       1.018  10.691  19.825  0.00  0.00    +0.000 C 
ENDROOT
BRANCH   2   3
ATOM      3  C   UNL     1       0.253  10.787  21.075  0.00  0.00    +0.000 A 
ATOM      4  C   UNL     1       0.313   9.701  21.964  0.00  0.00    +0.000 A 
ATOM      5  C   UNL     1      -0.480   9.670  23.115  0.00  0.00    +0.000 A 
ATOM      6  C   UNL     1      -1.340  10.725  23.398  0.00  0.00    +0.000 A 
ATOM      7  C   UNL     1      -1.383  11.815  22.534  0.00  0.00    +0.000 A 
ATOM      8  C   UNL     1      -0.592  11.877  21.363  0.00  0.00    +0.000 A 
ATOM      9  N   UNL     1      -0.739  12.975  20.467  0.00  0.00    +0.000 N 
ATOM     10  C   UNL     1      -2.070  13.110  19.828  0.00  0.00    +0.000 C 
ATOM     11  C   UNL     1      -2.573  11.800  19.215  0.00  0.00    +0.000 C 
ATOM     12  C   UNL     1      -3.099  13.780  20.744  0.00  0.00    +0.000 C 
ATOM     13  C   UNL     1      -3.346  12.971  21.999  0.00  0.00    +0.000 C 
ATOM     14  O   UNL     1      -4.406  12.393  22.217  0.00  0.00    +0.000 OA
ATOM     15  N   UNL     1      -2.233  12.915  22.832  0.00  0.00    +0.000 N 
ATOM     16  H   UNL     1       0.002  12.934  19.765  0.00  0.00    +0.000 HD
ATOM     17  H   UNL     1      -1.674  13.740  22.622  0.00  0.00    +0.000 HD
ENDBRANCH   2   3
BRANCH   1  18
ATOM     18  C   UNL     1       1.809   9.492  17.777  0.00  0.00    +0.000 C 
BRANCH  18  19
ATOM     19  C   UNL     1       2.417   8.098  17.601  0.00  0.00    +0.000 C 
BRANCH  19  20
ATOM     20  C   UNL     1       2.606   7.337  18.916  0.00  0.00    +0.000 C 
BRANCH  20  27
ATOM     21  C   UNL     1       6.148   6.080  16.720  0.00  0.00    +0.000 A 
ATOM     22  C   UNL     1       6.057   4.905  15.984  0.00  0.00    +0.000 A 
ATOM     23  C   UNL     1       4.957   4.066  16.147  0.00  0.00    +0.000 A 
ATOM     24  C   UNL     1       3.924   4.408  17.038  0.00  0.00    +0.000 A 
ATOM     25  C   UNL     1       3.988   5.605  17.778  0.00  0.00    +0.000 A 
ATOM     26  C   UNL     1       5.112   6.427  17.589  0.00  0.00    +0.000 A 
ATOM     27  N   UNL     1       2.988   5.942  18.689  0.00  0.00    +0.000 N 
ATOM     28  C   UNL     1       2.061   4.889  19.102  0.00  0.00    +0.000 C 
ATOM     29  C   UNL     1       1.576   4.104  17.897  0.00  0.00    +0.000 C 
ATOM     30  C   UNL     1       2.763   3.458  17.193  0.00  0.00    +0.000 C 
BRANCH  21  32
ATOM     31  C   UNL     1       7.720   7.588  17.630  0.00  0.00    +0.000 C 
ATOM     32  O   UNL     1       7.272   6.833  16.507  0.00  0.00    +0.000 OA
ENDBRANCH  21  32
ENDBRANCH  20  27
ENDBRANCH  19  20
ENDBRANCH  18  19
ENDBRANCH   1  18
TORSDOF 6
ENDMDL
