MODEL 1
REMARK VINA RESULT:      -7.5      0.000      0.000
REMARK  Name = 
REMARK  8 active torsions:
REMARK  status: ('A' for Active; 'I' for Inactive)
REMARK    1  A    between atoms: C_1  and  C_2
REMARK    2  A    between atoms: C_2  and  O_3
REMARK    3  A    between atoms: O_3  and  C_4
REMARK    4  A    between atoms: C_9  and  N_10
REMARK    5  A    between atoms: N_13  and  C_14
REMARK    6  A    between atoms: C_19  and  C_20
REMARK    7  A    between atoms: C_20  and  C_21
REMARK    8  A    between atoms: C_21  and  O_22
REMARK                            x       y       z     vdW  Elec       q    Type
REMARK                         _______ _______ _______ _____ _____    ______ ____
ROOT
ATOM      1  N   UNL     1       5.144   5.482  18.957  0.00  0.00    +0.000 NA
ATOM      2  C   UNL     1       4.990   6.671  18.115  0.00  0.00    +0.000 C 
ATOM      3  C   UNL     1       3.560   6.935  17.580  0.00  0.00    +0.000 C 
ATOM      4  N   UNL     1       2.445   6.799  18.541  0.00  0.00    +0.000 NA
ATOM      5  C   UNL     1       2.596   5.516  19.268  0.00  0.00    +0.000 C 
ATOM      6  C   UNL     1       4.017   5.284  19.863  0.00  0.00    +0.000 C 
ENDROOT
BRANCH   1  12
ATOM      7  C   UNL     1       6.505   4.545  14.043  0.00  0.00    +0.000 C 
ATOM      8  O   UNL     1       7.441   5.168  13.555  0.00  0.00    +0.000 OA
ATOM      9  N   UNL     1       6.335   4.337  15.410  0.00  0.00    +0.000 N 
ATOM     10  C   UNL     1       7.127   5.203  16.265  0.00  0.00    +0.000 C 
ATOM     11  C   UNL     1       7.225   4.694  17.686  0.00  0.00    +0.000 C 
ATOM     12  C   UNL     1       5.864   4.376  18.319  0.00  0.00    +0.000 C 
ATOM     13  C   UNL     1       5.038   3.489  17.371  0.00  0.00    +0.000 C 
ATOM     14  C   UNL     1       5.027   3.930  15.913  0.00  0.00    +0.000 C 
BRANCH   7  15
ATOM     15  O   UNL     1       5.449   4.084  13.320  0.00  0.00    +0.000 OA
BRANCH  15  17
ATOM     16  C   UNL     1       4.536   3.009  11.386  0.00  0.00    +0.000 C 
ATOM     17  C   UNL     1       5.801   3.292  12.180  0.00  0.00    +0.000 C 
ENDBRANCH  15  17
ENDBRANCH   7  15
ENDBRANCH   1  12
BRANCH   4  18
ATOM     18  C   UNL     1       2.138   7.999  19.329  0.00  0.00    +0.000 C 
ATOM     19  C   UNL     1       1.246   9.084  18.730  0.00  0.00    +0.000 C 
ATOM     20  C   UNL     1       0.825   9.930  19.921  0.00  0.00    +0.000 C 
ATOM     21  C   UNL     1       0.728   8.958  21.091  0.00  0.00    +0.000 C 
ATOM     22  C   UNL     1       1.440   7.677  20.667  0.00  0.00    +0.000 C 
ENDBRANCH   4  18
BRANCH   5  23
ATOM     23  C   UNL     1       1.530   5.180  20.332  0.00  0.00    +0.000 C 
BRANCH  23  24
ATOM     24  C   UNL     1       1.850   3.934  21.150  0.00  0.00    +0.000 C 
BRANCH  24  25
ATOM     25  O   UNL     1       0.769   3.009  21.040  0.00  0.00    +0.000 OA
ATOM     26  H   UNL     1       0.200   3.303  20.310  0.00  0.00    +0.000 HD
ENDBRANCH  24  25
ENDBRANCH  23  24
ENDBRANCH   5  23
TORSDOF 7
ENDMDL
MODEL 2
REMARK VINA RESULT:      -7.4      0.716      1.078
REMARK  Name = 
REMARK  8 active torsions:
REMARK  status: ('A' for Active; 'I' for Inactive)
REMARK    1  A    between atoms: C_1  and  C_2
REMARK    2  A    between atoms: C_2  and  O_3
REMARK    3  A    between atoms: O_3  and  C_4
REMARK    4  A    between atoms: C_9  and  N_10
REMARK    5  A    between atoms: N_13  and  C_14
REMARK    6  A    between atoms: C_19  and  C_20
REMARK    7  A    between atoms: C_20  and  C_21
REMARK    8  A    between atoms: C_21  and  O_22
REMARK                            x       y       z     vdW  Elec       q    Type
REMARK                         _______ _______ _______ _____ _____    ______ ____
ROOT
ATOM      1  N   UNL     1       4.985   5.671  19.089  0.00  0.00    +0.000 NA
ATOM      2  C   UNL     1       4.804   6.872  18.270  0.00  0.00    +0.000 C 
ATOM      3  C   UNL     1       3.536   6.894  17.380  0.00  0.00    +0.000 C 
ATOM      4  N   UNL     1       2.267   6.464  18.004  0.00  0.00    +0.000 NA
ATOM      5  C   UNL     1       2.494   5.179  18.709  0.00  0.00    +0.000 C 
ATOM      6  C   UNL     1       3.732   5.182  19.656  0.00  0.00    +0.000 C 
ENDROOT
BRANCH   1  12
ATOM      7  C   UNL     1       6.999   4.692  14.413  0.00  0.00    +0.000 C 
ATOM      8  O   UNL     1       7.742   5.520  13.899  0.00  0.00    +0.000 OA
ATOM      9  N   UNL     1       6.778   4.587  15.785  0.00  0.00    +0.000 N 
ATOM     10  C   UNL     1       7.191   5.742  16.563  0.00  0.00    +0.000 C 
ATOM     11  C   UNL     1       7.312   5.442  18.040  0.00  0.00    +0.000 C 
ATOM     12  C   UNL     1       6.061   4.784  18.636  0.00  0.00    +0.000 C 
ATOM     13  C   UNL     1       5.632   3.589  17.768  0.00  0.00    +0.000 C 
ATOM     14  C   UNL     1       5.617   3.848  16.268  0.00  0.00    +0.000 C 
BRANCH   7  15
ATOM     15  O   UNL     1       6.202   3.850  13.702  0.00  0.00    +0.000 OA
BRANCH  15  17
ATOM     16  C   UNL     1       5.659   2.636  11.711  0.00  0.00    +0.000 C 
ATOM     17  C   UNL     1       6.608   3.642  12.344  0.00  0.00    +0.000 C 
ENDBRANCH  15  17
ENDBRANCH   7  15
ENDBRANCH   1  12
BRANCH   4  18
ATOM     18  C   UNL     1       1.523   7.510  18.714  0.00  0.00    +0.000 C 
ATOM     19  C   UNL     1       1.908   7.864  20.150  0.00  0.00    +0.000 C 
ATOM     20  C   UNL     1       1.236   9.205  20.403  0.00  0.00    +0.000 C 
ATOM     21  C   UNL     1       1.250   9.922  19.058  0.00  0.00    +0.000 C 
ATOM     22  C   UNL     1       1.570   8.875  17.996  0.00  0.00    +0.000 C 
ENDBRANCH   4  18
BRANCH   5  23
ATOM     23  C   UNL     1       1.287   4.554  19.439  0.00  0.00    +0.000 C 
BRANCH  23  24
ATOM     24  C   UNL     1       1.602   4.086  20.856  0.00  0.00    +0.000 C 
BRANCH  24  25
ATOM     25  O   UNL     1       0.833   2.920  21.147  0.00  0.00    +0.000 OA
ATOM     26  H   UNL     1       0.196   2.796  20.424  0.00  0.00    +0.000 HD
ENDBRANCH  24  25
ENDBRANCH  23  24
ENDBRANCH   5  23
TORSDOF 7
ENDMDL
MODEL 3
REMARK VINA RESULT:      -7.4      3.310      5.275
REMARK  Name = 
REMARK  8 active torsions:
REMARK  status: ('A' for Active; 'I' for Inactive)
REMARK    1  A    between atoms: C_1  and  C_2
REMARK    2  A    between atoms: C_2  and  O_3
REMARK    3  A    between atoms: O_3  and  C_4
REMARK    4  A    between atoms: C_9  and  N_10
REMARK    5  A    between atoms: N_13  and  C_14
REMARK    6  A    between atoms: C_19  and  C_20
REMARK    7  A    between atoms: C_20  and  C_21
REMARK    8  A    between atoms: C_21  and  O_22
REMARK                            x       y       z     vdW  Elec       q    Type
REMARK                         _______ _______ _______ _____ _____    ______ ____
ROOT
ATOM      1  N   UNL     1       5.194   4.446  17.419  0.00  0.00    +0.000 NA
ATOM      2  C   UNL     1       5.173   3.854  18.758  0.00  0.00    +0.000 C 
ATOM      3  C   UNL     1       4.625   4.763  19.887  0.00  0.00    +0.000 C 
ATOM      4  N   UNL     1       3.385   5.517  19.604  0.00  0.00    +0.000 NA
ATOM      5  C   UNL     1       3.527   6.192  18.292  0.00  0.00    +0.000 C 
ATOM      6  C   UNL     1       4.013   5.258  17.143  0.00  0.00    +0.000 C 
ENDROOT
BRANCH   1  12
ATOM      7  C   UNL     1       8.369   8.443  18.329  0.00  0.00    +0.000 C 
ATOM      8  O   UNL     1       8.970   8.495  19.396  0.00  0.00    +0.000 OA
ATOM      9  N   UNL     1       7.886   7.265  17.763  0.00  0.00    +0.000 N 
ATOM     10  C   UNL     1       7.809   6.135  18.671  0.00  0.00    +0.000 C 
ATOM     11  C   UNL     1       7.674   4.812  17.952  0.00  0.00    +0.000 C 
ATOM     12  C   UNL     1       6.533   4.784  16.927  0.00  0.00    +0.000 C 
ATOM     13  C   UNL     1       6.625   6.013  16.006  0.00  0.00    +0.000 C 
ATOM     14  C   UNL     1       6.875   7.338  16.714  0.00  0.00    +0.000 C 
BRANCH   7  15
ATOM     15  O   UNL     1       7.990   9.542  17.623  0.00  0.00    +0.000 OA
BRANCH  15  17
ATOM     16  C   UNL     1       9.743  11.156  17.851  0.00  0.00    +0.000 C 
ATOM     17  C   UNL     1       8.318  10.794  18.237  0.00  0.00    +0.000 C 
ENDBRANCH  15  17
ENDBRANCH   7  15
ENDBRANCH   1  12
BRANCH   4  18
ATOM     18  C   UNL     1       2.133   4.800  19.871  0.00  0.00    +0.000 C 
ATOM     19  C   UNL     1       1.650   3.737  18.886  0.00  0.00    +0.000 C 
ATOM     20  C   UNL     1       0.601   2.952  19.658  0.00  0.00    +0.000 C 
ATOM     21  C   UNL     1       1.073   2.967  21.107  0.00  0.00    +0.000 C 
ATOM     22  C   UNL     1       2.147   4.044  21.216  0.00  0.00    +0.000 C 
ENDBRANCH   4  18
BRANCH   5  23
ATOM     23  C   UNL     1       2.331   7.035  17.801  0.00  0.00    +0.000 C 
BRANCH  23  24
ATOM     24  C   UNL     1       2.301   8.448  18.370  0.00  0.00    +0.000 C 
BRANCH  24  25
ATOM     25  O   UNL     1       1.943   9.364  17.336  0.00  0.00    +0.000 OA
ATOM     26  H   UNL     1       1.706   8.845  16.549  0.00  0.00    +0.000 HD
ENDBRANCH  24  25
ENDBRANCH  23  24
ENDBRANCH   5  23
TORSDOF 7
ENDMDL
MODEL 4
REMARK VINA RESULT:      -7.4      2.731      4.484
REMARK  Name = 
REMARK  8 active torsions:
REMARK  status: ('A' for Active; 'I' for Inactive)
REMARK    1  A    between atoms: C_1  and  C_2
REMARK    2  A    between atoms: C_2  and  O_3
REMARK    3  A    between atoms: O_3  and  C_4
REMARK    4  A    between atoms: C_9  and  N_10
REMARK    5  A    between atoms: N_13  and  C_14
REMARK    6  A    between atoms: C_19  and  C_20
REMARK    7  A    between atoms: C_20  and  C_21
REMARK    8  A    between atoms: C_21  and  O_22
REMARK                            x       y       z     vdW  Elec       q    Type
REMARK                         _______ _______ _______ _____ _____    ______ ____
ROOT
ATOM      1  N   UNL     1       2.224   7.892  19.505  0.00  0.00    +0.000 NA
ATOM      2  C   UNL     1       2.273   8.648  18.252  0.00  0.00    +0.000 C 
ATOM      3  C   UNL     1       1.001   9.463  17.907  0.00  0.00    +0.000 C 
ATOM      4  N   UNL     1       0.391  10.253  18.997  0.00  0.00    +0.000 NA
ATOM      5  C   UNL     1       0.256   9.389  20.194  0.00  0.00    +0.000 C 
ATOM      6  C   UNL     1       1.557   8.623  20.578  0.00  0.00    +0.000 C 
ENDROOT
BRANCH   1  12
ATOM      7  C   UNL     1       5.573   4.273  17.901  0.00  0.00    +0.000 C 
ATOM      8  O   UNL     1       6.465   3.909  18.658  0.00  0.00    +0.000 OA
ATOM      9  N   UNL     1       4.374   4.843  18.325  0.00  0.00    +0.000 N 
ATOM     10  C   UNL     1       4.373   5.323  19.695  0.00  0.00    +0.000 C 
ATOM     11  C   UNL     1       2.980   5.554  20.235  0.00  0.00    +0.000 C 
ATOM     12  C   UNL     1       2.112   6.440  19.333  0.00  0.00    +0.000 C 
ATOM     13  C   UNL     1       2.165   5.925  17.884  0.00  0.00    +0.000 C 
ATOM     14  C   UNL     1       3.555   5.579  17.368  0.00  0.00    +0.000 C 
BRANCH   7  15
ATOM     15  O   UNL     1       5.691   4.279  16.545  0.00  0.00    +0.000 OA
BRANCH  15  17
ATOM     16  C   UNL     1       6.905   4.776  14.543  0.00  0.00    +0.000 C 
ATOM     17  C   UNL     1       6.985   4.652  16.057  0.00  0.00    +0.000 C 
ENDBRANCH  15  17
ENDBRANCH   7  15
ENDBRANCH   1  12
BRANCH   4  18
ATOM     18  C   UNL     1       0.940  11.601  19.187  0.00  0.00    +0.000 C 
ATOM     19  C   UNL     1       2.129  12.055  18.341  0.00  0.00    +0.000 C 
ATOM     20  C   UNL     1       2.155  13.566  18.503  0.00  0.00    +0.000 C 
ATOM     21  C   UNL     1       0.695  13.981  18.651  0.00  0.00    +0.000 C 
ATOM     22  C   UNL     1      -0.101  12.714  18.947  0.00  0.00    +0.000 C 
ENDBRANCH   4  18
BRANCH   5  23
ATOM     23  C   UNL     1      -0.359  10.027  21.458  0.00  0.00    +0.000 C 
BRANCH  23  24
ATOM     24  C   UNL     1      -0.362   9.105  22.672  0.00  0.00    +0.000 C 
BRANCH  24  25
ATOM     25  O   UNL     1       0.299   9.753  23.757  0.00  0.00    +0.000 OA
ATOM     26  H   UNL     1       0.793   9.078  24.251  0.00  0.00    +0.000 HD
ENDBRANCH  24  25
ENDBRANCH  23  24
ENDBRANCH   5  23
TORSDOF 7
ENDMDL
MODEL 5
REMARK VINA RESULT:      -7.3      4.917      8.010
REMARK  Name = 
REMARK  8 active torsions:
REMARK  status: ('A' for Active; 'I' for Inactive)
REMARK    1  A    between atoms: C_1  and  C_2
REMARK    2  A    between atoms: C_2  and  O_3
REMARK    3  A    between atoms: O_3  and  C_4
REMARK    4  A    between atoms: C_9  and  N_10
REMARK    5  A    between atoms: N_13  and  C_14
REMARK    6  A    between atoms: C_19  and  C_20
REMARK    7  A    between atoms: C_20  and  C_21
REMARK    8  A    between atoms: C_21  and  O_22
REMARK                            x       y       z     vdW  Elec       q    Type
REMARK                         _______ _______ _______ _____ _____    ______ ____
ROOT
ATOM      1  N   UNL     1      -0.928  10.400  19.749  0.00  0.00    +0.000 NA
ATOM      2  C   UNL     1      -1.570  11.649  20.164  0.00  0.00    +0.000 C 
ATOM      3  C   UNL     1      -2.216  12.482  19.028  0.00  0.00    +0.000 C 
ATOM      4  N   UNL     1      -3.034  11.751  18.037  0.00  0.00    +0.000 NA
ATOM      5  C   UNL     1      -2.271  10.570  17.568  0.00  0.00    +0.000 C 
ATOM      6  C   UNL     1      -1.680   9.696  18.714  0.00  0.00    +0.000 C 
ENDROOT
BRANCH   1  12
ATOM      7  C   UNL     1       2.683   6.769  18.932  0.00  0.00    +0.000 C 
ATOM      8  O   UNL     1       2.931   6.424  17.783  0.00  0.00    +0.000 OA
ATOM      9  N   UNL     1       2.127   8.001  19.274  0.00  0.00    +0.000 N 
ATOM     10  C   UNL     1       1.515   8.723  18.173  0.00  0.00    +0.000 C 
ATOM     11  C   UNL     1       1.291  10.186  18.484  0.00  0.00    +0.000 C 
ATOM     12  C   UNL     1       0.538  10.426  19.798  0.00  0.00    +0.000 C 
ATOM     13  C   UNL     1       1.190   9.617  20.933  0.00  0.00    +0.000 C 
ATOM     14  C   UNL     1       1.524   8.171  20.591  0.00  0.00    +0.000 C 
BRANCH   7  15
ATOM     15  O   UNL     1       2.805   5.947  20.009  0.00  0.00    +0.000 OA
BRANCH  15  17
ATOM     16  C   UNL     1       1.105   4.313  20.418  0.00  0.00    +0.000 C 
ATOM     17  C   UNL     1       2.452   4.581  19.765  0.00  0.00    +0.000 C 
ENDBRANCH  15  17
ENDBRANCH   7  15
ENDBRANCH   1  12
BRANCH   4  18
ATOM     18  C   UNL     1      -4.443  11.554  18.400  0.00  0.00    +0.000 C 
ATOM     19  C   UNL     1      -5.001  12.238  19.647  0.00  0.00    +0.000 C 
ATOM     20  C   UNL     1      -6.510  12.154  19.482  0.00  0.00    +0.000 C 
ATOM     21  C   UNL     1      -6.757  12.246  17.980  0.00  0.00    +0.000 C 
ATOM     22  C   UNL     1      -5.417  12.004  17.292  0.00  0.00    +0.000 C 
ENDBRANCH   4  18
BRANCH   5  23
ATOM     23  C   UNL     1      -2.953   9.660  16.525  0.00  0.00    +0.000 C 
BRANCH  23  24
ATOM     24  C   UNL     1      -2.939  10.228  15.111  0.00  0.00    +0.000 C 
BRANCH  24  25
ATOM     25  O   UNL     1      -2.961  11.653  15.176  0.00  0.00    +0.000 OA
ATOM     26  H   UNL     1      -2.139  11.943  15.606  0.00  0.00    +0.000 HD
ENDBRANCH  24  25
ENDBRANCH  23  24
ENDBRANCH   5  23
TORSDOF 7
ENDMDL
MODEL 6
REMARK VINA RESULT:      -7.0      2.877      4.842
REMARK  Name = 
REMARK  8 active torsions:
REMARK  status: ('A' for Active; 'I' for Inactive)
REMARK    1  A    between atoms: C_1  and  C_2
REMARK    2  A    between atoms: C_2  and  O_3
REMARK    3  A    between atoms: O_3  and  C_4
REMARK    4  A    between atoms: C_9  and  N_10
REMARK    5  A    between atoms: N_13  and  C_14
REMARK    6  A    between atoms: C_19  and  C_20
REMARK    7  A    between atoms: C_20  and  C_21
REMARK    8  A    between atoms: C_21  and  O_22
REMARK                            x       y       z     vdW  Elec       q    Type
REMARK                         _______ _______ _______ _____ _____    ______ ____
ROOT
ATOM      1  N   UNL     1       2.064   8.526  18.925  0.00  0.00    +0.000 NA
ATOM      2  C   UNL     1       1.710   9.702  18.126  0.00  0.00    +0.000 C 
ATOM      3  C   UNL     1       0.252  10.204  18.277  0.00  0.00    +0.000 C 
ATOM      4  N   UNL     1      -0.292  10.292  19.648  0.00  0.00    +0.000 NA
ATOM      5  C   UNL     1      -0.008   9.021  20.356  0.00  0.00    +0.000 C 
ATOM      6  C   UNL     1       1.475   8.555  20.260  0.00  0.00    +0.000 C 
ENDROOT
BRANCH   1  12
ATOM      7  C   UNL     1       5.906   5.057  18.628  0.00  0.00    +0.000 C 
ATOM      8  O   UNL     1       6.059   4.259  19.544  0.00  0.00    +0.000 OA
ATOM      9  N   UNL     1       4.699   5.694  18.342  0.00  0.00    +0.000 N 
ATOM     10  C   UNL     1       3.713   5.644  19.406  0.00  0.00    +0.000 C 
ATOM     11  C   UNL     1       2.317   5.976  18.927  0.00  0.00    +0.000 C 
ATOM     12  C   UNL     1       2.233   7.294  18.148  0.00  0.00    +0.000 C 
ATOM     13  C   UNL     1       3.316   7.328  17.054  0.00  0.00    +0.000 C 
ATOM     14  C   UNL     1       4.703   6.885  17.500  0.00  0.00    +0.000 C 
BRANCH   7  15
ATOM     15  O   UNL     1       6.923   5.516  17.850  0.00  0.00    +0.000 OA
BRANCH  15  17
ATOM     16  C   UNL     1       7.047   4.788  15.573  0.00  0.00    +0.000 C 
ATOM     17  C   UNL     1       7.518   4.532  16.996  0.00  0.00    +0.000 C 
ENDBRANCH  15  17
ENDBRANCH   7  15
ENDBRANCH   1  12
BRANCH   4  18
ATOM     18  C   UNL     1      -0.017  11.546  20.360  0.00  0.00    +0.000 C 
ATOM     19  C   UNL     1       0.779  12.647  19.662  0.00  0.00    +0.000 C 
ATOM     20  C   UNL     1       0.520  13.890  20.498  0.00  0.00    +0.000 C 
ATOM     21  C   UNL     1      -0.902  13.734  21.022  0.00  0.00    +0.000 C 
ATOM     22  C   UNL     1      -1.300  12.277  20.808  0.00  0.00    +0.000 C 
ENDBRANCH   4  18
BRANCH   5  23
ATOM     23  C   UNL     1      -0.491   8.906  21.818  0.00  0.00    +0.000 C 
BRANCH  23  24
ATOM     24  C   UNL     1       0.579   9.253  22.847  0.00  0.00    +0.000 C 
BRANCH  24  25
ATOM     25  O   UNL     1       0.014  10.106  23.842  0.00  0.00    +0.000 OA
ATOM     26  H   UNL     1      -0.874   9.771  24.051  0.00  0.00    +0.000 HD
ENDBRANCH  24  25
ENDBRANCH  23  24
ENDBRANCH   5  23
TORSDOF 7
ENDMDL
MODEL 7
REMARK VINA RESULT:      -6.8      2.399      3.412
REMARK  Name = 
REMARK  8 active torsions:
REMARK  status: ('A' for Active; 'I' for Inactive)
REMARK    1  A    between atoms: C_1  and  C_2
REMARK    2  A    between atoms: C_2  and  O_3
REMARK    3  A    between atoms: O_3  and  C_4
REMARK    4  A    between atoms: C_9  and  N_10
REMARK    5  A    between atoms: N_13  and  C_14
REMARK    6  A    between atoms: C_19  and  C_20
REMARK    7  A    between atoms: C_20  and  C_21
REMARK    8  A    between atoms: C_21  and  O_22
REMARK                            x       y       z     vdW  Elec       q    Type
REMARK                         _______ _______ _______ _____ _____    ______ ____
ROOT
ATOM      1  N   UNL     1       5.184   5.258  17.901  0.00  0.00    +0.000 NA
ATOM      2  C   UNL     1       4.259   6.278  18.402  0.00  0.00    +0.000 C 
ATOM      3  C   UNL     1       2.767   6.069  18.038  0.00  0.00    +0.000 C 
ATOM      4  N   UNL     1       2.217   4.706  18.201  0.00  0.00    +0.000 NA
ATOM      5  C   UNL     1       3.142   3.740  17.561  0.00  0.00    +0.000 C 
ATOM      6  C   UNL     1       4.633   3.909  17.982  0.00  0.00    +0.000 C 
ENDROOT
BRANCH   1  12
ATOM      7  C   UNL     1       5.666   3.752  12.963  0.00  0.00    +0.000 C 
ATOM      8  O   UNL     1       4.808   4.082  12.153  0.00  0.00    +0.000 OA
ATOM      9  N   UNL     1       5.926   4.439  14.148  0.00  0.00    +0.000 N 
ATOM     10  C   UNL     1       4.886   5.364  14.561  0.00  0.00    +0.000 C 
ATOM     11  C   UNL     1       5.364   6.360  15.594  0.00  0.00    +0.000 C 
ATOM     12  C   UNL     1       6.046   5.709  16.804  0.00  0.00    +0.000 C 
ATOM     13  C   UNL     1       7.114   4.708  16.329  0.00  0.00    +0.000 C 
ATOM     14  C   UNL     1       6.678   3.776  15.207  0.00  0.00    +0.000 C 
BRANCH   7  15
ATOM     15  O   UNL     1       6.390   2.604  12.868  0.00  0.00    +0.000 OA
BRANCH  15  17
ATOM     16  C   UNL     1       6.316   0.978  11.113  0.00  0.00    +0.000 C 
ATOM     17  C   UNL     1       6.889   2.315  11.557  0.00  0.00    +0.000 C 
ENDBRANCH  15  17
ENDBRANCH   7  15
ENDBRANCH   1  12
BRANCH   4  18
ATOM     18  C   UNL     1       1.712   4.383  19.541  0.00  0.00    +0.000 C 
ATOM     19  C   UNL     1       0.947   3.079  19.761  0.00  0.00    +0.000 C 
ATOM     20  C   UNL     1       0.945   2.891  21.270  0.00  0.00    +0.000 C 
ATOM     21  C   UNL     1       2.266   3.479  21.751  0.00  0.00    +0.000 C 
ATOM     22  C   UNL     1       2.826   4.315  20.605  0.00  0.00    +0.000 C 
ENDBRANCH   4  18
BRANCH   5  23
ATOM     23  C   UNL     1       2.755   2.247  17.625  0.00  0.00    +0.000 C 
BRANCH  23  24
ATOM     24  C   UNL     1       3.600   1.434  18.599  0.00  0.00    +0.000 C 
BRANCH  24  25
ATOM     25  O   UNL     1       4.336   0.450  17.874  0.00  0.00    +0.000 OA
ATOM     26  H   UNL     1       4.931   0.004  18.499  0.00  0.00    +0.000 HD
ENDBRANCH  24  25
ENDBRANCH  23  24
ENDBRANCH   5  23
TORSDOF 7
ENDMDL
MODEL 8
REMARK VINA RESULT:      -6.5      3.879      6.393
REMARK  Name = 
REMARK  8 active torsions:
REMARK  status: ('A' for Active; 'I' for Inactive)
REMARK    1  A    between atoms: C_1  and  C_2
REMARK    2  A    between atoms: C_2  and  O_3
REMARK    3  A    between atoms: O_3  and  C_4
REMARK    4  A    between atoms: C_9  and  N_10
REMARK    5  A    between atoms: N_13  and  C_14
REMARK    6  A    between atoms: C_19  and  C_20
REMARK    7  A    between atoms: C_20  and  C_21
REMARK    8  A    between atoms: C_21  and  O_22
REMARK                            x       y       z     vdW  Elec       q    Type
REMARK                         _______ _______ _______ _____ _____    ______ ____
ROOT
ATOM      1  N   UNL     1       1.116   8.519  20.260  0.00  0.00    +0.000 NA
ATOM      2  C   UNL     1       0.787   8.650  21.681  0.00  0.00    +0.000 C 
ATOM      3  C   UNL     1       1.075  10.035  22.313  0.00  0.00    +0.000 C 
ATOM      4  N   UNL     1       0.657  11.227  21.543  0.00  0.00    +0.000 NA
ATOM      5  C   UNL     1       1.132  11.083  20.147  0.00  0.00    +0.000 C 
ATOM      6  C   UNL     1       0.781   9.714  19.491  0.00  0.00    +0.000 C 
ENDROOT
BRANCH   1  12
ATOM      7  C   UNL     1       1.698   3.832  18.120  0.00  0.00    +0.000 C 
ATOM      8  O   UNL     1       1.583   3.713  16.906  0.00  0.00    +0.000 OA
ATOM      9  N   UNL     1       2.034   5.024  18.759  0.00  0.00    +0.000 N 
ATOM     10  C   UNL     1       1.891   6.217  17.944  0.00  0.00    +0.000 C 
ATOM     11  C   UNL     1       2.628   7.408  18.514  0.00  0.00    +0.000 C 
ATOM     12  C   UNL     1       2.294   7.691  19.984  0.00  0.00    +0.000 C 
ATOM     13  C   UNL     1       2.421   6.399  20.809  0.00  0.00    +0.000 C 
ATOM     14  C   UNL     1       1.779   5.166  20.188  0.00  0.00    +0.000 C 
BRANCH   7  15
ATOM     15  O   UNL     1       1.392   2.846  19.006  0.00  0.00    +0.000 OA
BRANCH  15  17
ATOM     16  C   UNL     1       3.652   2.079  19.183  0.00  0.00    +0.000 C 
ATOM     17  C   UNL     1       2.212   1.676  18.910  0.00  0.00    +0.000 C 
ENDBRANCH  15  17
ENDBRANCH   7  15
ENDBRANCH   1  12
BRANCH   4  18
ATOM     18  C   UNL     1      -0.729  11.662  21.752  0.00  0.00    +0.000 C 
ATOM     19  C   UNL     1      -1.497  11.166  22.977  0.00  0.00    +0.000 C 
ATOM     20  C   UNL     1      -2.689  12.103  23.082  0.00  0.00    +0.000 C 
ATOM     21  C   UNL     1      -2.188  13.451  22.577  0.00  0.00    +0.000 C 
ATOM     22  C   UNL     1      -0.871  13.194  21.852  0.00  0.00    +0.000 C 
ENDBRANCH   4  18
BRANCH   5  23
ATOM     23  C   UNL     1       0.793  12.226  19.166  0.00  0.00    +0.000 C 
BRANCH  23  24
ATOM     24  C   UNL     1       2.019  12.901  18.562  0.00  0.00    +0.000 C 
BRANCH  24  25
ATOM     25  O   UNL     1       2.493  12.121  17.466  0.00  0.00    +0.000 OA
ATOM     26  H   UNL     1       3.343  11.728  17.726  0.00  0.00    +0.000 HD
ENDBRANCH  24  25
ENDBRANCH  23  24
ENDBRANCH   5  23
TORSDOF 7
ENDMDL
MODEL 9
REMARK VINA RESULT:      -6.5      4.042      6.878
REMARK  Name = 
REMARK  8 active torsions:
REMARK  status: ('A' for Active; 'I' for Inactive)
REMARK    1  A    between atoms: C_1  and  C_2
REMARK    2  A    between atoms: C_2  and  O_3
REMARK    3  A    between atoms: O_3  and  C_4
REMARK    4  A    between atoms: C_9  and  N_10
REMARK    5  A    between atoms: N_13  and  C_14
REMARK    6  A    between atoms: C_19  and  C_20
REMARK    7  A    between atoms: C_20  and  C_21
REMARK    8  A    between atoms: C_21  and  O_22
REMARK                            x       y       z     vdW  Elec       q    Type
REMARK                         _______ _______ _______ _____ _____    ______ ____
ROOT
ATOM      1  N   UNL     1       1.097   9.054  19.411  0.00  0.00    +0.000 NA
ATOM      2  C   UNL     1       0.237   9.234  20.582  0.00  0.00    +0.000 C 
ATOM      3  C   UNL     1       0.377  10.592  21.316  0.00  0.00    +0.000 C 
ATOM      4  N   UNL     1       0.421  11.810  20.478  0.00  0.00    +0.000 NA
ATOM      5  C   UNL     1       1.403  11.602  19.388  0.00  0.00    +0.000 C 
ATOM      6  C   UNL     1       1.217  10.266  18.607  0.00  0.00    +0.000 C 
ENDROOT
BRANCH   1  12
ATOM      7  C   UNL     1       1.580   3.969  18.520  0.00  0.00    +0.000 C 
ATOM      8  O   UNL     1       1.722   3.577  17.367  0.00  0.00    +0.000 OA
ATOM      9  N   UNL     1       1.906   5.253  18.952  0.00  0.00    +0.000 N 
ATOM     10  C   UNL     1       2.086   6.229  17.893  0.00  0.00    +0.000 C 
ATOM     11  C   UNL     1       2.815   7.470  18.357  0.00  0.00    +0.000 C 
ATOM     12  C   UNL     1       2.202   8.110  19.609  0.00  0.00    +0.000 C 
ATOM     13  C   UNL     1       1.990   7.041  20.696  0.00  0.00    +0.000 C 
ATOM     14  C   UNL     1       1.360   5.741  20.214  0.00  0.00    +0.000 C 
BRANCH   7  15
ATOM     15  O   UNL     1       0.972   3.239  19.494  0.00  0.00    +0.000 OA
BRANCH  15  17
ATOM     16  C   UNL     1       1.751   2.530  21.644  0.00  0.00    +0.000 C 
ATOM     17  C   UNL     1       1.818   2.284  20.145  0.00  0.00    +0.000 C 
ENDBRANCH  15  17
ENDBRANCH   7  15
ENDBRANCH   1  12
BRANCH   4  18
ATOM     18  C   UNL     1      -0.883  12.382  20.123  0.00  0.00    +0.000 C 
ATOM     19  C   UNL     1      -1.848  11.574  19.257  0.00  0.00    +0.000 C 
ATOM     20  C   UNL     1      -3.189  12.268  19.436  0.00  0.00    +0.000 C 
ATOM     21  C   UNL     1      -3.182  12.796  20.866  0.00  0.00    +0.000 C 
ATOM     22  C   UNL     1      -1.739  12.739  21.356  0.00  0.00    +0.000 C 
ENDBRANCH   4  18
BRANCH   5  23
ATOM     23  C   UNL     1       1.600  12.760  18.387  0.00  0.00    +0.000 C 
BRANCH  23  24
ATOM     24  C   UNL     1       2.821  13.625  18.679  0.00  0.00    +0.000 C 
BRANCH  24  25
ATOM     25  O   UNL     1       3.229  14.282  17.481  0.00  0.00    +0.000 OA
ATOM     26  H   UNL     1       2.765  13.861  16.738  0.00  0.00    +0.000 HD
ENDBRANCH  24  25
ENDBRANCH  23  24
ENDBRANCH   5  23
TORSDOF 7
ENDMDL
