MODEL 1
REMARK VINA RESULT:      -9.1      0.000      0.000
REMARK  Name = 
REMARK  7 active torsions:
REMARK  status: ('A' for Active; 'I' for Inactive)
REMARK    1  A    between atoms: C_1  and  C_2
REMARK    2  A    between atoms: C_5  and  C_7
REMARK    3  A    between atoms: C_20  and  C_21
REMARK    4  A    between atoms: C_21  and  N_22
REMARK    5  A    between atoms: N_22  and  C_23
REMARK    6  A    between atoms: C_27  and  S_28
REMARK    7  A    between atoms: S_28  and  N_29
REMARK                            x       y       z     vdW  Elec       q    Type
REMARK                         _______ _______ _______ _____ _____    ______ ____
ROOT
ATOM      1  C   UNL     1       2.019   8.281  17.496  0.00  0.00    +0.000 C 
ATOM      2  C   UNL     1       2.494   7.014  18.124  0.00  0.00    +0.000 C 
ATOM      3  N   UNL     1       3.324   6.220  17.527  0.00  0.00    +0.000 NA
ATOM      4  N   UNL     1       3.639   5.202  18.419  0.00  0.00    +0.000 N 
ATOM      5  C   UNL     1       4.770   4.389  18.252  0.00  0.00    +0.000 C 
ATOM      6  O   UNL     1       5.118   3.545  19.076  0.00  0.00    +0.000 OA
ATOM      7  C   UNL     1       2.891   5.284  19.607  0.00  0.00    +0.000 C 
ATOM      8  O   UNL     1       2.858   4.539  20.575  0.00  0.00    +0.000 OA
ATOM      9  C   UNL     1       2.085   6.553  19.486  0.00  0.00    +0.000 C 
ENDROOT
BRANCH   5  10
ATOM     10  C   UNL     1       5.603   4.593  17.017  0.00  0.00    +0.000 A 
ATOM     11  C   UNL     1       5.178   4.130  15.829  0.00  0.00    +0.000 A 
ATOM     12  C   UNL     1       5.983   4.260  14.635  0.00  0.00    +0.000 A 
ATOM     13  C   UNL     1       5.683   3.554  13.468  0.00  0.00    +0.000 A 
ATOM     14  C   UNL     1       6.456   3.751  12.325  0.00  0.00    +0.000 A 
ATOM     15  C   UNL     1       7.520   4.656  12.347  0.00  0.00    +0.000 A 
ATOM     16  C   UNL     1       7.839   5.337  13.523  0.00  0.00    +0.000 A 
ATOM     17  C   UNL     1       7.074   5.111  14.662  0.00  0.00    +0.000 A 
ATOM     18  O   UNL     1       7.449   5.737  15.863  0.00  0.00    +0.000 OA
ATOM     19  C   UNL     1       6.835   5.422  17.081  0.00  0.00    +0.000 A 
ATOM     20  O   UNL     1       7.313   5.831  18.134  0.00  0.00    +0.000 OA
ENDBRANCH   5  10
BRANCH   9  21
ATOM     21  C   UNL     1       2.509   7.529  20.570  0.00  0.00    +0.000 C 
BRANCH  21  22
ATOM     22  N   UNL     1       1.424   7.719  21.528  0.00  0.00    +0.000 N 
ATOM     23  H   UNL     1       1.632   7.354  22.468  0.00  0.00    +0.000 HD
BRANCH  22  24
ATOM     24  C   UNL     1       0.730   8.926  21.601  0.00  0.00    +0.000 A 
ATOM     25  C   UNL     1       0.184   9.307  22.838  0.00  0.00    +0.000 A 
ATOM     26  C   UNL     1      -0.627  10.440  22.967  0.00  0.00    +0.000 A 
ATOM     27  C   UNL     1      -0.913  11.215  21.849  0.00  0.00    +0.000 A 
ATOM     28  C   UNL     1      -0.365  10.852  20.620  0.00  0.00    +0.000 A 
ATOM     29  C   UNL     1       0.429   9.709  20.487  0.00  0.00    +0.000 A 
BRANCH  28  30
ATOM     30  S   UNL     1      -0.649  11.859  19.201  0.00  0.00    +0.000 S 
ATOM     31  O   UNL     1      -1.622  11.223  18.344  0.00  0.00    +0.000 OA
ATOM     32  O   UNL     1      -0.747  13.244  19.604  0.00  0.00    +0.000 OA
BRANCH  30  33
ATOM     33  N   UNL     1       0.829  11.699  18.422  0.00  0.00    +0.000 NA
ATOM     34  H   UNL     1       0.772  12.048  17.466  0.00  0.00    +0.000 HD
ATOM     35  H   UNL     1       1.578  12.096  18.986  0.00  0.00    +0.000 HD
ENDBRANCH  30  33
ENDBRANCH  28  30
ENDBRANCH  22  24
ENDBRANCH  21  22
ENDBRANCH   9  21
TORSDOF 6
ENDMDL
MODEL 2
REMARK VINA RESULT:      -8.6      1.202      1.266
REMARK  Name = 
REMARK  7 active torsions:
REMARK  status: ('A' for Active; 'I' for Inactive)
REMARK    1  A    between atoms: C_1  and  C_2
REMARK    2  A    between atoms: C_5  and  C_7
REMARK    3  A    between atoms: C_20  and  C_21
REMARK    4  A    between atoms: C_21  and  N_22
REMARK    5  A    between atoms: N_22  and  C_23
REMARK    6  A    between atoms: C_27  and  S_28
REMARK    7  A    between atoms: S_28  and  N_29
REMARK                            x       y       z     vdW  Elec       q    Type
REMARK                         _______ _______ _______ _____ _____    ______ ____
ROOT
ATOM      1  C   UNL     1       1.944   8.648  17.578  0.00  0.00    +0.000 C 
ATOM      2  C   UNL     1       2.298   7.337  18.194  0.00  0.00    +0.000 C 
ATOM      3  N   UNL     1       3.107   6.504  17.621  0.00  0.00    +0.000 NA
ATOM      4  N   UNL     1       3.302   5.444  18.498  0.00  0.00    +0.000 N 
ATOM      5  C   UNL     1       4.384   4.561  18.370  0.00  0.00    +0.000 C 
ATOM      6  O   UNL     1       4.629   3.675  19.187  0.00  0.00    +0.000 OA
ATOM      7  C   UNL     1       2.495   5.546  19.646  0.00  0.00    +0.000 C 
ATOM      8  O   UNL     1       2.357   4.781  20.588  0.00  0.00    +0.000 OA
ATOM      9  C   UNL     1       1.783   6.870  19.517  0.00  0.00    +0.000 C 
ENDROOT
BRANCH   5  10
ATOM     10  C   UNL     1       5.299   4.740  17.190  0.00  0.00    +0.000 A 
ATOM     11  C   UNL     1       4.954   4.252  15.986  0.00  0.00    +0.000 A 
ATOM     12  C   UNL     1       5.836   4.357  14.846  0.00  0.00    +0.000 A 
ATOM     13  C   UNL     1       5.615   3.627  13.677  0.00  0.00    +0.000 A 
ATOM     14  C   UNL     1       6.461   3.800  12.584  0.00  0.00    +0.000 A 
ATOM     15  C   UNL     1       7.522   4.706  12.658  0.00  0.00    +0.000 A 
ATOM     16  C   UNL     1       7.763   5.412  13.838  0.00  0.00    +0.000 A 
ATOM     17  C   UNL     1       6.923   5.210  14.927  0.00  0.00    +0.000 A 
ATOM     18  O   UNL     1       7.218   5.861  16.138  0.00  0.00    +0.000 OA
ATOM     19  C   UNL     1       6.524   5.571  17.319  0.00  0.00    +0.000 A 
ATOM     20  O   UNL     1       6.931   6.002  18.392  0.00  0.00    +0.000 OA
ENDBRANCH   5  10
BRANCH   9  21
ATOM     21  C   UNL     1       2.208   7.786  20.651  0.00  0.00    +0.000 C 
BRANCH  21  22
ATOM     22  N   UNL     1       1.039   8.434  21.240  0.00  0.00    +0.000 N 
ATOM     23  H   UNL     1       1.032   8.421  22.269  0.00  0.00    +0.000 HD
BRANCH  22  24
ATOM     24  C   UNL     1       0.567   9.652  20.751  0.00  0.00    +0.000 A 
ATOM     25  C   UNL     1       1.106  10.836  21.280  0.00  0.00    +0.000 A 
ATOM     26  C   UNL     1       0.602  12.094  20.931  0.00  0.00    +0.000 A 
ATOM     27  C   UNL     1      -0.463  12.189  20.043  0.00  0.00    +0.000 A 
ATOM     28  C   UNL     1      -0.995  11.020  19.502  0.00  0.00    +0.000 A 
ATOM     29  C   UNL     1      -0.505   9.761  19.866  0.00  0.00    +0.000 A 
BRANCH  28  30
ATOM     30  S   UNL     1      -2.296  11.114  18.316  0.00  0.00    +0.000 S 
ATOM     31  O   UNL     1      -2.404   9.855  17.617  0.00  0.00    +0.000 OA
ATOM     32  O   UNL     1      -3.435  11.784  18.901  0.00  0.00    +0.000 OA
BRANCH  30  33
ATOM     33  N   UNL     1      -1.624  12.194  17.222  0.00  0.00    +0.000 NA
ATOM     34  H   UNL     1      -1.192  11.697  16.444  0.00  0.00    +0.000 HD
ATOM     35  H   UNL     1      -2.301  12.908  16.959  0.00  0.00    +0.000 HD
ENDBRANCH  30  33
ENDBRANCH  28  30
ENDBRANCH  22  24
ENDBRANCH  21  22
ENDBRANCH   9  21
TORSDOF 6
ENDMDL
MODEL 3
REMARK VINA RESULT:      -8.6      3.465      5.867
REMARK  Name = 
REMARK  7 active torsions:
REMARK  status: ('A' for Active; 'I' for Inactive)
REMARK    1  A    between atoms: C_1  and  C_2
REMARK    2  A    between atoms: C_5  and  C_7
REMARK    3  A    between atoms: C_20  and  C_21
REMARK    4  A    between atoms: C_21  and  N_22
REMARK    5  A    between atoms: N_22  and  C_23
REMARK    6  A    between atoms: C_27  and  S_28
REMARK    7  A    between atoms: S_28  and  N_29
REMARK                            x       y       z     vdW  Elec       q    Type
REMARK                         _______ _______ _______ _____ _____    ______ ____
ROOT
ATOM      1  C   UNL     1      -0.189   8.860  22.273  0.00  0.00    +0.000 C 
ATOM      2  C   UNL     1       0.524   9.251  21.023  0.00  0.00    +0.000 C 
ATOM      3  N   UNL     1       1.358   8.457  20.430  0.00  0.00    +0.000 NA
ATOM      4  N   UNL     1       1.757   9.078  19.253  0.00  0.00    +0.000 N 
ATOM      5  C   UNL     1       2.352   8.367  18.201  0.00  0.00    +0.000 C 
ATOM      6  O   UNL     1       2.628   8.877  17.116  0.00  0.00    +0.000 OA
ATOM      7  C   UNL     1       1.240  10.381  19.136  0.00  0.00    +0.000 C 
ATOM      8  O   UNL     1       1.424  11.232  18.278  0.00  0.00    +0.000 OA
ATOM      9  C   UNL     1       0.336  10.561  20.329  0.00  0.00    +0.000 C 
ENDROOT
BRANCH   5  10
ATOM     10  C   UNL     1       2.631   6.905  18.413  0.00  0.00    +0.000 A 
ATOM     11  C   UNL     1       1.683   6.101  18.922  0.00  0.00    +0.000 A 
ATOM     12  C   UNL     1       1.938   4.704  19.190  0.00  0.00    +0.000 A 
ATOM     13  C   UNL     1       1.066   3.933  19.960  0.00  0.00    +0.000 A 
ATOM     14  C   UNL     1       1.326   2.577  20.150  0.00  0.00    +0.000 A 
ATOM     15  C   UNL     1       2.452   1.992  19.563  0.00  0.00    +0.000 A 
ATOM     16  C   UNL     1       3.342   2.771  18.820  0.00  0.00    +0.000 A 
ATOM     17  C   UNL     1       3.081   4.127  18.662  0.00  0.00    +0.000 A 
ATOM     18  O   UNL     1       4.020   4.921  17.982  0.00  0.00    +0.000 OA
ATOM     19  C   UNL     1       3.911   6.316  17.937  0.00  0.00    +0.000 A 
ATOM     20  O   UNL     1       4.842   6.992  17.514  0.00  0.00    +0.000 OA
ENDBRANCH   5  10
BRANCH   9  21
ATOM     21  C   UNL     1      -1.094  10.758  19.858  0.00  0.00    +0.000 C 
BRANCH  21  22
ATOM     22  N   UNL     1      -1.346   9.957  18.664  0.00  0.00    +0.000 N 
ATOM     23  H   UNL     1      -1.299   8.942  18.828  0.00  0.00    +0.000 HD
BRANCH  22  24
ATOM     24  C   UNL     1      -2.382  10.276  17.788  0.00  0.00    +0.000 A 
ATOM     25  C   UNL     1      -2.233   9.944  16.431  0.00  0.00    +0.000 A 
ATOM     26  C   UNL     1      -3.171  10.337  15.470  0.00  0.00    +0.000 A 
ATOM     27  C   UNL     1      -4.281  11.080  15.852  0.00  0.00    +0.000 A 
ATOM     28  C   UNL     1      -4.445  11.403  17.198  0.00  0.00    +0.000 A 
ATOM     29  C   UNL     1      -3.497  11.028  18.156  0.00  0.00    +0.000 A 
BRANCH  28  30
ATOM     30  S   UNL     1      -5.882  12.279  17.722  0.00  0.00    +0.000 S 
ATOM     31  O   UNL     1      -6.199  13.307  16.759  0.00  0.00    +0.000 OA
ATOM     32  O   UNL     1      -6.863  11.342  18.220  0.00  0.00    +0.000 OA
BRANCH  30  33
ATOM     33  N   UNL     1      -5.269  13.078  19.065  0.00  0.00    +0.000 NA
ATOM     34  H   UNL     1      -4.569  13.764  18.788  0.00  0.00    +0.000 HD
ATOM     35  H   UNL     1      -6.025  13.439  19.645  0.00  0.00    +0.000 HD
ENDBRANCH  30  33
ENDBRANCH  28  30
ENDBRANCH  22  24
ENDBRANCH  21  22
ENDBRANCH   9  21
TORSDOF 6
ENDMDL
MODEL 4
REMARK VINA RESULT:      -8.5      1.650      2.434
REMARK  Name = 
REMARK  7 active torsions:
REMARK  status: ('A' for Active; 'I' for Inactive)
REMARK    1  A    between atoms: C_1  and  C_2
REMARK    2  A    between atoms: C_5  and  C_7
REMARK    3  A    between atoms: C_20  and  C_21
REMARK    4  A    between atoms: C_21  and  N_22
REMARK    5  A    between atoms: N_22  and  C_23
REMARK    6  A    between atoms: C_27  and  S_28
REMARK    7  A    between atoms: S_28  and  N_29
REMARK                            x       y       z     vdW  Elec       q    Type
REMARK                         _______ _______ _______ _____ _____    ______ ____
ROOT
ATOM      1  C   UNL     1       1.004   4.445  17.072  0.00  0.00    +0.000 C 
ATOM      2  C   UNL     1       2.182   4.144  17.935  0.00  0.00    +0.000 C 
ATOM      3  N   UNL     1       3.378   4.031  17.452  0.00  0.00    +0.000 NA
ATOM      4  N   UNL     1       4.245   3.858  18.524  0.00  0.00    +0.000 N 
ATOM      5  C   UNL     1       5.626   4.070  18.407  0.00  0.00    +0.000 C 
ATOM      6  O   UNL     1       6.398   4.014  19.363  0.00  0.00    +0.000 OA
ATOM      7  C   UNL     1       3.561   3.746  19.749  0.00  0.00    +0.000 C 
ATOM      8  O   UNL     1       3.985   3.530  20.875  0.00  0.00    +0.000 OA
ATOM      9  C   UNL     1       2.107   3.969  19.418  0.00  0.00    +0.000 C 
ENDROOT
BRANCH   5  10
ATOM     10  C   UNL     1       6.169   4.414  17.048  0.00  0.00    +0.000 A 
ATOM     11  C   UNL     1       5.696   3.795  15.953  0.00  0.00    +0.000 A 
ATOM     12  C   UNL     1       6.237   4.062  14.639  0.00  0.00    +0.000 A 
ATOM     13  C   UNL     1       5.950   3.242  13.547  0.00  0.00    +0.000 A 
ATOM     14  C   UNL     1       6.451   3.567  12.288  0.00  0.00    +0.000 A 
ATOM     15  C   UNL     1       7.231   4.715  12.121  0.00  0.00    +0.000 A 
ATOM     16  C   UNL     1       7.545   5.517  13.220  0.00  0.00    +0.000 A 
ATOM     17  C   UNL     1       7.057   5.165  14.473  0.00  0.00    +0.000 A 
ATOM     18  O   UNL     1       7.443   5.929  15.588  0.00  0.00    +0.000 OA
ATOM     19  C   UNL     1       7.135   5.533  16.895  0.00  0.00    +0.000 A 
ATOM     20  O   UNL     1       7.651   6.107  17.848  0.00  0.00    +0.000 OA
ENDBRANCH   5  10
BRANCH   9  21
ATOM     21  C   UNL     1       1.615   5.224  20.117  0.00  0.00    +0.000 C 
BRANCH  21  22
ATOM     22  N   UNL     1       2.518   6.339  19.846  0.00  0.00    +0.000 N 
ATOM     23  H   UNL     1       3.323   6.087  19.257  0.00  0.00    +0.000 HD
BRANCH  22  24
ATOM     24  C   UNL     1       2.026   7.600  19.511  0.00  0.00    +0.000 A 
ATOM     25  C   UNL     1       2.246   8.076  18.208  0.00  0.00    +0.000 A 
ATOM     26  C   UNL     1       1.891   9.376  17.830  0.00  0.00    +0.000 A 
ATOM     27  C   UNL     1       1.310  10.231  18.758  0.00  0.00    +0.000 A 
ATOM     28  C   UNL     1       1.076   9.763  20.050  0.00  0.00    +0.000 A 
ATOM     29  C   UNL     1       1.448   8.471  20.434  0.00  0.00    +0.000 A 
BRANCH  28  30
ATOM     30  S   UNL     1       0.271  10.800  21.227  0.00  0.00    +0.000 S 
ATOM     31  O   UNL     1      -1.024  11.189  20.722  0.00  0.00    +0.000 OA
ATOM     32  O   UNL     1       0.465  10.264  22.554  0.00  0.00    +0.000 OA
BRANCH  30  33
ATOM     33  N   UNL     1       1.237  12.169  21.126  0.00  0.00    +0.000 NA
ATOM     34  H   UNL     1       1.364  12.449  20.155  0.00  0.00    +0.000 HD
ATOM     35  H   UNL     1       0.893  12.899  21.747  0.00  0.00    +0.000 HD
ENDBRANCH  30  33
ENDBRANCH  28  30
ENDBRANCH  22  24
ENDBRANCH  21  22
ENDBRANCH   9  21
TORSDOF 6
ENDMDL
MODEL 5
REMARK VINA RESULT:      -8.2      3.494      6.094
REMARK  Name = 
REMARK  7 active torsions:
REMARK  status: ('A' for Active; 'I' for Inactive)
REMARK    1  A    between atoms: C_1  and  C_2
REMARK    2  A    between atoms: C_5  and  C_7
REMARK    3  A    between atoms: C_20  and  C_21
REMARK    4  A    between atoms: C_21  and  N_22
REMARK    5  A    between atoms: N_22  and  C_23
REMARK    6  A    between atoms: C_27  and  S_28
REMARK    7  A    between atoms: S_28  and  N_29
REMARK                            x       y       z     vdW  Elec       q    Type
REMARK                         _______ _______ _______ _____ _____    ______ ____
ROOT
ATOM      1  C   UNL     1       0.466   9.318  22.819  0.00  0.00    +0.000 C 
ATOM      2  C   UNL     1       0.877   9.532  21.401  0.00  0.00    +0.000 C 
ATOM      3  N   UNL     1       1.664   8.712  20.782  0.00  0.00    +0.000 NA
ATOM      4  N   UNL     1       1.757   9.141  19.463  0.00  0.00    +0.000 N 
ATOM      5  C   UNL     1       2.213   8.301  18.437  0.00  0.00    +0.000 C 
ATOM      6  O   UNL     1       2.216   8.629  17.252  0.00  0.00    +0.000 OA
ATOM      7  C   UNL     1       1.084  10.358  19.250  0.00  0.00    +0.000 C 
ATOM      8  O   UNL     1       1.003  11.053  18.249  0.00  0.00    +0.000 OA
ATOM      9  C   UNL     1       0.413  10.679  20.562  0.00  0.00    +0.000 C 
ENDROOT
BRANCH   5  10
ATOM     10  C   UNL     1       2.690   6.926  18.817  0.00  0.00    +0.000 A 
ATOM     11  C   UNL     1       1.961   6.163  19.649  0.00  0.00    +0.000 A 
ATOM     12  C   UNL     1       2.419   4.860  20.078  0.00  0.00    +0.000 A 
ATOM     13  C   UNL     1       1.816   4.183  21.138  0.00  0.00    +0.000 A 
ATOM     14  C   UNL     1       2.258   2.906  21.482  0.00  0.00    +0.000 A 
ATOM     15  C   UNL     1       3.295   2.307  20.762  0.00  0.00    +0.000 A 
ATOM     16  C   UNL     1       3.920   2.999  19.723  0.00  0.00    +0.000 A 
ATOM     17  C   UNL     1       3.484   4.281  19.408  0.00  0.00    +0.000 A 
ATOM     18  O   UNL     1       4.169   5.003  18.416  0.00  0.00    +0.000 OA
ATOM     19  C   UNL     1       3.899   6.354  18.169  0.00  0.00    +0.000 A 
ATOM     20  O   UNL     1       4.643   7.006  17.444  0.00  0.00    +0.000 OA
ENDBRANCH   5  10
BRANCH   9  21
ATOM     21  C   UNL     1      -1.094  10.678  20.375  0.00  0.00    +0.000 C 
BRANCH  21  22
ATOM     22  N   UNL     1      -1.485  11.716  19.427  0.00  0.00    +0.000 N 
ATOM     23  H   UNL     1      -0.690  12.163  18.949  0.00  0.00    +0.000 HD
BRANCH  22  24
ATOM     24  C   UNL     1      -2.553  11.527  18.551  0.00  0.00    +0.000 A 
ATOM     25  C   UNL     1      -2.273  11.117  17.237  0.00  0.00    +0.000 A 
ATOM     26  C   UNL     1      -3.276  11.022  16.266  0.00  0.00    +0.000 A 
ATOM     27  C   UNL     1      -4.587  11.345  16.594  0.00  0.00    +0.000 A 
ATOM     28  C   UNL     1      -4.877  11.740  17.899  0.00  0.00    +0.000 A 
ATOM     29  C   UNL     1      -3.871  11.854  18.864  0.00  0.00    +0.000 A 
BRANCH  28  30
ATOM     30  S   UNL     1      -6.543  12.083  18.363  0.00  0.00    +0.000 S 
ATOM     31  O   UNL     1      -6.562  12.724  19.656  0.00  0.00    +0.000 OA
ATOM     32  O   UNL     1      -7.265  12.599  17.222  0.00  0.00    +0.000 OA
BRANCH  30  33
ATOM     33  N   UNL     1      -7.109  10.523  18.611  0.00  0.00    +0.000 NA
ATOM     34  H   UNL     1      -7.904  10.327  18.005  0.00  0.00    +0.000 HD
ATOM     35  H   UNL     1      -6.346   9.850  18.558  0.00  0.00    +0.000 HD
ENDBRANCH  30  33
ENDBRANCH  28  30
ENDBRANCH  22  24
ENDBRANCH  21  22
ENDBRANCH   9  21
TORSDOF 6
ENDMDL
MODEL 6
REMARK VINA RESULT:      -8.0      1.458      1.702
REMARK  Name = 
REMARK  7 active torsions:
REMARK  status: ('A' for Active; 'I' for Inactive)
REMARK    1  A    between atoms: C_1  and  C_2
REMARK    2  A    between atoms: C_5  and  C_7
REMARK    3  A    between atoms: C_20  and  C_21
REMARK    4  A    between atoms: C_21  and  N_22
REMARK    5  A    between atoms: N_22  and  C_23
REMARK    6  A    between atoms: C_27  and  S_28
REMARK    7  A    between atoms: S_28  and  N_29
REMARK                            x       y       z     vdW  Elec       q    Type
REMARK                         _______ _______ _______ _____ _____    ______ ____
ROOT
ATOM      1  C   UNL     1       1.956   8.655  17.640  0.00  0.00    +0.000 C 
ATOM      2  C   UNL     1       2.317   7.344  18.254  0.00  0.00    +0.000 C 
ATOM      3  N   UNL     1       3.118   6.509  17.673  0.00  0.00    +0.000 NA
ATOM      4  N   UNL     1       3.323   5.452  18.551  0.00  0.00    +0.000 N 
ATOM      5  C   UNL     1       4.403   4.568  18.411  0.00  0.00    +0.000 C 
ATOM      6  O   UNL     1       4.657   3.683  19.227  0.00  0.00    +0.000 OA
ATOM      7  C   UNL     1       2.531   5.558  19.708  0.00  0.00    +0.000 C 
ATOM      8  O   UNL     1       2.405   4.795  20.654  0.00  0.00    +0.000 OA
ATOM      9  C   UNL     1       1.819   6.881  19.585  0.00  0.00    +0.000 C 
ENDROOT
BRANCH   5  10
ATOM     10  C   UNL     1       5.302   4.742  17.218  0.00  0.00    +0.000 A 
ATOM     11  C   UNL     1       4.947   4.241  16.023  0.00  0.00    +0.000 A 
ATOM     12  C   UNL     1       5.815   4.342  14.871  0.00  0.00    +0.000 A 
ATOM     13  C   UNL     1       5.586   3.600  13.712  0.00  0.00    +0.000 A 
ATOM     14  C   UNL     1       6.419   3.769  12.608  0.00  0.00    +0.000 A 
ATOM     15  C   UNL     1       7.473   4.685  12.661  0.00  0.00    +0.000 A 
ATOM     16  C   UNL     1       7.722   5.403  13.832  0.00  0.00    +0.000 A 
ATOM     17  C   UNL     1       6.897   5.204  14.933  0.00  0.00    +0.000 A 
ATOM     18  O   UNL     1       7.200   5.868  16.134  0.00  0.00    +0.000 OA
ATOM     19  C   UNL     1       6.522   5.584  17.325  0.00  0.00    +0.000 A 
ATOM     20  O   UNL     1       6.938   6.028  18.390  0.00  0.00    +0.000 OA
ENDBRANCH   5  10
BRANCH   9  21
ATOM     21  C   UNL     1       2.258   7.800  20.711  0.00  0.00    +0.000 C 
BRANCH  21  22
ATOM     22  N   UNL     1       1.100   8.466  21.300  0.00  0.00    +0.000 N 
ATOM     23  H   UNL     1       1.099   8.464  22.329  0.00  0.00    +0.000 HD
BRANCH  22  24
ATOM     24  C   UNL     1       0.636   9.682  20.800  0.00  0.00    +0.000 A 
ATOM     25  C   UNL     1      -0.584   9.695  20.105  0.00  0.00    +0.000 A 
ATOM     26  C   UNL     1      -1.058  10.848  19.470  0.00  0.00    +0.000 A 
ATOM     27  C   UNL     1      -0.309  12.018  19.515  0.00  0.00    +0.000 A 
ATOM     28  C   UNL     1       0.897  12.019  20.214  0.00  0.00    +0.000 A 
ATOM     29  C   UNL     1       1.380  10.861  20.832  0.00  0.00    +0.000 A 
BRANCH  28  30
ATOM     30  S   UNL     1       1.831  13.508  20.353  0.00  0.00    +0.000 S 
ATOM     31  O   UNL     1       0.948  14.644  20.233  0.00  0.00    +0.000 OA
ATOM     32  O   UNL     1       2.795  13.375  21.420  0.00  0.00    +0.000 OA
BRANCH  30  33
ATOM     33  N   UNL     1       2.702  13.446  18.920  0.00  0.00    +0.000 NA
ATOM     34  H   UNL     1       2.075  13.402  18.118  0.00  0.00    +0.000 HD
ATOM     35  H   UNL     1       3.396  14.193  18.888  0.00  0.00    +0.000 HD
ENDBRANCH  30  33
ENDBRANCH  28  30
ENDBRANCH  22  24
ENDBRANCH  21  22
ENDBRANCH   9  21
TORSDOF 6
ENDMDL
MODEL 7
REMARK VINA RESULT:      -8.0      3.638     11.126
REMARK  Name = 
REMARK  7 active torsions:
REMARK  status: ('A' for Active; 'I' for Inactive)
REMARK    1  A    between atoms: C_1  and  C_2
REMARK    2  A    between atoms: C_5  and  C_7
REMARK    3  A    between atoms: C_20  and  C_21
REMARK    4  A    between atoms: C_21  and  N_22
REMARK    5  A    between atoms: N_22  and  C_23
REMARK    6  A    between atoms: C_27  and  S_28
REMARK    7  A    between atoms: S_28  and  N_29
REMARK                            x       y       z     vdW  Elec       q    Type
REMARK                         _______ _______ _______ _____ _____    ______ ____
ROOT
ATOM      1  C   UNL     1      -2.485   9.937  17.709  0.00  0.00    +0.000 C 
ATOM      2  C   UNL     1      -1.442  10.709  18.445  0.00  0.00    +0.000 C 
ATOM      3  N   UNL     1      -1.740  11.521  19.408  0.00  0.00    +0.000 NA
ATOM      4  N   UNL     1      -0.545  11.989  19.942  0.00  0.00    +0.000 N 
ATOM      5  C   UNL     1      -0.477  12.581  21.211  0.00  0.00    +0.000 C 
ATOM      6  O   UNL     1       0.581  12.917  21.740  0.00  0.00    +0.000 OA
ATOM      7  C   UNL     1       0.574  11.541  19.215  0.00  0.00    +0.000 C 
ATOM      8  O   UNL     1       1.761  11.795  19.354  0.00  0.00    +0.000 OA
ATOM      9  C   UNL     1       0.023  10.609  18.166  0.00  0.00    +0.000 C 
ENDROOT
BRANCH   5  10
ATOM     10  C   UNL     1      -1.765  12.780  21.961  0.00  0.00    +0.000 A 
ATOM     11  C   UNL     1      -2.587  13.793  21.639  0.00  0.00    +0.000 A 
ATOM     12  C   UNL     1      -3.804  14.045  22.378  0.00  0.00    +0.000 A 
ATOM     13  C   UNL     1      -4.517  15.235  22.235  0.00  0.00    +0.000 A 
ATOM     14  C   UNL     1      -5.713  15.413  22.928  0.00  0.00    +0.000 A 
ATOM     15  C   UNL     1      -6.197  14.397  23.757  0.00  0.00    +0.000 A 
ATOM     16  C   UNL     1      -5.467  13.219  23.927  0.00  0.00    +0.000 A 
ATOM     17  C   UNL     1      -4.264  13.069  23.247  0.00  0.00    +0.000 A 
ATOM     18  O   UNL     1      -3.494  11.917  23.483  0.00  0.00    +0.000 OA
ATOM     19  C   UNL     1      -2.198  11.779  22.971  0.00  0.00    +0.000 A 
ATOM     20  O   UNL     1      -1.480  10.862  23.356  0.00  0.00    +0.000 OA
ENDBRANCH   5  10
BRANCH   9  21
ATOM     21  C   UNL     1       0.555   9.207  18.402  0.00  0.00    +0.000 C 
BRANCH  21  22
ATOM     22  N   UNL     1       1.934   9.106  17.933  0.00  0.00    +0.000 N 
ATOM     23  H   UNL     1       2.508   9.932  18.151  0.00  0.00    +0.000 HD
BRANCH  22  24
ATOM     24  C   UNL     1       2.666   7.930  18.096  0.00  0.00    +0.000 A 
ATOM     25  C   UNL     1       2.371   7.108  19.196  0.00  0.00    +0.000 A 
ATOM     26  C   UNL     1       3.138   5.977  19.496  0.00  0.00    +0.000 A 
ATOM     27  C   UNL     1       4.227   5.649  18.697  0.00  0.00    +0.000 A 
ATOM     28  C   UNL     1       4.519   6.452  17.596  0.00  0.00    +0.000 A 
ATOM     29  C   UNL     1       3.765   7.593  17.307  0.00  0.00    +0.000 A 
BRANCH  28  30
ATOM     30  S   UNL     1       5.848   6.017  16.521  0.00  0.00    +0.000 S 
ATOM     31  O   UNL     1       6.408   4.752  16.933  0.00  0.00    +0.000 OA
ATOM     32  O   UNL     1       5.475   6.301  15.154  0.00  0.00    +0.000 OA
BRANCH  30  33
ATOM     33  N   UNL     1       6.974   7.184  16.954  0.00  0.00    +0.000 NA
ATOM     34  H   UNL     1       7.422   6.943  17.837  0.00  0.00    +0.000 HD
ATOM     35  H   UNL     1       7.611   7.374  16.182  0.00  0.00    +0.000 HD
ENDBRANCH  30  33
ENDBRANCH  28  30
ENDBRANCH  22  24
ENDBRANCH  21  22
ENDBRANCH   9  21
TORSDOF 6
ENDMDL
MODEL 8
REMARK VINA RESULT:      -8.0      1.195      1.365
REMARK  Name = 
REMARK  7 active torsions:
REMARK  status: ('A' for Active; 'I' for Inactive)
REMARK    1  A    between atoms: C_1  and  C_2
REMARK    2  A    between atoms: C_5  and  C_7
REMARK    3  A    between atoms: C_20  and  C_21
REMARK    4  A    between atoms: C_21  and  N_22
REMARK    5  A    between atoms: N_22  and  C_23
REMARK    6  A    between atoms: C_27  and  S_28
REMARK    7  A    between atoms: S_28  and  N_29
REMARK                            x       y       z     vdW  Elec       q    Type
REMARK                         _______ _______ _______ _____ _____    ______ ____
ROOT
ATOM      1  C   UNL     1       1.793   8.108  17.486  0.00  0.00    +0.000 C 
ATOM      2  C   UNL     1       2.331   6.887  18.153  0.00  0.00    +0.000 C 
ATOM      3  N   UNL     1       3.209   6.124  17.586  0.00  0.00    +0.000 NA
ATOM      4  N   UNL     1       3.571   5.149  18.508  0.00  0.00    +0.000 N 
ATOM      5  C   UNL     1       4.746   4.396  18.373  0.00  0.00    +0.000 C 
ATOM      6  O   UNL     1       5.133   3.596  19.223  0.00  0.00    +0.000 OA
ATOM      7  C   UNL     1       2.808   5.223  19.687  0.00  0.00    +0.000 C 
ATOM      8  O   UNL     1       2.807   4.504  20.676  0.00  0.00    +0.000 OA
ATOM      9  C   UNL     1       1.935   6.442  19.524  0.00  0.00    +0.000 C 
ENDROOT
BRANCH   5  10
ATOM     10  C   UNL     1       5.579   4.611  17.139  0.00  0.00    +0.000 A 
ATOM     11  C   UNL     1       5.169   4.131  15.953  0.00  0.00    +0.000 A 
ATOM     12  C   UNL     1       5.974   4.272  14.761  0.00  0.00    +0.000 A 
ATOM     13  C   UNL     1       5.696   3.553  13.598  0.00  0.00    +0.000 A 
ATOM     14  C   UNL     1       6.467   3.760  12.456  0.00  0.00    +0.000 A 
ATOM     15  C   UNL     1       7.510   4.690  12.476  0.00  0.00    +0.000 A 
ATOM     16  C   UNL     1       7.809   5.386  13.648  0.00  0.00    +0.000 A 
ATOM     17  C   UNL     1       7.046   5.150  14.786  0.00  0.00    +0.000 A 
ATOM     18  O   UNL     1       7.402   5.791  15.984  0.00  0.00    +0.000 OA
ATOM     19  C   UNL     1       6.791   5.470  17.203  0.00  0.00    +0.000 A 
ATOM     20  O   UNL     1       7.256   5.896  18.254  0.00  0.00    +0.000 OA
ENDBRANCH   5  10
BRANCH   9  21
ATOM     21  C   UNL     1       2.294   7.469  20.583  0.00  0.00    +0.000 C 
BRANCH  21  22
ATOM     22  N   UNL     1       1.708   8.763  20.249  0.00  0.00    +0.000 N 
ATOM     23  H   UNL     1       1.274   8.794  19.316  0.00  0.00    +0.000 HD
BRANCH  22  24
ATOM     24  C   UNL     1       0.948   9.472  21.178  0.00  0.00    +0.000 A 
ATOM     25  C   UNL     1       0.268   8.750  22.173  0.00  0.00    +0.000 A 
ATOM     26  C   UNL     1      -0.610   9.375  23.066  0.00  0.00    +0.000 A 
ATOM     27  C   UNL     1      -0.828  10.744  22.975  0.00  0.00    +0.000 A 
ATOM     28  C   UNL     1      -0.147  11.471  22.001  0.00  0.00    +0.000 A 
ATOM     29  C   UNL     1       0.715  10.844  21.095  0.00  0.00    +0.000 A 
BRANCH  28  30
ATOM     30  S   UNL     1      -0.346  13.221  21.911  0.00  0.00    +0.000 S 
ATOM     31  O   UNL     1      -1.088  13.562  20.720  0.00  0.00    +0.000 OA
ATOM     32  O   UNL     1      -0.685  13.735  23.219  0.00  0.00    +0.000 OA
BRANCH  30  33
ATOM     33  N   UNL     1       1.239  13.686  21.618  0.00  0.00    +0.000 NA
ATOM     34  H   UNL     1       1.639  13.142  20.855  0.00  0.00    +0.000 HD
ATOM     35  H   UNL     1       1.303  14.697  21.509  0.00  0.00    +0.000 HD
ENDBRANCH  30  33
ENDBRANCH  28  30
ENDBRANCH  22  24
ENDBRANCH  21  22
ENDBRANCH   9  21
TORSDOF 6
ENDMDL
MODEL 9
REMARK VINA RESULT:      -8.0      3.770     11.263
REMARK  Name = 
REMARK  7 active torsions:
REMARK  status: ('A' for Active; 'I' for Inactive)
REMARK    1  A    between atoms: C_1  and  C_2
REMARK    2  A    between atoms: C_5  and  C_7
REMARK    3  A    between atoms: C_20  and  C_21
REMARK    4  A    between atoms: C_21  and  N_22
REMARK    5  A    between atoms: N_22  and  C_23
REMARK    6  A    between atoms: C_27  and  S_28
REMARK    7  A    between atoms: S_28  and  N_29
REMARK                            x       y       z     vdW  Elec       q    Type
REMARK                         _______ _______ _______ _____ _____    ______ ____
ROOT
ATOM      1  C   UNL     1      -0.061  13.179  18.315  0.00  0.00    +0.000 C 
ATOM      2  C   UNL     1       0.113  12.436  19.596  0.00  0.00    +0.000 C 
ATOM      3  N   UNL     1      -0.505  12.782  20.681  0.00  0.00    +0.000 NA
ATOM      4  N   UNL     1      -0.209  11.831  21.649  0.00  0.00    +0.000 N 
ATOM      5  C   UNL     1      -0.984  11.682  22.808  0.00  0.00    +0.000 C 
ATOM      6  O   UNL     1      -0.797  10.788  23.632  0.00  0.00    +0.000 OA
ATOM      7  C   UNL     1       0.732  10.887  21.199  0.00  0.00    +0.000 C 
ATOM      8  O   UNL     1       1.264   9.957  21.786  0.00  0.00    +0.000 OA
ATOM      9  C   UNL     1       0.981  11.230  19.752  0.00  0.00    +0.000 C 
ENDROOT
BRANCH   5  10
ATOM     10  C   UNL     1      -2.114  12.650  23.024  0.00  0.00    +0.000 A 
ATOM     11  C   UNL     1      -3.375  12.297  22.725  0.00  0.00    +0.000 A 
ATOM     12  C   UNL     1      -4.476  13.223  22.868  0.00  0.00    +0.000 A 
ATOM     13  C   UNL     1      -5.730  12.965  22.312  0.00  0.00    +0.000 A 
ATOM     14  C   UNL     1      -6.775  13.863  22.520  0.00  0.00    +0.000 A 
ATOM     15  C   UNL     1      -6.569  15.012  23.289  0.00  0.00    +0.000 A 
ATOM     16  C   UNL     1      -5.306  15.286  23.817  0.00  0.00    +0.000 A 
ATOM     17  C   UNL     1      -4.267  14.393  23.580  0.00  0.00    +0.000 A 
ATOM     18  O   UNL     1      -2.980  14.714  24.045  0.00  0.00    +0.000 OA
ATOM     19  C   UNL     1      -1.859  13.952  23.694  0.00  0.00    +0.000 A 
ATOM     20  O   UNL     1      -0.733  14.366  23.946  0.00  0.00    +0.000 OA
ENDBRANCH   5  10
BRANCH   9  21
ATOM     21  C   UNL     1       0.524  10.080  18.871  0.00  0.00    +0.000 C 
BRANCH  21  22
ATOM     22  N   UNL     1       1.608   9.660  17.988  0.00  0.00    +0.000 N 
ATOM     23  H   UNL     1       2.293  10.403  17.789  0.00  0.00    +0.000 HD
BRANCH  22  24
ATOM     24  C   UNL     1       2.240   8.428  18.158  0.00  0.00    +0.000 A 
ATOM     25  C   UNL     1       1.879   7.641  19.264  0.00  0.00    +0.000 A 
ATOM     26  C   UNL     1       2.550   6.452  19.571  0.00  0.00    +0.000 A 
ATOM     27  C   UNL     1       3.606   6.029  18.773  0.00  0.00    +0.000 A 
ATOM     28  C   UNL     1       3.962   6.797  17.665  0.00  0.00    +0.000 A 
ATOM     29  C   UNL     1       3.305   7.996  17.370  0.00  0.00    +0.000 A 
BRANCH  28  30
ATOM     30  S   UNL     1       5.248   6.246  16.591  0.00  0.00    +0.000 S 
ATOM     31  O   UNL     1       5.078   6.844  15.288  0.00  0.00    +0.000 OA
ATOM     32  O   UNL     1       6.507   6.258  17.301  0.00  0.00    +0.000 OA
BRANCH  30  33
ATOM     33  N   UNL     1       4.820   4.632  16.420  0.00  0.00    +0.000 NA
ATOM     34  H   UNL     1       5.139   4.088  17.220  0.00  0.00    +0.000 HD
ATOM     35  H   UNL     1       3.829   4.543  16.202  0.00  0.00    +0.000 HD
ENDBRANCH  30  33
ENDBRANCH  28  30
ENDBRANCH  22  24
ENDBRANCH  21  22
ENDBRANCH   9  21
TORSDOF 6
ENDMDL
