MODEL 1
REMARK VINA RESULT:      -7.7      0.000      0.000
REMARK  Name = 
REMARK  5 active torsions:
REMARK  status: ('A' for Active; 'I' for Inactive)
REMARK    1  A    between atoms: C_2  and  C_3
REMARK    2  A    between atoms: C_2  and  C_15
REMARK    3  A    between atoms: C_3  and  N_4
REMARK    4  A    between atoms: N_7  and  C_8
REMARK    5  A    between atoms: C_18  and  N_19
REMARK                            x       y       z     vdW  Elec       q    Type
REMARK                         _______ _______ _______ _____ _____    ______ ____
ROOT
ATOM      1  C   UNL     1       4.276   3.766  19.210  0.00  0.00    +0.000 C 
ENDROOT
BRANCH   1   2
ATOM      2  N   UNL     1       3.288   4.763  19.654  0.00  0.00    +0.000 N 
ATOM      3  C   UNL     1       2.376   4.610  20.681  0.00  0.00    +0.000 A 
ATOM      4  C   UNL     1       1.711   5.798  20.799  0.00  0.00    +0.000 A 
ATOM      5  N   UNL     1       2.197   6.638  19.807  0.00  0.00    +0.000 N 
ATOM      6  C   UNL     1       3.130   5.978  19.097  0.00  0.00    +0.000 A 
BRANCH   5   7
ATOM      7  C   UNL     1       1.787   8.010  19.536  0.00  0.00    +0.000 A 
ATOM      8  C   UNL     1       2.050   8.557  18.281  0.00  0.00    +0.000 A 
ATOM      9  C   UNL     1       1.661   9.871  18.023  0.00  0.00    +0.000 A 
ATOM     10  C   UNL     1       1.036  10.623  19.018  0.00  0.00    +0.000 A 
ATOM     11  C   UNL     1       0.787  10.062  20.273  0.00  0.00    +0.000 A 
ATOM     12  C   UNL     1       1.154   8.742  20.536  0.00  0.00    +0.000 A 
ENDBRANCH   5   7
ENDBRANCH   1   2
BRANCH   1  14
ATOM     13  O   UNL     1       6.380   4.841  19.695  0.00  0.00    +0.000 OA
ATOM     14  C   UNL     1       5.609   4.405  18.842  0.00  0.00    +0.000 C 
BRANCH  14  15
ATOM     15  C   UNL     1       5.973   4.471  17.398  0.00  0.00    +0.000 A 
ATOM     16  C   UNL     1       5.148   3.913  16.408  0.00  0.00    +0.000 A 
ATOM     17  C   UNL     1       5.516   3.988  15.060  0.00  0.00    +0.000 A 
ATOM     18  C   UNL     1       6.714   4.620  14.699  0.00  0.00    +0.000 A 
ATOM     19  C   UNL     1       7.542   5.182  15.680  0.00  0.00    +0.000 A 
ATOM     20  C   UNL     1       7.170   5.101  17.028  0.00  0.00    +0.000 A 
BRANCH  18  21
ATOM     21  N   UNL     1       7.103   4.679  13.282  0.00  0.00    +0.000 N 
ATOM     22  O   UNL     1       7.899   5.563  12.944  0.00  0.00    +0.000 OA
ATOM     23  O   UNL     1       6.612   3.838  12.519  0.00  0.00    +0.000 OA
ENDBRANCH  18  21
ENDBRANCH  14  15
ENDBRANCH   1  14
TORSDOF 5
ENDMDL
MODEL 2
REMARK VINA RESULT:      -7.6      2.115      3.266
REMARK  Name = 
REMARK  5 active torsions:
REMARK  status: ('A' for Active; 'I' for Inactive)
REMARK    1  A    between atoms: C_2  and  C_3
REMARK    2  A    between atoms: C_2  and  C_15
REMARK    3  A    between atoms: C_3  and  N_4
REMARK    4  A    between atoms: N_7  and  C_8
REMARK    5  A    between atoms: C_18  and  N_19
REMARK                            x       y       z     vdW  Elec       q    Type
REMARK                         _______ _______ _______ _____ _____    ______ ____
ROOT
ATOM      1  C   UNL     1       2.957   6.144  19.577  0.00  0.00    +0.000 C 
ENDROOT
BRANCH   1   2
ATOM      2  N   UNL     1       2.243   7.431  19.576  0.00  0.00    +0.000 N 
ATOM      3  C   UNL     1       2.061   8.265  18.488  0.00  0.00    +0.000 A 
ATOM      4  C   UNL     1       1.285   9.306  18.915  0.00  0.00    +0.000 A 
ATOM      5  N   UNL     1       1.051   9.113  20.268  0.00  0.00    +0.000 N 
ATOM      6  C   UNL     1       1.672   7.986  20.661  0.00  0.00    +0.000 A 
BRANCH   5   7
ATOM      7  C   UNL     1       0.275   9.968  21.160  0.00  0.00    +0.000 A 
ATOM      8  C   UNL     1      -0.187   9.443  22.365  0.00  0.00    +0.000 A 
ATOM      9  C   UNL     1      -0.932  10.259  23.215  0.00  0.00    +0.000 A 
ATOM     10  C   UNL     1      -1.220  11.573  22.846  0.00  0.00    +0.000 A 
ATOM     11  C   UNL     1      -0.756  12.082  21.631  0.00  0.00    +0.000 A 
ATOM     12  C   UNL     1       0.008  11.281  20.781  0.00  0.00    +0.000 A 
ENDBRANCH   5   7
ENDBRANCH   1   2
BRANCH   1  14
ATOM     13  O   UNL     1       1.596   4.808  18.100  0.00  0.00    +0.000 OA
ATOM     14  C   UNL     1       2.685   5.338  18.313  0.00  0.00    +0.000 C 
BRANCH  14  15
ATOM     15  C   UNL     1       3.785   5.223  17.312  0.00  0.00    +0.000 A 
ATOM     16  C   UNL     1       4.447   6.357  16.817  0.00  0.00    +0.000 A 
ATOM     17  C   UNL     1       5.474   6.219  15.877  0.00  0.00    +0.000 A 
ATOM     18  C   UNL     1       5.839   4.942  15.427  0.00  0.00    +0.000 A 
ATOM     19  C   UNL     1       5.185   3.805  15.917  0.00  0.00    +0.000 A 
ATOM     20  C   UNL     1       4.155   3.949  16.856  0.00  0.00    +0.000 A 
BRANCH  18  21
ATOM     21  N   UNL     1       6.907   4.807  14.425  0.00  0.00    +0.000 N 
ATOM     22  O   UNL     1       7.918   5.503  14.571  0.00  0.00    +0.000 OA
ATOM     23  O   UNL     1       6.727   4.001  13.503  0.00  0.00    +0.000 OA
ENDBRANCH  18  21
ENDBRANCH  14  15
ENDBRANCH   1  14
TORSDOF 5
ENDMDL
MODEL 3
REMARK VINA RESULT:      -7.6      2.098      3.034
REMARK  Name = 
REMARK  5 active torsions:
REMARK  status: ('A' for Active; 'I' for Inactive)
REMARK    1  A    between atoms: C_2  and  C_3
REMARK    2  A    between atoms: C_2  and  C_15
REMARK    3  A    between atoms: C_3  and  N_4
REMARK    4  A    between atoms: N_7  and  C_8
REMARK    5  A    between atoms: C_18  and  N_19
REMARK                            x       y       z     vdW  Elec       q    Type
REMARK                         _______ _______ _______ _____ _____    ______ ____
ROOT
ATOM      1  C   UNL     1       2.973   6.046  19.619  0.00  0.00    +0.000 C 
ENDROOT
BRANCH   1   2
ATOM      2  N   UNL     1       2.251   7.328  19.596  0.00  0.00    +0.000 N 
ATOM      3  C   UNL     1       2.138   8.184  18.516  0.00  0.00    +0.000 A 
ATOM      4  C   UNL     1       1.326   9.211  18.910  0.00  0.00    +0.000 A 
ATOM      5  N   UNL     1       1.000   8.987  20.240  0.00  0.00    +0.000 N 
ATOM      6  C   UNL     1       1.602   7.856  20.651  0.00  0.00    +0.000 A 
BRANCH   5   7
ATOM      7  C   UNL     1       0.158   9.817  21.093  0.00  0.00    +0.000 A 
ATOM      8  C   UNL     1      -0.406  10.976  20.562  0.00  0.00    +0.000 A 
ATOM      9  C   UNL     1      -1.208  11.772  21.379  0.00  0.00    +0.000 A 
ATOM     10  C   UNL     1      -1.419  11.415  22.711  0.00  0.00    +0.000 A 
ATOM     11  C   UNL     1      -0.840  10.254  23.230  0.00  0.00    +0.000 A 
ATOM     12  C   UNL     1      -0.052   9.440  22.416  0.00  0.00    +0.000 A 
ENDBRANCH   5   7
ENDBRANCH   1   2
BRANCH   1  14
ATOM     13  O   UNL     1       1.603   4.644  18.213  0.00  0.00    +0.000 OA
ATOM     14  C   UNL     1       2.684   5.204  18.382  0.00  0.00    +0.000 C 
BRANCH  14  15
ATOM     15  C   UNL     1       3.757   5.093  17.352  0.00  0.00    +0.000 A 
ATOM     16  C   UNL     1       4.114   3.854  16.797  0.00  0.00    +0.000 A 
ATOM     17  C   UNL     1       5.126   3.779  15.833  0.00  0.00    +0.000 A 
ATOM     18  C   UNL     1       5.786   4.947  15.424  0.00  0.00    +0.000 A 
ATOM     19  C   UNL     1       5.433   6.188  15.971  0.00  0.00    +0.000 A 
ATOM     20  C   UNL     1       4.422   6.257  16.937  0.00  0.00    +0.000 A 
BRANCH  18  21
ATOM     21  N   UNL     1       6.860   4.858  14.425  0.00  0.00    +0.000 N 
ATOM     22  O   UNL     1       7.902   5.484  14.649  0.00  0.00    +0.000 OA
ATOM     23  O   UNL     1       6.655   4.157  13.425  0.00  0.00    +0.000 OA
ENDBRANCH  18  21
ENDBRANCH  14  15
ENDBRANCH   1  14
TORSDOF 5
ENDMDL
MODEL 4
REMARK VINA RESULT:      -7.6      0.397      1.263
REMARK  Name = 
REMARK  5 active torsions:
REMARK  status: ('A' for Active; 'I' for Inactive)
REMARK    1  A    between atoms: C_2  and  C_3
REMARK    2  A    between atoms: C_2  and  C_15
REMARK    3  A    between atoms: C_3  and  N_4
REMARK    4  A    between atoms: N_7  and  C_8
REMARK    5  A    between atoms: C_18  and  N_19
REMARK                            x       y       z     vdW  Elec       q    Type
REMARK                         _______ _______ _______ _____ _____    ______ ____
ROOT
ATOM      1  C   UNL     1       3.876   3.713  18.606  0.00  0.00    +0.000 C 
ENDROOT
BRANCH   1   2
ATOM      2  N   UNL     1       3.049   4.742  19.256  0.00  0.00    +0.000 N 
ATOM      3  C   UNL     1       2.344   4.599  20.436  0.00  0.00    +0.000 A 
ATOM      4  C   UNL     1       1.781   5.814  20.710  0.00  0.00    +0.000 A 
ATOM      5  N   UNL     1       2.113   6.662  19.662  0.00  0.00    +0.000 N 
ATOM      6  C   UNL     1       2.853   5.982  18.769  0.00  0.00    +0.000 A 
BRANCH   5   7
ATOM      7  C   UNL     1       1.734   8.062  19.508  0.00  0.00    +0.000 A 
ATOM      8  C   UNL     1       1.127   8.718  20.577  0.00  0.00    +0.000 A 
ATOM      9  C   UNL     1       0.761  10.055  20.428  0.00  0.00    +0.000 A 
ATOM     10  C   UNL     1       0.987  10.710  19.217  0.00  0.00    +0.000 A 
ATOM     11  C   UNL     1       1.590  10.036  18.153  0.00  0.00    +0.000 A 
ATOM     12  C   UNL     1       1.978   8.704  18.297  0.00  0.00    +0.000 A 
ENDBRANCH   5   7
ENDBRANCH   1   2
BRANCH   1  14
ATOM     13  O   UNL     1       6.065   4.359  19.386  0.00  0.00    +0.000 OA
ATOM     14  C   UNL     1       5.319   4.167  18.427  0.00  0.00    +0.000 C 
BRANCH  14  15
ATOM     15  C   UNL     1       5.821   4.356  17.035  0.00  0.00    +0.000 A 
ATOM     16  C   UNL     1       4.991   4.151  15.923  0.00  0.00    +0.000 A 
ATOM     17  C   UNL     1       5.490   4.334  14.628  0.00  0.00    +0.000 A 
ATOM     18  C   UNL     1       6.825   4.720  14.445  0.00  0.00    +0.000 A 
ATOM     19  C   UNL     1       7.660   4.930  15.550  0.00  0.00    +0.000 A 
ATOM     20  C   UNL     1       7.156   4.743  16.844  0.00  0.00    +0.000 A 
BRANCH  18  21
ATOM     21  N   UNL     1       7.347   4.893  13.081  0.00  0.00    +0.000 N 
ATOM     22  O   UNL     1       6.923   4.128  12.206  0.00  0.00    +0.000 OA
ATOM     23  O   UNL     1       8.174   5.795  12.894  0.00  0.00    +0.000 OA
ENDBRANCH  18  21
ENDBRANCH  14  15
ENDBRANCH   1  14
TORSDOF 5
ENDMDL
MODEL 5
REMARK VINA RESULT:      -7.4      2.366      3.886
REMARK  Name = 
REMARK  5 active torsions:
REMARK  status: ('A' for Active; 'I' for Inactive)
REMARK    1  A    between atoms: C_2  and  C_3
REMARK    2  A    between atoms: C_2  and  C_15
REMARK    3  A    between atoms: C_3  and  N_4
REMARK    4  A    between atoms: N_7  and  C_8
REMARK    5  A    between atoms: C_18  and  N_19
REMARK                            x       y       z     vdW  Elec       q    Type
REMARK                         _______ _______ _______ _____ _____    ______ ____
ROOT
ATOM      1  C   UNL     1       6.315   6.828  17.290  0.00  0.00    +0.000 C 
ENDROOT
BRANCH   1   2
ATOM      2  N   UNL     1       4.948   6.570  17.768  0.00  0.00    +0.000 N 
ATOM      3  C   UNL     1       3.823   7.316  17.472  0.00  0.00    +0.000 A 
ATOM      4  C   UNL     1       2.763   6.683  18.059  0.00  0.00    +0.000 A 
ATOM      5  N   UNL     1       3.271   5.589  18.745  0.00  0.00    +0.000 N 
ATOM      6  C   UNL     1       4.606   5.557  18.587  0.00  0.00    +0.000 A 
BRANCH   5   7
ATOM      7  C   UNL     1       2.520   4.615  19.530  0.00  0.00    +0.000 A 
ATOM      8  C   UNL     1       1.540   3.851  18.899  0.00  0.00    +0.000 A 
ATOM      9  C   UNL     1       0.820   2.923  19.650  0.00  0.00    +0.000 A 
ATOM     10  C   UNL     1       1.072   2.783  21.015  0.00  0.00    +0.000 A 
ATOM     11  C   UNL     1       2.052   3.562  21.634  0.00  0.00    +0.000 A 
ATOM     12  C   UNL     1       2.793   4.480  20.888  0.00  0.00    +0.000 A 
ENDBRANCH   5   7
ENDBRANCH   1   2
BRANCH   1  14
ATOM     13  O   UNL     1       7.912   5.043  17.580  0.00  0.00    +0.000 OA
ATOM     14  C   UNL     1       7.031   5.546  16.884  0.00  0.00    +0.000 C 
BRANCH  14  15
ATOM     15  C   UNL     1       6.616   4.892  15.609  0.00  0.00    +0.000 A 
ATOM     16  C   UNL     1       5.516   4.024  15.556  0.00  0.00    +0.000 A 
ATOM     17  C   UNL     1       5.151   3.423  14.346  0.00  0.00    +0.000 A 
ATOM     18  C   UNL     1       5.891   3.688  13.185  0.00  0.00    +0.000 A 
ATOM     19  C   UNL     1       6.989   4.556  13.229  0.00  0.00    +0.000 A 
ATOM     20  C   UNL     1       7.352   5.153  14.443  0.00  0.00    +0.000 A 
BRANCH  18  21
ATOM     21  N   UNL     1       5.512   3.039  11.922  0.00  0.00    +0.000 N 
ATOM     22  O   UNL     1       4.471   3.420  11.373  0.00  0.00    +0.000 OA
ATOM     23  O   UNL     1       6.260   2.154  11.486  0.00  0.00    +0.000 OA
ENDBRANCH  18  21
ENDBRANCH  14  15
ENDBRANCH   1  14
TORSDOF 5
ENDMDL
MODEL 6
REMARK VINA RESULT:      -7.4      0.505      1.635
REMARK  Name = 
REMARK  5 active torsions:
REMARK  status: ('A' for Active; 'I' for Inactive)
REMARK    1  A    between atoms: C_2  and  C_3
REMARK    2  A    between atoms: C_2  and  C_15
REMARK    3  A    between atoms: C_3  and  N_4
REMARK    4  A    between atoms: N_7  and  C_8
REMARK    5  A    between atoms: C_18  and  N_19
REMARK                            x       y       z     vdW  Elec       q    Type
REMARK                         _______ _______ _______ _____ _____    ______ ____
ROOT
ATOM      1  C   UNL     1       4.787   3.845  19.394  0.00  0.00    +0.000 C 
ENDROOT
BRANCH   1   2
ATOM      2  N   UNL     1       3.664   4.743  19.706  0.00  0.00    +0.000 N 
ATOM      3  C   UNL     1       2.628   4.483  20.585  0.00  0.00    +0.000 A 
ATOM      4  C   UNL     1       1.854   5.608  20.627  0.00  0.00    +0.000 A 
ATOM      5  N   UNL     1       2.405   6.516  19.733  0.00  0.00    +0.000 N 
ATOM      6  C   UNL     1       3.484   5.959  19.156  0.00  0.00    +0.000 A 
BRANCH   5   7
ATOM      7  C   UNL     1       1.922   7.859  19.431  0.00  0.00    +0.000 A 
ATOM      8  C   UNL     1       1.200   8.551  20.402  0.00  0.00    +0.000 A 
ATOM      9  C   UNL     1       0.735   9.832  20.111  0.00  0.00    +0.000 A 
ATOM     10  C   UNL     1       0.978  10.396  18.858  0.00  0.00    +0.000 A 
ATOM     11  C   UNL     1       1.697   9.686  17.893  0.00  0.00    +0.000 A 
ATOM     12  C   UNL     1       2.184   8.411  18.180  0.00  0.00    +0.000 A 
ENDBRANCH   5   7
ENDBRANCH   1   2
BRANCH   1  14
ATOM     13  O   UNL     1       6.745   5.254  19.406  0.00  0.00    +0.000 OA
ATOM     14  C   UNL     1       5.950   4.587  18.747  0.00  0.00    +0.000 C 
BRANCH  14  15
ATOM     15  C   UNL     1       6.116   4.464  17.270  0.00  0.00    +0.000 A 
ATOM     16  C   UNL     1       7.243   4.981  16.614  0.00  0.00    +0.000 A 
ATOM     17  C   UNL     1       7.371   4.853  15.226  0.00  0.00    +0.000 A 
ATOM     18  C   UNL     1       6.367   4.209  14.490  0.00  0.00    +0.000 A 
ATOM     19  C   UNL     1       5.239   3.688  15.138  0.00  0.00    +0.000 A 
ATOM     20  C   UNL     1       5.115   3.821  16.526  0.00  0.00    +0.000 A 
BRANCH  18  21
ATOM     21  N   UNL     1       6.500   4.095  13.031  0.00  0.00    +0.000 N 
ATOM     22  O   UNL     1       5.659   3.415  12.432  0.00  0.00    +0.000 OA
ATOM     23  O   UNL     1       7.443   4.690  12.494  0.00  0.00    +0.000 OA
ENDBRANCH  18  21
ENDBRANCH  14  15
ENDBRANCH   1  14
TORSDOF 5
ENDMDL
MODEL 7
REMARK VINA RESULT:      -7.4      1.055      1.476
REMARK  Name = 
REMARK  5 active torsions:
REMARK  status: ('A' for Active; 'I' for Inactive)
REMARK    1  A    between atoms: C_2  and  C_3
REMARK    2  A    between atoms: C_2  and  C_15
REMARK    3  A    between atoms: C_3  and  N_4
REMARK    4  A    between atoms: N_7  and  C_8
REMARK    5  A    between atoms: C_18  and  N_19
REMARK                            x       y       z     vdW  Elec       q    Type
REMARK                         _______ _______ _______ _____ _____    ______ ____
ROOT
ATOM      1  C   UNL     1       4.866   4.301  19.064  0.00  0.00    +0.000 C 
ENDROOT
BRANCH   1   2
ATOM      2  N   UNL     1       3.707   5.090  19.511  0.00  0.00    +0.000 N 
ATOM      3  C   UNL     1       2.741   4.686  20.414  0.00  0.00    +0.000 A 
ATOM      4  C   UNL     1       1.901   5.748  20.594  0.00  0.00    +0.000 A 
ATOM      5  N   UNL     1       2.342   6.764  19.758  0.00  0.00    +0.000 N 
ATOM      6  C   UNL     1       3.420   6.333  19.080  0.00  0.00    +0.000 A 
BRANCH   5   7
ATOM      7  C   UNL     1       1.758   8.092  19.600  0.00  0.00    +0.000 A 
ATOM      8  C   UNL     1       1.849   8.726  18.363  0.00  0.00    +0.000 A 
ATOM      9  C   UNL     1       1.294   9.996  18.213  0.00  0.00    +0.000 A 
ATOM     10  C   UNL     1       0.677  10.621  19.297  0.00  0.00    +0.000 A 
ATOM     11  C   UNL     1       0.601   9.975  20.533  0.00  0.00    +0.000 A 
ATOM     12  C   UNL     1       1.135   8.695  20.689  0.00  0.00    +0.000 A 
ENDBRANCH   5   7
ENDBRANCH   1   2
BRANCH   1  14
ATOM     13  O   UNL     1       3.735   2.767  17.586  0.00  0.00    +0.000 OA
ATOM     14  C   UNL     1       4.612   3.617  17.727  0.00  0.00    +0.000 C 
BRANCH  14  15
ATOM     15  C   UNL     1       5.454   4.026  16.566  0.00  0.00    +0.000 A 
ATOM     16  C   UNL     1       6.736   4.569  16.745  0.00  0.00    +0.000 A 
ATOM     17  C   UNL     1       7.503   4.945  15.637  0.00  0.00    +0.000 A 
ATOM     18  C   UNL     1       6.986   4.781  14.344  0.00  0.00    +0.000 A 
ATOM     19  C   UNL     1       5.708   4.238  14.156  0.00  0.00    +0.000 A 
ATOM     20  C   UNL     1       4.944   3.865  15.269  0.00  0.00    +0.000 A 
BRANCH  18  21
ATOM     21  N   UNL     1       7.790   5.197  13.186  0.00  0.00    +0.000 N 
ATOM     22  O   UNL     1       8.726   5.978  13.391  0.00  0.00    +0.000 OA
ATOM     23  O   UNL     1       7.482   4.734  12.080  0.00  0.00    +0.000 OA
ENDBRANCH  18  21
ENDBRANCH  14  15
ENDBRANCH   1  14
TORSDOF 5
ENDMDL
MODEL 8
REMARK VINA RESULT:      -7.4      2.886      7.614
REMARK  Name = 
REMARK  5 active torsions:
REMARK  status: ('A' for Active; 'I' for Inactive)
REMARK    1  A    between atoms: C_2  and  C_3
REMARK    2  A    between atoms: C_2  and  C_15
REMARK    3  A    between atoms: C_3  and  N_4
REMARK    4  A    between atoms: N_7  and  C_8
REMARK    5  A    between atoms: C_18  and  N_19
REMARK                            x       y       z     vdW  Elec       q    Type
REMARK                         _______ _______ _______ _____ _____    ______ ____
ROOT
ATOM      1  C   UNL     1       4.096   3.379  18.504  0.00  0.00    +0.000 C 
ENDROOT
BRANCH   1   2
ATOM      2  N   UNL     1       5.130   3.947  17.624  0.00  0.00    +0.000 N 
ATOM      3  C   UNL     1       6.234   4.677  18.024  0.00  0.00    +0.000 A 
ATOM      4  C   UNL     1       6.963   4.939  16.899  0.00  0.00    +0.000 A 
ATOM      5  N   UNL     1       6.263   4.406  15.826  0.00  0.00    +0.000 N 
ATOM      6  C   UNL     1       5.132   3.838  16.282  0.00  0.00    +0.000 A 
BRANCH   5   7
ATOM      7  C   UNL     1       6.645   4.442  14.419  0.00  0.00    +0.000 A 
ATOM      8  C   UNL     1       7.625   5.344  14.008  0.00  0.00    +0.000 A 
ATOM      9  C   UNL     1       7.988   5.380  12.663  0.00  0.00    +0.000 A 
ATOM     10  C   UNL     1       7.359   4.536  11.747  0.00  0.00    +0.000 A 
ATOM     11  C   UNL     1       6.373   3.643  12.173  0.00  0.00    +0.000 A 
ATOM     12  C   UNL     1       6.016   3.584  13.520  0.00  0.00    +0.000 A 
ENDBRANCH   5   7
ENDBRANCH   1   2
BRANCH   1  14
ATOM     13  O   UNL     1       1.898   3.405  17.510  0.00  0.00    +0.000 OA
ATOM     14  C   UNL     1       2.721   3.973  18.227  0.00  0.00    +0.000 C 
BRANCH  14  15
ATOM     15  C   UNL     1       2.381   5.272  18.875  0.00  0.00    +0.000 A 
ATOM     16  C   UNL     1       1.921   5.333  20.200  0.00  0.00    +0.000 A 
ATOM     17  C   UNL     1       1.609   6.566  20.781  0.00  0.00    +0.000 A 
ATOM     18  C   UNL     1       1.753   7.745  20.035  0.00  0.00    +0.000 A 
ATOM     19  C   UNL     1       2.214   7.694  18.713  0.00  0.00    +0.000 A 
ATOM     20  C   UNL     1       2.523   6.456  18.135  0.00  0.00    +0.000 A 
BRANCH  18  21
ATOM     21  N   UNL     1       1.405   9.035  20.647  0.00  0.00    +0.000 N 
ATOM     22  O   UNL     1       1.404   9.100  21.882  0.00  0.00    +0.000 OA
ATOM     23  O   UNL     1       1.139   9.976  19.888  0.00  0.00    +0.000 OA
ENDBRANCH  18  21
ENDBRANCH  14  15
ENDBRANCH   1  14
TORSDOF 5
ENDMDL
MODEL 9
REMARK VINA RESULT:      -7.3      2.279      3.646
REMARK  Name = 
REMARK  5 active torsions:
REMARK  status: ('A' for Active; 'I' for Inactive)
REMARK    1  A    between atoms: C_2  and  C_3
REMARK    2  A    between atoms: C_2  and  C_15
REMARK    3  A    between atoms: C_3  and  N_4
REMARK    4  A    between atoms: N_7  and  C_8
REMARK    5  A    between atoms: C_18  and  N_19
REMARK                            x       y       z     vdW  Elec       q    Type
REMARK                         _______ _______ _______ _____ _____    ______ ____
ROOT
ATOM      1  C   UNL     1       2.082   5.456  20.492  0.00  0.00    +0.000 C 
ENDROOT
BRANCH   1   2
ATOM      2  N   UNL     1       1.775   6.884  20.313  0.00  0.00    +0.000 N 
ATOM      3  C   UNL     1       2.118   7.665  19.225  0.00  0.00    +0.000 A 
ATOM      4  C   UNL     1       1.576   8.900  19.438  0.00  0.00    +0.000 A 
ATOM      5  N   UNL     1       0.954   8.865  20.678  0.00  0.00    +0.000 N 
ATOM      6  C   UNL     1       1.118   7.641  21.212  0.00  0.00    +0.000 A 
BRANCH   5   7
ATOM      7  C   UNL     1       0.240   9.952  21.338  0.00  0.00    +0.000 A 
ATOM      8  C   UNL     1      -0.409   9.698  22.545  0.00  0.00    +0.000 A 
ATOM      9  C   UNL     1      -1.094  10.736  23.174  0.00  0.00    +0.000 A 
ATOM     10  C   UNL     1      -1.140  12.001  22.585  0.00  0.00    +0.000 A 
ATOM     11  C   UNL     1      -0.490  12.236  21.372  0.00  0.00    +0.000 A 
ATOM     12  C   UNL     1       0.216  11.210  20.743  0.00  0.00    +0.000 A 
ENDBRANCH   5   7
ENDBRANCH   1   2
BRANCH   1  14
ATOM     13  O   UNL     1       1.267   4.223  18.586  0.00  0.00    +0.000 OA
ATOM     14  C   UNL     1       2.228   4.731  19.161  0.00  0.00    +0.000 C 
BRANCH  14  15
ATOM     15  C   UNL     1       3.587   4.669  18.549  0.00  0.00    +0.000 A 
ATOM     16  C   UNL     1       4.732   5.049  19.266  0.00  0.00    +0.000 A 
ATOM     17  C   UNL     1       5.994   4.982  18.666  0.00  0.00    +0.000 A 
ATOM     18  C   UNL     1       6.113   4.537  17.342  0.00  0.00    +0.000 A 
ATOM     19  C   UNL     1       4.976   4.153  16.620  0.00  0.00    +0.000 A 
ATOM     20  C   UNL     1       3.714   4.225  17.224  0.00  0.00    +0.000 A 
BRANCH  18  21
ATOM     21  N   UNL     1       7.441   4.487  16.712  0.00  0.00    +0.000 N 
ATOM     22  O   UNL     1       8.392   4.124  17.414  0.00  0.00    +0.000 OA
ATOM     23  O   UNL     1       7.521   4.807  15.520  0.00  0.00    +0.000 OA
ENDBRANCH  18  21
ENDBRANCH  14  15
ENDBRANCH   1  14
TORSDOF 5
ENDMDL
