MODEL 1
REMARK VINA RESULT:      -7.9      0.000      0.000
REMARK  Name = 
REMARK  7 active torsions:
REMARK  status: ('A' for Active; 'I' for Inactive)
REMARK    1  A    between atoms: C_1  and  C_2
REMARK    2  A    between atoms: C_2  and  C_3
REMARK    3  A    between atoms: C_3  and  N_4
REMARK    4  A    between atoms: C_12  and  C_13
REMARK    5  A    between atoms: C_13  and  O_15
REMARK    6  A    between atoms: O_15  and  C_16
REMARK    7  A    between atoms: C_17  and  C_18
REMARK                            x       y       z     vdW  Elec       q    Type
REMARK                         _______ _______ _______ _____ _____    ______ ____
ROOT
ATOM      1  N   UNL     1       5.151   1.838  20.362  0.00  0.00    +0.000 N 
ATOM      2  C   UNL     1       4.248   2.096  19.361  0.00  0.00    +0.000 C 
ATOM      3  O   UNL     1       3.447   1.258  18.958  0.00  0.00    +0.000 OA
ATOM      4  N   UNL     1       4.272   3.376  18.876  0.00  0.00    +0.000 N 
ATOM      5  C   UNL     1       3.312   3.875  17.916  0.00  0.00    +0.000 C 
ATOM      6  C   UNL     1       3.179   5.347  18.349  0.00  0.00    +0.000 C 
ATOM      7  C   UNL     1       4.490   5.663  19.100  0.00  0.00    +0.000 C 
ATOM      8  C   UNL     1       5.323   4.383  18.964  0.00  0.00    +0.000 C 
ATOM      9  C   UNL     1       6.065   4.422  17.628  0.00  0.00    +0.000 C 
ATOM     10  C   UNL     1       5.403   4.151  16.468  0.00  0.00    +0.000 C 
ATOM     11  C   UNL     1       3.928   3.746  16.501  0.00  0.00    +0.000 C 
ATOM     12  H   UNL     1       5.327   2.628  20.962  0.00  0.00    +0.000 HD
ENDROOT
BRANCH  10  13
ATOM     13  C   UNL     1       6.002   4.205  15.121  0.00  0.00    +0.000 A 
ATOM     14  C   UNL     1       7.030   5.117  14.847  0.00  0.00    +0.000 A 
ATOM     15  C   UNL     1       7.542   5.240  13.550  0.00  0.00    +0.000 A 
ATOM     16  C   UNL     1       7.041   4.444  12.522  0.00  0.00    +0.000 A 
ATOM     17  C   UNL     1       6.046   3.508  12.800  0.00  0.00    +0.000 A 
ATOM     18 CL   UNL     1       5.441   2.511  11.532  0.00  0.00    +0.000 Cl
ATOM     19  C   UNL     1       5.528   3.381  14.091  0.00  0.00    +0.000 A 
ENDBRANCH  10  13
BRANCH   9  20
ATOM     20  C   UNL     1       7.500   4.852  17.677  0.00  0.00    +0.000 C 
ATOM     21  O   UNL     1       8.462   4.108  17.770  0.00  0.00    +0.000 OA
BRANCH  20  22
ATOM     22  O   UNL     1       7.571   6.205  17.568  0.00  0.00    +0.000 OA
ATOM     23  C   UNL     1       8.121   6.888  18.696  0.00  0.00    +0.000 C 
ENDBRANCH  20  22
ENDBRANCH   9  20
BRANCH   1  24
ATOM     24  C   UNL     1       5.123   0.544  21.021  0.00  0.00    +0.000 C 
BRANCH  24  26
ATOM     25  C   UNL     1       6.658  -0.993  22.337  0.00  0.00    +0.000 C 
ATOM     26  C   UNL     1       6.150   0.426  22.145  0.00  0.00    +0.000 C 
ENDBRANCH  24  26
ENDBRANCH   1  24
TORSDOF 5
ENDMDL
MODEL 2
REMARK VINA RESULT:      -7.7      1.064      1.435
REMARK  Name = 
REMARK  7 active torsions:
REMARK  status: ('A' for Active; 'I' for Inactive)
REMARK    1  A    between atoms: C_1  and  C_2
REMARK    2  A    between atoms: C_2  and  C_3
REMARK    3  A    between atoms: C_3  and  N_4
REMARK    4  A    between atoms: C_12  and  C_13
REMARK    5  A    between atoms: C_13  and  O_15
REMARK    6  A    between atoms: O_15  and  C_16
REMARK    7  A    between atoms: C_17  and  C_18
REMARK                            x       y       z     vdW  Elec       q    Type
REMARK                         _______ _______ _______ _____ _____    ______ ____
ROOT
ATOM      1  N   UNL     1       5.088   2.049  20.166  0.00  0.00    +0.000 N 
ATOM      2  C   UNL     1       4.165   2.282  19.178  0.00  0.00    +0.000 C 
ATOM      3  O   UNL     1       3.352   1.436  18.818  0.00  0.00    +0.000 OA
ATOM      4  N   UNL     1       4.184   3.547  18.655  0.00  0.00    +0.000 N 
ATOM      5  C   UNL     1       3.206   4.022  17.701  0.00  0.00    +0.000 C 
ATOM      6  C   UNL     1       3.089   5.507  18.093  0.00  0.00    +0.000 C 
ATOM      7  C   UNL     1       4.417   5.838  18.806  0.00  0.00    +0.000 C 
ATOM      8  C   UNL     1       5.241   4.550  18.690  0.00  0.00    +0.000 C 
ATOM      9  C   UNL     1       5.954   4.546  17.337  0.00  0.00    +0.000 C 
ATOM     10  C   UNL     1       5.266   4.243  16.201  0.00  0.00    +0.000 C 
ATOM     11  C   UNL     1       3.790   3.848  16.277  0.00  0.00    +0.000 C 
ATOM     12  H   UNL     1       5.281   2.855  20.739  0.00  0.00    +0.000 HD
ENDROOT
BRANCH  10  13
ATOM     13  C   UNL     1       5.836   4.255  14.841  0.00  0.00    +0.000 A 
ATOM     14  C   UNL     1       5.297   3.426  13.847  0.00  0.00    +0.000 A 
ATOM     15  C   UNL     1       5.888   3.361  12.580  0.00  0.00    +0.000 A 
ATOM     16  C   UNL     1       7.011   4.135  12.291  0.00  0.00    +0.000 A 
ATOM     17  C   UNL     1       7.525   4.990  13.265  0.00  0.00    +0.000 A 
ATOM     18 CL   UNL     1       8.902   5.959  12.901  0.00  0.00    +0.000 Cl
ATOM     19  C   UNL     1       6.943   5.058  14.533  0.00  0.00    +0.000 A 
ENDBRANCH  10  13
BRANCH   9  20
ATOM     20  C   UNL     1       7.392   4.970  17.343  0.00  0.00    +0.000 C 
ATOM     21  O   UNL     1       8.353   4.221  17.389  0.00  0.00    +0.000 OA
BRANCH  20  22
ATOM     22  O   UNL     1       7.464   6.324  17.254  0.00  0.00    +0.000 OA
ATOM     23  C   UNL     1       8.036   6.988  18.384  0.00  0.00    +0.000 C 
ENDBRANCH  20  22
ENDBRANCH   9  20
BRANCH   1  24
ATOM     24  C   UNL     1       5.069   0.776  20.865  0.00  0.00    +0.000 C 
BRANCH  24  26
ATOM     25  C   UNL     1       6.494  -0.755  22.305  0.00  0.00    +0.000 C 
ATOM     26  C   UNL     1       6.132   0.679  21.956  0.00  0.00    +0.000 C 
ENDBRANCH  24  26
ENDBRANCH   1  24
TORSDOF 5
ENDMDL
MODEL 3
REMARK VINA RESULT:      -6.8      3.402      6.518
REMARK  Name = 
REMARK  7 active torsions:
REMARK  status: ('A' for Active; 'I' for Inactive)
REMARK    1  A    between atoms: C_1  and  C_2
REMARK    2  A    between atoms: C_2  and  C_3
REMARK    3  A    between atoms: C_3  and  N_4
REMARK    4  A    between atoms: C_12  and  C_13
REMARK    5  A    between atoms: C_13  and  O_15
REMARK    6  A    between atoms: O_15  and  C_16
REMARK    7  A    between atoms: C_17  and  C_18
REMARK                            x       y       z     vdW  Elec       q    Type
REMARK                         _______ _______ _______ _____ _____    ______ ____
ROOT
ATOM      1  N   UNL     1       6.876   5.422  14.420  0.00  0.00    +0.000 N 
ATOM      2  C   UNL     1       7.060   4.714  15.582  0.00  0.00    +0.000 C 
ATOM      3  O   UNL     1       7.392   3.533  15.592  0.00  0.00    +0.000 OA
ATOM      4  N   UNL     1       6.894   5.437  16.732  0.00  0.00    +0.000 N 
ATOM      5  C   UNL     1       7.171   4.903  18.048  0.00  0.00    +0.000 C 
ATOM      6  C   UNL     1       7.680   6.155  18.788  0.00  0.00    +0.000 C 
ATOM      7  C   UNL     1       7.080   7.348  18.013  0.00  0.00    +0.000 C 
ATOM      8  C   UNL     1       6.194   6.699  16.943  0.00  0.00    +0.000 C 
ATOM      9  C   UNL     1       4.827   6.396  17.558  0.00  0.00    +0.000 C 
ATOM     10  C   UNL     1       4.670   5.322  18.382  0.00  0.00    +0.000 C 
ATOM     11  C   UNL     1       5.844   4.379  18.650  0.00  0.00    +0.000 C 
ATOM     12  H   UNL     1       7.160   6.387  14.485  0.00  0.00    +0.000 HD
ENDROOT
BRANCH  10  13
ATOM     13  C   UNL     1       3.415   4.961  19.068  0.00  0.00    +0.000 A 
ATOM     14  C   UNL     1       3.060   5.598  20.264  0.00  0.00    +0.000 A 
ATOM     15  C   UNL     1       1.919   5.200  20.970  0.00  0.00    +0.000 A 
ATOM     16  C   UNL     1       1.116   4.171  20.477  0.00  0.00    +0.000 A 
ATOM     17  C   UNL     1       1.444   3.562  19.267  0.00  0.00    +0.000 A 
ATOM     18 CL   UNL     1       0.441   2.305  18.651  0.00  0.00    +0.000 Cl
ATOM     19  C   UNL     1       2.584   3.953  18.558  0.00  0.00    +0.000 A 
ENDBRANCH  10  13
BRANCH   9  20
ATOM     20  C   UNL     1       3.736   7.380  17.268  0.00  0.00    +0.000 C 
ATOM     21  O   UNL     1       3.400   7.764  16.160  0.00  0.00    +0.000 OA
BRANCH  20  22
ATOM     22  O   UNL     1       3.148   7.760  18.434  0.00  0.00    +0.000 OA
ATOM     23  C   UNL     1       2.006   8.610  18.302  0.00  0.00    +0.000 C 
ENDBRANCH  20  22
ENDBRANCH   9  20
BRANCH   1  24
ATOM     24  C   UNL     1       7.145   4.775  13.148  0.00  0.00    +0.000 C 
BRANCH  24  26
ATOM     25  C   UNL     1       6.465   2.716  11.827  0.00  0.00    +0.000 C 
ATOM     26  C   UNL     1       5.998   3.884  12.679  0.00  0.00    +0.000 C 
ENDBRANCH  24  26
ENDBRANCH   1  24
TORSDOF 5
ENDMDL
MODEL 4
REMARK VINA RESULT:      -6.5      9.181     12.071
REMARK  Name = 
REMARK  7 active torsions:
REMARK  status: ('A' for Active; 'I' for Inactive)
REMARK    1  A    between atoms: C_1  and  C_2
REMARK    2  A    between atoms: C_2  and  C_3
REMARK    3  A    between atoms: C_3  and  N_4
REMARK    4  A    between atoms: C_12  and  C_13
REMARK    5  A    between atoms: C_13  and  O_15
REMARK    6  A    between atoms: O_15  and  C_16
REMARK    7  A    between atoms: C_17  and  C_18
REMARK                            x       y       z     vdW  Elec       q    Type
REMARK                         _______ _______ _______ _____ _____    ______ ____
ROOT
ATOM      1  N   UNL     1      -0.819  15.455  18.882  0.00  0.00    +0.000 N 
ATOM      2  C   UNL     1       0.026  14.909  19.817  0.00  0.00    +0.000 C 
ATOM      3  O   UNL     1       1.104  15.416  20.111  0.00  0.00    +0.000 OA
ATOM      4  N   UNL     1      -0.445  13.782  20.434  0.00  0.00    +0.000 N 
ATOM      5  C   UNL     1       0.239  13.140  21.535  0.00  0.00    +0.000 C 
ATOM      6  C   UNL     1      -0.944  12.606  22.365  0.00  0.00    +0.000 C 
ATOM      7  C   UNL     1      -2.110  12.481  21.362  0.00  0.00    +0.000 C 
ATOM      8  C   UNL     1      -1.492  12.860  20.011  0.00  0.00    +0.000 C 
ATOM      9  C   UNL     1      -0.828  11.619  19.412  0.00  0.00    +0.000 C 
ATOM     10  C   UNL     1       0.380  11.195  19.880  0.00  0.00    +0.000 C 
ATOM     11  C   UNL     1       1.107  11.991  20.965  0.00  0.00    +0.000 C 
ATOM     12  H   UNL     1      -1.795  15.341  19.104  0.00  0.00    +0.000 HD
ENDROOT
BRANCH  10  13
ATOM     13  C   UNL     1       1.090   9.989  19.413  0.00  0.00    +0.000 A 
ATOM     14  C   UNL     1       1.688   9.974  18.146  0.00  0.00    +0.000 A 
ATOM     15  C   UNL     1       2.284   8.806  17.657  0.00  0.00    +0.000 A 
ATOM     16  C   UNL     1       2.300   7.650  18.436  0.00  0.00    +0.000 A 
ATOM     17  C   UNL     1       1.741   7.673  19.713  0.00  0.00    +0.000 A 
ATOM     18 CL   UNL     1       1.778   6.250  20.681  0.00  0.00    +0.000 Cl
ATOM     19  C   UNL     1       1.141   8.835  20.207  0.00  0.00    +0.000 A 
ENDBRANCH  10  13
BRANCH   9  20
ATOM     20  C   UNL     1      -1.615  10.881  18.372  0.00  0.00    +0.000 C 
ATOM     21  O   UNL     1      -1.981   9.720  18.448  0.00  0.00    +0.000 OA
BRANCH  20  22
ATOM     22  O   UNL     1      -1.892  11.718  17.337  0.00  0.00    +0.000 OA
ATOM     23  C   UNL     1      -2.642  11.144  16.263  0.00  0.00    +0.000 C 
ENDBRANCH  20  22
ENDBRANCH   9  20
BRANCH   1  24
ATOM     24  C   UNL     1      -0.461  16.716  18.258  0.00  0.00    +0.000 C 
BRANCH  24  26
ATOM     25  C   UNL     1      -2.365  18.362  18.594  0.00  0.00    +0.000 C 
ATOM     26  C   UNL     1      -0.975  17.929  19.029  0.00  0.00    +0.000 C 
ENDBRANCH  24  26
ENDBRANCH   1  24
TORSDOF 5
ENDMDL
MODEL 5
REMARK VINA RESULT:      -6.5     10.005     12.580
REMARK  Name = 
REMARK  7 active torsions:
REMARK  status: ('A' for Active; 'I' for Inactive)
REMARK    1  A    between atoms: C_1  and  C_2
REMARK    2  A    between atoms: C_2  and  C_3
REMARK    3  A    between atoms: C_3  and  N_4
REMARK    4  A    between atoms: C_12  and  C_13
REMARK    5  A    between atoms: C_13  and  O_15
REMARK    6  A    between atoms: O_15  and  C_16
REMARK    7  A    between atoms: C_17  and  C_18
REMARK                            x       y       z     vdW  Elec       q    Type
REMARK                         _______ _______ _______ _____ _____    ______ ____
ROOT
ATOM      1  N   UNL     1       0.569  10.020  20.644  0.00  0.00    +0.000 N 
ATOM      2  C   UNL     1      -0.045  11.161  21.096  0.00  0.00    +0.000 C 
ATOM      3  O   UNL     1      -0.124  11.443  22.288  0.00  0.00    +0.000 OA
ATOM      4  N   UNL     1      -0.522  11.988  20.116  0.00  0.00    +0.000 N 
ATOM      5  C   UNL     1      -1.082  13.294  20.387  0.00  0.00    +0.000 C 
ATOM      6  C   UNL     1      -0.648  14.082  19.136  0.00  0.00    +0.000 C 
ATOM      7  C   UNL     1      -0.420  13.010  18.049  0.00  0.00    +0.000 C 
ATOM      8  C   UNL     1      -0.829  11.695  18.721  0.00  0.00    +0.000 C 
ATOM      9  C   UNL     1      -2.343  11.527  18.586  0.00  0.00    +0.000 C 
ATOM     10  C   UNL     1      -3.185  12.235  19.390  0.00  0.00    +0.000 C 
ATOM     11  C   UNL     1      -2.622  13.156  20.473  0.00  0.00    +0.000 C 
ATOM     12  H   UNL     1       1.057  10.141  19.771  0.00  0.00    +0.000 HD
ENDROOT
BRANCH  10  13
ATOM     13  C   UNL     1      -4.658  12.190  19.317  0.00  0.00    +0.000 A 
ATOM     14  C   UNL     1      -5.306  12.381  18.090  0.00  0.00    +0.000 A 
ATOM     15  C   UNL     1      -6.703  12.432  18.025  0.00  0.00    +0.000 A 
ATOM     16  C   UNL     1      -7.463  12.278  19.184  0.00  0.00    +0.000 A 
ATOM     17  C   UNL     1      -6.822  12.047  20.400  0.00  0.00    +0.000 A 
ATOM     18 CL   UNL     1      -7.763  11.838  21.827  0.00  0.00    +0.000 Cl
ATOM     19  C   UNL     1      -5.428  11.998  20.473  0.00  0.00    +0.000 A 
ENDBRANCH  10  13
BRANCH   9  20
ATOM     20  C   UNL     1      -2.816  10.627  17.485  0.00  0.00    +0.000 C 
ATOM     21  O   UNL     1      -3.307   9.521  17.633  0.00  0.00    +0.000 OA
BRANCH  20  22
ATOM     22  O   UNL     1      -2.645  11.248  16.288  0.00  0.00    +0.000 OA
ATOM     23  C   UNL     1      -2.886  10.441  15.133  0.00  0.00    +0.000 C 
ENDBRANCH  20  22
ENDBRANCH   9  20
BRANCH   1  24
ATOM     24  C   UNL     1       1.211   9.136  21.602  0.00  0.00    +0.000 C 
BRANCH  24  26
ATOM     25  C   UNL     1       2.119   7.166  20.282  0.00  0.00    +0.000 C 
ATOM     26  C   UNL     1       1.054   7.660  21.248  0.00  0.00    +0.000 C 
ENDBRANCH  24  26
ENDBRANCH   1  24
TORSDOF 5
ENDMDL
MODEL 6
REMARK VINA RESULT:      -6.3     11.017     12.858
REMARK  Name = 
REMARK  7 active torsions:
REMARK  status: ('A' for Active; 'I' for Inactive)
REMARK    1  A    between atoms: C_1  and  C_2
REMARK    2  A    between atoms: C_2  and  C_3
REMARK    3  A    between atoms: C_3  and  N_4
REMARK    4  A    between atoms: C_12  and  C_13
REMARK    5  A    between atoms: C_13  and  O_15
REMARK    6  A    between atoms: O_15  and  C_16
REMARK    7  A    between atoms: C_17  and  C_18
REMARK                            x       y       z     vdW  Elec       q    Type
REMARK                         _______ _______ _______ _____ _____    ______ ____
ROOT
ATOM      1  N   UNL     1      -1.869  10.575  17.941  0.00  0.00    +0.000 N 
ATOM      2  C   UNL     1      -2.466  11.485  18.777  0.00  0.00    +0.000 C 
ATOM      3  O   UNL     1      -3.634  11.838  18.647  0.00  0.00    +0.000 OA
ATOM      4  N   UNL     1      -1.676  11.936  19.800  0.00  0.00    +0.000 N 
ATOM      5  C   UNL     1      -2.165  12.795  20.856  0.00  0.00    +0.000 C 
ATOM      6  C   UNL     1      -1.330  12.313  22.058  0.00  0.00    +0.000 C 
ATOM      7  C   UNL     1      -0.070  11.672  21.437  0.00  0.00    +0.000 C 
ATOM      8  C   UNL     1      -0.223  11.915  19.931  0.00  0.00    +0.000 C 
ATOM      9  C   UNL     1       0.310  13.310  19.603  0.00  0.00    +0.000 C 
ATOM     10  C   UNL     1      -0.437  14.413  19.888  0.00  0.00    +0.000 C 
ATOM     11  C   UNL     1      -1.839  14.261  20.481  0.00  0.00    +0.000 C 
ATOM     12  H   UNL     1      -1.208   9.972  18.405  0.00  0.00    +0.000 HD
ENDROOT
BRANCH  10  13
ATOM     13  C   UNL     1      -0.006  15.806  19.662  0.00  0.00    +0.000 A 
ATOM     14  C   UNL     1       0.585  16.535  20.702  0.00  0.00    +0.000 A 
ATOM     15  C   UNL     1       0.914  17.884  20.526  0.00  0.00    +0.000 A 
ATOM     16  C   UNL     1       0.668  18.510  19.304  0.00  0.00    +0.000 A 
ATOM     17  C   UNL     1       0.117  17.776  18.255  0.00  0.00    +0.000 A 
ATOM     18 CL   UNL     1      -0.169  18.546  16.741  0.00  0.00    +0.000 Cl
ATOM     19  C   UNL     1      -0.217  16.430  18.424  0.00  0.00    +0.000 A 
ENDBRANCH  10  13
BRANCH   9  20
ATOM     20  C   UNL     1       1.701  13.375  19.049  0.00  0.00    +0.000 C 
ATOM     21  O   UNL     1       1.996  13.344  17.866  0.00  0.00    +0.000 OA
BRANCH  20  22
ATOM     22  O   UNL     1       2.589  13.511  20.069  0.00  0.00    +0.000 OA
ATOM     23  C   UNL     1       3.609  14.494  19.873  0.00  0.00    +0.000 C 
ENDBRANCH  20  22
ENDBRANCH   9  20
BRANCH   1  24
ATOM     24  C   UNL     1      -2.661   9.950  16.896  0.00  0.00    +0.000 C 
BRANCH  24  26
ATOM     25  C   UNL     1      -3.330  10.027  14.448  0.00  0.00    +0.000 C 
ATOM     26  C   UNL     1      -2.729  10.785  15.620  0.00  0.00    +0.000 C 
ENDBRANCH  24  26
ENDBRANCH   1  24
TORSDOF 5
ENDMDL
MODEL 7
REMARK VINA RESULT:      -6.2      8.094     11.526
REMARK  Name = 
REMARK  7 active torsions:
REMARK  status: ('A' for Active; 'I' for Inactive)
REMARK    1  A    between atoms: C_1  and  C_2
REMARK    2  A    between atoms: C_2  and  C_3
REMARK    3  A    between atoms: C_3  and  N_4
REMARK    4  A    between atoms: C_12  and  C_13
REMARK    5  A    between atoms: C_13  and  O_15
REMARK    6  A    between atoms: O_15  and  C_16
REMARK    7  A    between atoms: C_17  and  C_18
REMARK                            x       y       z     vdW  Elec       q    Type
REMARK                         _______ _______ _______ _____ _____    ______ ____
ROOT
ATOM      1  N   UNL     1       7.953  10.058  17.739  0.00  0.00    +0.000 N 
ATOM      2  C   UNL     1       9.041  10.099  18.576  0.00  0.00    +0.000 C 
ATOM      3  O   UNL     1       9.299   9.200  19.371  0.00  0.00    +0.000 OA
ATOM      4  N   UNL     1       9.846  11.196  18.426  0.00  0.00    +0.000 N 
ATOM      5  C   UNL     1      11.104  11.354  19.123  0.00  0.00    +0.000 C 
ATOM      6  C   UNL     1      11.939  12.122  18.081  0.00  0.00    +0.000 C 
ATOM      7  C   UNL     1      10.903  12.823  17.177  0.00  0.00    +0.000 C 
ATOM      8  C   UNL     1       9.551  12.488  17.818  0.00  0.00    +0.000 C 
ATOM      9  C   UNL     1       9.276  13.495  18.935  0.00  0.00    +0.000 C 
ATOM     10  C   UNL     1       9.909  13.376  20.136  0.00  0.00    +0.000 C 
ATOM     11  C   UNL     1      10.853  12.200  20.395  0.00  0.00    +0.000 C 
ATOM     12  H   UNL     1       8.123  10.471  16.836  0.00  0.00    +0.000 HD
ENDROOT
BRANCH  10  13
ATOM     13  C   UNL     1       9.759  14.312  21.266  0.00  0.00    +0.000 A 
ATOM     14  C   UNL     1      10.614  15.417  21.380  0.00  0.00    +0.000 A 
ATOM     15  C   UNL     1      10.540  16.260  22.495  0.00  0.00    +0.000 A 
ATOM     16  C   UNL     1       9.603  16.013  23.497  0.00  0.00    +0.000 A 
ATOM     17  C   UNL     1       8.725  14.938  23.367  0.00  0.00    +0.000 A 
ATOM     18 CL   UNL     1       7.555  14.646  24.597  0.00  0.00    +0.000 Cl
ATOM     19  C   UNL     1       8.794  14.091  22.258  0.00  0.00    +0.000 A 
ENDBRANCH  10  13
BRANCH   9  20
ATOM     20  C   UNL     1       8.361  14.631  18.594  0.00  0.00    +0.000 C 
ATOM     21  O   UNL     1       7.164  14.674  18.827  0.00  0.00    +0.000 OA
BRANCH  20  22
ATOM     22  O   UNL     1       9.076  15.631  18.014  0.00  0.00    +0.000 OA
ATOM     23  C   UNL     1       8.739  16.955  18.432  0.00  0.00    +0.000 C 
ENDBRANCH  20  22
ENDBRANCH   9  20
BRANCH   1  24
ATOM     24  C   UNL     1       7.105   8.880  17.740  0.00  0.00    +0.000 C 
BRANCH  24  26
ATOM     25  C   UNL     1       7.540   6.404  18.103  0.00  0.00    +0.000 C 
ATOM     26  C   UNL     1       7.826   7.627  17.248  0.00  0.00    +0.000 C 
ENDBRANCH  24  26
ENDBRANCH   1  24
TORSDOF 5
ENDMDL
MODEL 8
REMARK VINA RESULT:      -6.2      9.561     11.548
REMARK  Name = 
REMARK  7 active torsions:
REMARK  status: ('A' for Active; 'I' for Inactive)
REMARK    1  A    between atoms: C_1  and  C_2
REMARK    2  A    between atoms: C_2  and  C_3
REMARK    3  A    between atoms: C_3  and  N_4
REMARK    4  A    between atoms: C_12  and  C_13
REMARK    5  A    between atoms: C_13  and  O_15
REMARK    6  A    between atoms: O_15  and  C_16
REMARK    7  A    between atoms: C_17  and  C_18
REMARK                            x       y       z     vdW  Elec       q    Type
REMARK                         _______ _______ _______ _____ _____    ______ ____
ROOT
ATOM      1  N   UNL     1       0.797   9.481  20.262  0.00  0.00    +0.000 N 
ATOM      2  C   UNL     1       0.231  10.070  19.159  0.00  0.00    +0.000 C 
ATOM      3  O   UNL     1       0.463   9.694  18.014  0.00  0.00    +0.000 OA
ATOM      4  N   UNL     1      -0.651  11.081  19.431  0.00  0.00    +0.000 N 
ATOM      5  C   UNL     1      -1.444  11.733  18.412  0.00  0.00    +0.000 C 
ATOM      6  C   UNL     1      -2.739  12.048  19.184  0.00  0.00    +0.000 C 
ATOM      7  C   UNL     1      -2.321  12.083  20.669  0.00  0.00    +0.000 C 
ATOM      8  C   UNL     1      -0.802  11.881  20.640  0.00  0.00    +0.000 C 
ATOM      9  C   UNL     1      -0.133  13.236  20.408  0.00  0.00    +0.000 C 
ATOM     10  C   UNL     1      -0.113  13.786  19.161  0.00  0.00    +0.000 C 
ATOM     11  C   UNL     1      -0.708  13.024  17.975  0.00  0.00    +0.000 C 
ATOM     12  H   UNL     1       0.185   9.448  21.061  0.00  0.00    +0.000 HD
ENDROOT
BRANCH  10  13
ATOM     13  C   UNL     1       0.459  15.104  18.828  0.00  0.00    +0.000 A 
ATOM     14  C   UNL     1      -0.386  16.199  18.603  0.00  0.00    +0.000 A 
ATOM     15  C   UNL     1       0.140  17.431  18.197  0.00  0.00    +0.000 A 
ATOM     16  C   UNL     1       1.516  17.581  18.028  0.00  0.00    +0.000 A 
ATOM     17  C   UNL     1       2.363  16.505  18.290  0.00  0.00    +0.000 A 
ATOM     18 CL   UNL     1       4.063  16.698  18.099  0.00  0.00    +0.000 Cl
ATOM     19  C   UNL     1       1.844  15.271  18.693  0.00  0.00    +0.000 A 
ENDBRANCH  10  13
BRANCH   9  20
ATOM     20  C   UNL     1       0.403  13.930  21.623  0.00  0.00    +0.000 C 
ATOM     21  O   UNL     1       1.546  13.854  22.040  0.00  0.00    +0.000 OA
BRANCH  20  22
ATOM     22  O   UNL     1      -0.578  14.692  22.178  0.00  0.00    +0.000 OA
ATOM     23  C   UNL     1      -1.045  14.260  23.458  0.00  0.00    +0.000 C 
ENDBRANCH  20  22
ENDBRANCH   9  20
BRANCH   1  24
ATOM     24  C   UNL     1       1.655   8.323  20.082  0.00  0.00    +0.000 C 
BRANCH  24  26
ATOM     25  C   UNL     1       1.784   5.825  20.522  0.00  0.00    +0.000 C 
ATOM     26  C   UNL     1       1.318   7.178  21.034  0.00  0.00    +0.000 C 
ENDBRANCH  24  26
ENDBRANCH   1  24
TORSDOF 5
ENDMDL
MODEL 9
REMARK VINA RESULT:      -6.1      9.911     12.570
REMARK  Name = 
REMARK  7 active torsions:
REMARK  status: ('A' for Active; 'I' for Inactive)
REMARK    1  A    between atoms: C_1  and  C_2
REMARK    2  A    between atoms: C_2  and  C_3
REMARK    3  A    between atoms: C_3  and  N_4
REMARK    4  A    between atoms: C_12  and  C_13
REMARK    5  A    between atoms: C_13  and  O_15
REMARK    6  A    between atoms: O_15  and  C_16
REMARK    7  A    between atoms: C_17  and  C_18
REMARK                            x       y       z     vdW  Elec       q    Type
REMARK                         _______ _______ _______ _____ _____    ______ ____
ROOT
ATOM      1  N   UNL     1       0.564   9.573  20.292  0.00  0.00    +0.000 N 
ATOM      2  C   UNL     1       0.222  10.746  20.917  0.00  0.00    +0.000 C 
ATOM      3  O   UNL     1       0.391  10.930  22.119  0.00  0.00    +0.000 OA
ATOM      4  N   UNL     1      -0.279  11.716  20.092  0.00  0.00    +0.000 N 
ATOM      5  C   UNL     1      -0.574  13.059  20.541  0.00  0.00    +0.000 C 
ATOM      6  C   UNL     1      -0.241  13.885  19.283  0.00  0.00    +0.000 C 
ATOM      7  C   UNL     1      -0.371  12.892  18.108  0.00  0.00    +0.000 C 
ATOM      8  C   UNL     1      -0.861  11.594  18.761  0.00  0.00    +0.000 C 
ATOM      9  C   UNL     1      -2.383  11.657  18.892  0.00  0.00    +0.000 C 
ATOM     10  C   UNL     1      -2.955  12.403  19.878  0.00  0.00    +0.000 C 
ATOM     11  C   UNL     1      -2.079  13.135  20.896  0.00  0.00    +0.000 C 
ATOM     12  H   UNL     1       0.909   9.700  19.354  0.00  0.00    +0.000 HD
ENDROOT
BRANCH  10  13
ATOM     13  C   UNL     1      -4.408  12.576  20.071  0.00  0.00    +0.000 A 
ATOM     14  C   UNL     1      -4.960  12.496  21.356  0.00  0.00    +0.000 A 
ATOM     15  C   UNL     1      -6.345  12.567  21.540  0.00  0.00    +0.000 A 
ATOM     16  C   UNL     1      -7.188  12.734  20.442  0.00  0.00    +0.000 A 
ATOM     17  C   UNL     1      -6.640  12.854  19.166  0.00  0.00    +0.000 A 
ATOM     18 CL   UNL     1      -7.681  13.079  17.814  0.00  0.00    +0.000 Cl
ATOM     19  C   UNL     1      -5.257  12.782  18.975  0.00  0.00    +0.000 A 
ENDBRANCH  10  13
BRANCH   9  20
ATOM     20  C   UNL     1      -3.171  10.934  17.842  0.00  0.00    +0.000 C 
ATOM     21  O   UNL     1      -3.799   9.902  18.008  0.00  0.00    +0.000 OA
BRANCH  20  22
ATOM     22  O   UNL     1      -3.108  11.626  16.673  0.00  0.00    +0.000 OA
ATOM     23  C   UNL     1      -3.370  10.867  15.491  0.00  0.00    +0.000 C 
ENDBRANCH  20  22
ENDBRANCH   9  20
BRANCH   1  24
ATOM     24  C   UNL     1       1.214   8.526  21.061  0.00  0.00    +0.000 C 
BRANCH  24  26
ATOM     25  C   UNL     1       1.732   6.080  20.612  0.00  0.00    +0.000 C 
ATOM     26  C   UNL     1       1.961   7.521  20.187  0.00  0.00    +0.000 C 
ENDBRANCH  24  26
ENDBRANCH   1  24
TORSDOF 5
ENDMDL
