MODEL 1
REMARK VINA RESULT:      -8.4      0.000      0.000
REMARK  Name = 
REMARK  5 active torsions:
REMARK  status: ('A' for Active; 'I' for Inactive)
REMARK    1  A    between atoms: C_1  and  C_2
REMARK    2  A    between atoms: C_4  and  C_5
REMARK    3  A    between atoms: C_14  and  C_15
REMARK    4  A    between atoms: C_15  and  N_16
REMARK    5  A    between atoms: C_20  and  C_22
REMARK                            x       y       z     vdW  Elec       q    Type
REMARK                         _______ _______ _______ _____ _____    ______ ____
ROOT
ATOM      1  C   UNL     1       8.212   5.845  19.591  0.00  0.00    +0.000 C 
ATOM      2  C   UNL     1       8.041   6.996  18.687  0.00  0.00    +0.000 A 
ATOM      3  O   UNL     1       8.523   8.168  19.189  0.00  0.00    +0.000 OA
ATOM      4  C   UNL     1       8.395   9.074  18.179  0.00  0.00    +0.000 A 
ATOM      5  N   UNL     1       7.809   8.584  17.104  0.00  0.00    +0.000 NA
ATOM      6  C   UNL     1       7.579   7.245  17.403  0.00  0.00    +0.000 A 
ENDROOT
BRANCH   4   7
ATOM      7  C   UNL     1       9.016  10.364  18.436  0.00  0.00    +0.000 A 
ATOM      8  C   UNL     1      10.126  10.457  19.301  0.00  0.00    +0.000 A 
ATOM      9  C   UNL     1      10.761  11.678  19.523  0.00  0.00    +0.000 A 
ATOM     10  C   UNL     1      10.283  12.813  18.887  0.00  0.00    +0.000 A 
ATOM     11  F   UNL     1      10.900  13.986  19.100  0.00  0.00    +0.000 F 
ATOM     12  C   UNL     1       9.194  12.757  18.039  0.00  0.00    +0.000 A 
ATOM     13  C   UNL     1       8.566  11.530  17.813  0.00  0.00    +0.000 A 
ATOM     14  F   UNL     1       7.516  11.503  16.982  0.00  0.00    +0.000 F 
ENDBRANCH   4   7
BRANCH   6  15
ATOM     15  C   UNL     1       7.110   6.309  16.326  0.00  0.00    +0.000 C 
BRANCH  15  16
ATOM     16  N   UNL     1       5.685   6.293  15.975  0.00  0.00    +0.000 NA
ATOM     17  C   UNL     1       5.191   5.122  15.254  0.00  0.00    +0.000 C 
ATOM     18  C   UNL     1       4.796   3.937  16.144  0.00  0.00    +0.000 C 
ATOM     19  N   UNL     1       3.964   4.293  17.295  0.00  0.00    +0.000 N 
ATOM     20  C   UNL     1       3.457   3.194  18.021  0.00  0.00    +0.000 C 
ATOM     21  O   UNL     1       3.673   2.042  17.636  0.00  0.00    +0.000 OA
ATOM     22  C   UNL     1       4.320   5.548  17.980  0.00  0.00    +0.000 C 
ATOM     23  C   UNL     1       4.748   6.679  17.032  0.00  0.00    +0.000 C 
BRANCH  20  24
ATOM     24  C   UNL     1       2.702   3.435  19.241  0.00  0.00    +0.000 A 
ATOM     25  C   UNL     1       2.985   3.080  20.547  0.00  0.00    +0.000 A 
ATOM     26  C   UNL     1       1.901   3.529  21.339  0.00  0.00    +0.000 A 
ATOM     27  C   UNL     1       1.008   4.104  20.469  0.00  0.00    +0.000 A 
ATOM     28  O   UNL     1       1.472   4.033  19.197  0.00  0.00    +0.000 OA
ENDBRANCH  20  24
ENDBRANCH  15  16
ENDBRANCH   6  15
TORSDOF 4
ENDMDL
MODEL 2
REMARK VINA RESULT:      -8.0      1.004      1.205
REMARK  Name = 
REMARK  5 active torsions:
REMARK  status: ('A' for Active; 'I' for Inactive)
REMARK    1  A    between atoms: C_1  and  C_2
REMARK    2  A    between atoms: C_4  and  C_5
REMARK    3  A    between atoms: C_14  and  C_15
REMARK    4  A    between atoms: C_15  and  N_16
REMARK    5  A    between atoms: C_20  and  C_22
REMARK                            x       y       z     vdW  Elec       q    Type
REMARK                         _______ _______ _______ _____ _____    ______ ____
ROOT
ATOM      1  C   UNL     1       8.178   5.829  19.620  0.00  0.00    +0.000 C 
ATOM      2  C   UNL     1       8.094   7.031  18.773  0.00  0.00    +0.000 A 
ATOM      3  O   UNL     1       8.651   8.141  19.334  0.00  0.00    +0.000 OA
ATOM      4  C   UNL     1       8.594   9.102  18.368  0.00  0.00    +0.000 A 
ATOM      5  N   UNL     1       7.985   8.706  17.267  0.00  0.00    +0.000 NA
ATOM      6  C   UNL     1       7.662   7.373  17.499  0.00  0.00    +0.000 A 
ENDROOT
BRANCH   4   7
ATOM      7  C   UNL     1       9.300  10.332  18.691  0.00  0.00    +0.000 A 
ATOM      8  C   UNL     1       9.870  11.113  17.665  0.00  0.00    +0.000 A 
ATOM      9  C   UNL     1      10.512  12.318  17.954  0.00  0.00    +0.000 A 
ATOM     10  C   UNL     1      10.592  12.741  19.271  0.00  0.00    +0.000 A 
ATOM     11  F   UNL     1      11.205  13.903  19.544  0.00  0.00    +0.000 F 
ATOM     12  C   UNL     1      10.049  11.995  20.299  0.00  0.00    +0.000 A 
ATOM     13  C   UNL     1       9.401  10.794  20.005  0.00  0.00    +0.000 A 
ATOM     14  F   UNL     1       8.878  10.095  21.021  0.00  0.00    +0.000 F 
ENDBRANCH   4   7
BRANCH   6  15
ATOM     15  C   UNL     1       7.138   6.524  16.375  0.00  0.00    +0.000 C 
BRANCH  15  16
ATOM     16  N   UNL     1       5.698   6.532  16.095  0.00  0.00    +0.000 NA
ATOM     17  C   UNL     1       5.161   5.402  15.341  0.00  0.00    +0.000 C 
ATOM     18  C   UNL     1       4.802   4.174  16.187  0.00  0.00    +0.000 C 
ATOM     19  N   UNL     1       4.031   4.474  17.394  0.00  0.00    +0.000 N 
ATOM     20  C   UNL     1       3.553   3.341  18.087  0.00  0.00    +0.000 C 
ATOM     21  O   UNL     1       3.742   2.210  17.633  0.00  0.00    +0.000 OA
ATOM     22  C   UNL     1       4.428   5.691  18.125  0.00  0.00    +0.000 C 
ATOM     23  C   UNL     1       4.816   6.868  17.216  0.00  0.00    +0.000 C 
BRANCH  20  24
ATOM     24  C   UNL     1       2.861   3.522  19.354  0.00  0.00    +0.000 A 
ATOM     25  C   UNL     1       3.101   2.948  20.589  0.00  0.00    +0.000 A 
ATOM     26  C   UNL     1       2.111   3.443  21.471  0.00  0.00    +0.000 A 
ATOM     27  C   UNL     1       1.307   4.265  20.719  0.00  0.00    +0.000 A 
ATOM     28  O   UNL     1       1.738   4.301  19.434  0.00  0.00    +0.000 OA
ENDBRANCH  20  24
ENDBRANCH  15  16
ENDBRANCH   6  15
TORSDOF 4
ENDMDL
MODEL 3
REMARK VINA RESULT:      -7.6      7.503      9.622
REMARK  Name = 
REMARK  5 active torsions:
REMARK  status: ('A' for Active; 'I' for Inactive)
REMARK    1  A    between atoms: C_1  and  C_2
REMARK    2  A    between atoms: C_4  and  C_5
REMARK    3  A    between atoms: C_14  and  C_15
REMARK    4  A    between atoms: C_15  and  N_16
REMARK    5  A    between atoms: C_20  and  C_22
REMARK                            x       y       z     vdW  Elec       q    Type
REMARK                         _______ _______ _______ _____ _____    ______ ____
ROOT
ATOM      1  C   UNL     1       1.135   8.442  21.558  0.00  0.00    +0.000 C 
ATOM      2  C   UNL     1       1.491   8.461  20.129  0.00  0.00    +0.000 A 
ATOM      3  O   UNL     1       2.430   7.536  19.782  0.00  0.00    +0.000 OA
ATOM      4  C   UNL     1       2.533   7.618  18.425  0.00  0.00    +0.000 A 
ATOM      5  N   UNL     1       1.784   8.564  17.896  0.00  0.00    +0.000 NA
ATOM      6  C   UNL     1       1.095   9.116  18.972  0.00  0.00    +0.000 A 
ENDROOT
BRANCH   4   7
ATOM      7  C   UNL     1       3.360   6.587  17.816  0.00  0.00    +0.000 A 
ATOM      8  C   UNL     1       4.613   6.918  17.261  0.00  0.00    +0.000 A 
ATOM      9  C   UNL     1       5.437   5.935  16.713  0.00  0.00    +0.000 A 
ATOM     10  C   UNL     1       5.006   4.618  16.712  0.00  0.00    +0.000 A 
ATOM     11  F   UNL     1       5.804   3.674  16.189  0.00  0.00    +0.000 F 
ATOM     12  C   UNL     1       3.781   4.262  17.242  0.00  0.00    +0.000 A 
ATOM     13  C   UNL     1       2.963   5.248  17.796  0.00  0.00    +0.000 A 
ATOM     14  F   UNL     1       1.783   4.873  18.309  0.00  0.00    +0.000 F 
ENDBRANCH   4   7
BRANCH   6  15
ATOM     15  C   UNL     1      -0.018  10.094  18.724  0.00  0.00    +0.000 C 
BRANCH  15  16
ATOM     16  N   UNL     1       0.161  11.490  19.139  0.00  0.00    +0.000 NA
ATOM     17  C   UNL     1      -0.645  12.496  18.453  0.00  0.00    +0.000 C 
ATOM     18  C   UNL     1      -2.052  12.699  19.030  0.00  0.00    +0.000 C 
ATOM     19  N   UNL     1      -2.098  12.825  20.487  0.00  0.00    +0.000 N 
ATOM     20  C   UNL     1      -3.360  13.179  21.011  0.00  0.00    +0.000 C 
ATOM     21  O   UNL     1      -4.303  13.416  20.251  0.00  0.00    +0.000 OA
ATOM     22  C   UNL     1      -1.194  11.936  21.238  0.00  0.00    +0.000 C 
ATOM     23  C   UNL     1       0.182  11.744  20.582  0.00  0.00    +0.000 C 
BRANCH  20  24
ATOM     24  C   UNL     1      -3.542  13.234  22.453  0.00  0.00    +0.000 A 
ATOM     25  C   UNL     1      -3.088  14.161  23.373  0.00  0.00    +0.000 A 
ATOM     26  C   UNL     1      -3.518  13.721  24.647  0.00  0.00    +0.000 A 
ATOM     27  C   UNL     1      -4.182  12.537  24.436  0.00  0.00    +0.000 A 
ATOM     28  O   UNL     1      -4.182  12.223  23.117  0.00  0.00    +0.000 OA
ENDBRANCH  20  24
ENDBRANCH  15  16
ENDBRANCH   6  15
TORSDOF 4
ENDMDL
MODEL 4
REMARK VINA RESULT:      -7.5      6.543      9.421
REMARK  Name = 
REMARK  5 active torsions:
REMARK  status: ('A' for Active; 'I' for Inactive)
REMARK    1  A    between atoms: C_1  and  C_2
REMARK    2  A    between atoms: C_4  and  C_5
REMARK    3  A    between atoms: C_14  and  C_15
REMARK    4  A    between atoms: C_15  and  N_16
REMARK    5  A    between atoms: C_20  and  C_22
REMARK                            x       y       z     vdW  Elec       q    Type
REMARK                         _______ _______ _______ _____ _____    ______ ____
ROOT
ATOM      1  C   UNL     1       2.136   9.450  17.850  0.00  0.00    +0.000 C 
ATOM      2  C   UNL     1       2.036   8.326  18.797  0.00  0.00    +0.000 A 
ATOM      3  O   UNL     1       2.265   7.107  18.232  0.00  0.00    +0.000 OA
ATOM      4  C   UNL     1       2.257   6.221  19.268  0.00  0.00    +0.000 A 
ATOM      5  N   UNL     1       1.975   6.774  20.431  0.00  0.00    +0.000 NA
ATOM      6  C   UNL     1       1.837   8.131  20.156  0.00  0.00    +0.000 A 
ENDROOT
BRANCH   4   7
ATOM      7  C   UNL     1       2.660   4.868  18.914  0.00  0.00    +0.000 A 
ATOM      8  C   UNL     1       3.743   4.255  19.578  0.00  0.00    +0.000 A 
ATOM      9  C   UNL     1       4.114   2.943  19.282  0.00  0.00    +0.000 A 
ATOM     10  C   UNL     1       3.408   2.243  18.317  0.00  0.00    +0.000 A 
ATOM     11  F   UNL     1       3.765   0.979  18.039  0.00  0.00    +0.000 F 
ATOM     12  C   UNL     1       2.347   2.818  17.645  0.00  0.00    +0.000 A 
ATOM     13  C   UNL     1       1.973   4.128  17.949  0.00  0.00    +0.000 A 
ATOM     14  F   UNL     1       0.937   4.658  17.287  0.00  0.00    +0.000 F 
ENDBRANCH   4   7
BRANCH   6  15
ATOM     15  C   UNL     1       1.718   9.113  21.286  0.00  0.00    +0.000 C 
BRANCH  15  16
ATOM     16  N   UNL     1       0.394   9.654  21.616  0.00  0.00    +0.000 NA
ATOM     17  C   UNL     1       0.272  11.107  21.701  0.00  0.00    +0.000 C 
ATOM     18  C   UNL     1       0.023  11.813  20.363  0.00  0.00    +0.000 C 
ATOM     19  N   UNL     1      -1.019  11.199  19.538  0.00  0.00    +0.000 N 
ATOM     20  C   UNL     1      -1.372  11.935  18.387  0.00  0.00    +0.000 C 
ATOM     21  O   UNL     1      -0.860  13.037  18.172  0.00  0.00    +0.000 OA
ATOM     22  C   UNL     1      -1.044   9.726  19.526  0.00  0.00    +0.000 C 
ATOM     23  C   UNL     1      -0.744   9.084  20.890  0.00  0.00    +0.000 C 
BRANCH  20  24
ATOM     24  C   UNL     1      -2.325  11.368  17.445  0.00  0.00    +0.000 A 
ATOM     25  C   UNL     1      -2.115  10.543  16.356  0.00  0.00    +0.000 A 
ATOM     26  C   UNL     1      -3.380  10.316  15.762  0.00  0.00    +0.000 A 
ATOM     27  C   UNL     1      -4.283  11.039  16.503  0.00  0.00    +0.000 A 
ATOM     28  O   UNL     1      -3.652  11.696  17.508  0.00  0.00    +0.000 OA
ENDBRANCH  20  24
ENDBRANCH  15  16
ENDBRANCH   6  15
TORSDOF 4
ENDMDL
MODEL 5
REMARK VINA RESULT:      -7.3      6.526      9.498
REMARK  Name = 
REMARK  5 active torsions:
REMARK  status: ('A' for Active; 'I' for Inactive)
REMARK    1  A    between atoms: C_1  and  C_2
REMARK    2  A    between atoms: C_4  and  C_5
REMARK    3  A    between atoms: C_14  and  C_15
REMARK    4  A    between atoms: C_15  and  N_16
REMARK    5  A    between atoms: C_20  and  C_22
REMARK                            x       y       z     vdW  Elec       q    Type
REMARK                         _______ _______ _______ _____ _____    ______ ____
ROOT
ATOM      1  C   UNL     1       2.116   9.278  17.785  0.00  0.00    +0.000 C 
ATOM      2  C   UNL     1       2.000   8.236  18.821  0.00  0.00    +0.000 A 
ATOM      3  O   UNL     1       2.199   6.971  18.355  0.00  0.00    +0.000 OA
ATOM      4  C   UNL     1       2.181   6.173  19.460  0.00  0.00    +0.000 A 
ATOM      5  N   UNL     1       1.919   6.824  20.576  0.00  0.00    +0.000 NA
ATOM      6  C   UNL     1       1.808   8.157  20.192  0.00  0.00    +0.000 A 
ENDROOT
BRANCH   4   7
ATOM      7  C   UNL     1       2.553   4.788  19.215  0.00  0.00    +0.000 A 
ATOM      8  C   UNL     1       1.574   3.846  18.835  0.00  0.00    +0.000 A 
ATOM      9  C   UNL     1       1.922   2.525  18.553  0.00  0.00    +0.000 A 
ATOM     10  C   UNL     1       3.249   2.139  18.658  0.00  0.00    +0.000 A 
ATOM     11  F   UNL     1       3.581   0.869  18.381  0.00  0.00    +0.000 F 
ATOM     12  C   UNL     1       4.231   3.037  19.033  0.00  0.00    +0.000 A 
ATOM     13  C   UNL     1       3.879   4.360  19.307  0.00  0.00    +0.000 A 
ATOM     14  F   UNL     1       4.852   5.209  19.663  0.00  0.00    +0.000 F 
ENDBRANCH   4   7
BRANCH   6  15
ATOM     15  C   UNL     1       1.718   9.230  21.239  0.00  0.00    +0.000 C 
BRANCH  15  16
ATOM     16  N   UNL     1       0.398   9.768  21.589  0.00  0.00    +0.000 NA
ATOM     17  C   UNL     1       0.279  11.220  21.695  0.00  0.00    +0.000 C 
ATOM     18  C   UNL     1       0.017  11.944  20.368  0.00  0.00    +0.000 C 
ATOM     19  N   UNL     1      -1.034  11.342  19.546  0.00  0.00    +0.000 N 
ATOM     20  C   UNL     1      -1.397  12.094  18.408  0.00  0.00    +0.000 C 
ATOM     21  O   UNL     1      -0.885  13.198  18.202  0.00  0.00    +0.000 OA
ATOM     22  C   UNL     1      -1.060   9.869  19.515  0.00  0.00    +0.000 C 
ATOM     23  C   UNL     1      -0.747   9.210  20.867  0.00  0.00    +0.000 C 
BRANCH  20  24
ATOM     24  C   UNL     1      -2.359  11.540  17.468  0.00  0.00    +0.000 A 
ATOM     25  C   UNL     1      -2.154  10.844  16.291  0.00  0.00    +0.000 A 
ATOM     26  C   UNL     1      -3.432  10.568  15.748  0.00  0.00    +0.000 A 
ATOM     27  C   UNL     1      -4.340  11.137  16.607  0.00  0.00    +0.000 A 
ATOM     28  O   UNL     1      -3.702  11.746  17.637  0.00  0.00    +0.000 OA
ENDBRANCH  20  24
ENDBRANCH  15  16
ENDBRANCH   6  15
TORSDOF 4
ENDMDL
MODEL 6
REMARK VINA RESULT:      -7.3      7.322     10.124
REMARK  Name = 
REMARK  5 active torsions:
REMARK  status: ('A' for Active; 'I' for Inactive)
REMARK    1  A    between atoms: C_1  and  C_2
REMARK    2  A    between atoms: C_4  and  C_5
REMARK    3  A    between atoms: C_14  and  C_15
REMARK    4  A    between atoms: C_15  and  N_16
REMARK    5  A    between atoms: C_20  and  C_22
REMARK                            x       y       z     vdW  Elec       q    Type
REMARK                         _______ _______ _______ _____ _____    ______ ____
ROOT
ATOM      1  C   UNL     1       0.821   8.099  21.243  0.00  0.00    +0.000 C 
ATOM      2  C   UNL     1       1.494   8.259  19.942  0.00  0.00    +0.000 A 
ATOM      3  O   UNL     1       2.294   7.209  19.603  0.00  0.00    +0.000 OA
ATOM      4  C   UNL     1       2.721   7.474  18.336  0.00  0.00    +0.000 A 
ATOM      5  N   UNL     1       2.307   8.638  17.874  0.00  0.00    +0.000 NA
ATOM      6  C   UNL     1       1.507   9.159  18.887  0.00  0.00    +0.000 A 
ENDROOT
BRANCH   4   7
ATOM      7  C   UNL     1       3.453   6.389  17.701  0.00  0.00    +0.000 A 
ATOM      8  C   UNL     1       4.642   6.656  16.991  0.00  0.00    +0.000 A 
ATOM      9  C   UNL     1       5.380   5.622  16.415  0.00  0.00    +0.000 A 
ATOM     10  C   UNL     1       4.928   4.318  16.541  0.00  0.00    +0.000 A 
ATOM     11  F   UNL     1       5.644   3.326  15.990  0.00  0.00    +0.000 F 
ATOM     12  C   UNL     1       3.764   4.025  17.225  0.00  0.00    +0.000 A 
ATOM     13  C   UNL     1       3.032   5.062  17.807  0.00  0.00    +0.000 A 
ATOM     14  F   UNL     1       1.911   4.748  18.469  0.00  0.00    +0.000 F 
ENDBRANCH   4   7
BRANCH   6  15
ATOM     15  C   UNL     1       0.688  10.391  18.632  0.00  0.00    +0.000 C 
BRANCH  15  16
ATOM     16  N   UNL     1       0.200  11.166  19.779  0.00  0.00    +0.000 NA
ATOM     17  C   UNL     1       1.205  11.798  20.630  0.00  0.00    +0.000 C 
ATOM     18  C   UNL     1       1.691  13.169  20.146  0.00  0.00    +0.000 C 
ATOM     19  N   UNL     1       0.622  14.086  19.748  0.00  0.00    +0.000 N 
ATOM     20  C   UNL     1       1.046  15.401  19.463  0.00  0.00    +0.000 C 
ATOM     21  O   UNL     1       2.229  15.720  19.617  0.00  0.00    +0.000 OA
ATOM     22  C   UNL     1      -0.501  13.481  19.010  0.00  0.00    +0.000 C 
ATOM     23  C   UNL     1      -0.908  12.089  19.520  0.00  0.00    +0.000 C 
BRANCH  20  24
ATOM     24  C   UNL     1       0.081  16.367  18.961  0.00  0.00    +0.000 A 
ATOM     25  C   UNL     1       0.103  17.131  17.809  0.00  0.00    +0.000 A 
ATOM     26  C   UNL     1      -1.065  17.930  17.822  0.00  0.00    +0.000 A 
ATOM     27  C   UNL     1      -1.717  17.630  18.994  0.00  0.00    +0.000 A 
ATOM     28  O   UNL     1      -1.021  16.704  19.699  0.00  0.00    +0.000 OA
ENDBRANCH  20  24
ENDBRANCH  15  16
ENDBRANCH   6  15
TORSDOF 4
ENDMDL
MODEL 7
REMARK VINA RESULT:      -7.2      8.192     10.188
REMARK  Name = 
REMARK  5 active torsions:
REMARK  status: ('A' for Active; 'I' for Inactive)
REMARK    1  A    between atoms: C_1  and  C_2
REMARK    2  A    between atoms: C_4  and  C_5
REMARK    3  A    between atoms: C_14  and  C_15
REMARK    4  A    between atoms: C_15  and  N_16
REMARK    5  A    between atoms: C_20  and  C_22
REMARK                            x       y       z     vdW  Elec       q    Type
REMARK                         _______ _______ _______ _____ _____    ______ ____
ROOT
ATOM      1  C   UNL     1       2.298  12.320  18.074  0.00  0.00    +0.000 C 
ATOM      2  C   UNL     1       1.694  11.058  18.538  0.00  0.00    +0.000 A 
ATOM      3  O   UNL     1       2.405   9.948  18.195  0.00  0.00    +0.000 OA
ATOM      4  C   UNL     1       1.771   8.909  18.810  0.00  0.00    +0.000 A 
ATOM      5  N   UNL     1       0.679   9.267  19.457  0.00  0.00    +0.000 NA
ATOM      6  C   UNL     1       0.612  10.649  19.305  0.00  0.00    +0.000 A 
ENDROOT
BRANCH   4   7
ATOM      7  C   UNL     1       2.468   7.635  18.724  0.00  0.00    +0.000 A 
ATOM      8  C   UNL     1       3.329   7.369  17.640  0.00  0.00    +0.000 A 
ATOM      9  C   UNL     1       4.040   6.171  17.566  0.00  0.00    +0.000 A 
ATOM     10  C   UNL     1       3.886   5.232  18.574  0.00  0.00    +0.000 A 
ATOM     11  F   UNL     1       4.576   4.082  18.502  0.00  0.00    +0.000 F 
ATOM     12  C   UNL     1       3.046   5.460  19.647  0.00  0.00    +0.000 A 
ATOM     13  C   UNL     1       2.342   6.664  19.720  0.00  0.00    +0.000 A 
ATOM     14  F   UNL     1       1.540   6.861  20.774  0.00  0.00    +0.000 F 
ENDBRANCH   4   7
BRANCH   6  15
ATOM     15  C   UNL     1      -0.396  11.438  20.090  0.00  0.00    +0.000 C 
BRANCH  15  16
ATOM     16  N   UNL     1      -1.162  12.486  19.405  0.00  0.00    +0.000 NA
ATOM     17  C   UNL     1      -1.776  12.133  18.127  0.00  0.00    +0.000 C 
ATOM     18  C   UNL     1      -3.149  11.458  18.236  0.00  0.00    +0.000 C 
ATOM     19  N   UNL     1      -4.078  12.119  19.155  0.00  0.00    +0.000 N 
ATOM     20  C   UNL     1      -5.393  11.607  19.134  0.00  0.00    +0.000 C 
ATOM     21  O   UNL     1      -5.701  10.715  18.339  0.00  0.00    +0.000 OA
ATOM     22  C   UNL     1      -3.490  12.633  20.404  0.00  0.00    +0.000 C 
ATOM     23  C   UNL     1      -2.096  13.256  20.229  0.00  0.00    +0.000 C 
BRANCH  20  24
ATOM     24  C   UNL     1      -6.372  12.123  20.079  0.00  0.00    +0.000 A 
ATOM     25  C   UNL     1      -7.171  13.249  20.007  0.00  0.00    +0.000 A 
ATOM     26  C   UNL     1      -7.915  13.304  21.210  0.00  0.00    +0.000 A 
ATOM     27  C   UNL     1      -7.506  12.227  21.959  0.00  0.00    +0.000 A 
ATOM     28  O   UNL     1      -6.558  11.521  21.294  0.00  0.00    +0.000 OA
ENDBRANCH  20  24
ENDBRANCH  15  16
ENDBRANCH   6  15
TORSDOF 4
ENDMDL
MODEL 8
REMARK VINA RESULT:      -7.2      6.637      9.622
REMARK  Name = 
REMARK  5 active torsions:
REMARK  status: ('A' for Active; 'I' for Inactive)
REMARK    1  A    between atoms: C_1  and  C_2
REMARK    2  A    between atoms: C_4  and  C_5
REMARK    3  A    between atoms: C_14  and  C_15
REMARK    4  A    between atoms: C_15  and  N_16
REMARK    5  A    between atoms: C_20  and  C_22
REMARK                            x       y       z     vdW  Elec       q    Type
REMARK                         _______ _______ _______ _____ _____    ______ ____
ROOT
ATOM      1  C   UNL     1       2.260   9.222  17.880  0.00  0.00    +0.000 C 
ATOM      2  C   UNL     1       2.082   8.115  18.837  0.00  0.00    +0.000 A 
ATOM      3  O   UNL     1       2.303   6.882  18.300  0.00  0.00    +0.000 OA
ATOM      4  C   UNL     1       2.219   6.013  19.347  0.00  0.00    +0.000 A 
ATOM      5  N   UNL     1       1.898   6.591  20.487  0.00  0.00    +0.000 NA
ATOM      6  C   UNL     1       1.813   7.947  20.187  0.00  0.00    +0.000 A 
ENDROOT
BRANCH   4   7
ATOM      7  C   UNL     1       2.600   4.644  19.032  0.00  0.00    +0.000 A 
ATOM      8  C   UNL     1       3.641   4.391  18.115  0.00  0.00    +0.000 A 
ATOM      9  C   UNL     1       4.048   3.086  17.836  0.00  0.00    +0.000 A 
ATOM     10  C   UNL     1       3.410   2.030  18.468  0.00  0.00    +0.000 A 
ATOM     11  F   UNL     1       3.809   0.777  18.201  0.00  0.00    +0.000 F 
ATOM     12  C   UNL     1       2.384   2.245  19.368  0.00  0.00    +0.000 A 
ATOM     13  C   UNL     1       1.985   3.553  19.650  0.00  0.00    +0.000 A 
ATOM     14  F   UNL     1       0.991   3.733  20.530  0.00  0.00    +0.000 F 
ENDBRANCH   4   7
BRANCH   6  15
ATOM     15  C   UNL     1       1.669   8.950  21.296  0.00  0.00    +0.000 C 
BRANCH  15  16
ATOM     16  N   UNL     1       0.322   9.372  21.697  0.00  0.00    +0.000 NA
ATOM     17  C   UNL     1       0.142  10.779  22.045  0.00  0.00    +0.000 C 
ATOM     18  C   UNL     1      -0.121  11.710  20.855  0.00  0.00    +0.000 C 
ATOM     19  N   UNL     1      -1.130  11.220  19.914  0.00  0.00    +0.000 N 
ATOM     20  C   UNL     1      -1.500  12.142  18.911  0.00  0.00    +0.000 C 
ATOM     21  O   UNL     1      -1.028  13.282  18.911  0.00  0.00    +0.000 OA
ATOM     22  C   UNL     1      -1.097   9.774  19.631  0.00  0.00    +0.000 C 
ATOM     23  C   UNL     1      -0.785   8.904  20.860  0.00  0.00    +0.000 C 
BRANCH  20  24
ATOM     24  C   UNL     1      -2.420  11.723  17.865  0.00  0.00    +0.000 A 
ATOM     25  C   UNL     1      -3.794  11.578  17.894  0.00  0.00    +0.000 A 
ATOM     26  C   UNL     1      -4.186  11.111  16.617  0.00  0.00    +0.000 A 
ATOM     27  C   UNL     1      -3.028  10.970  15.892  0.00  0.00    +0.000 A 
ATOM     28  O   UNL     1      -1.953  11.315  16.644  0.00  0.00    +0.000 OA
ENDBRANCH  20  24
ENDBRANCH  15  16
ENDBRANCH   6  15
TORSDOF 4
ENDMDL
MODEL 9
REMARK VINA RESULT:      -7.2      6.946     10.164
REMARK  Name = 
REMARK  5 active torsions:
REMARK  status: ('A' for Active; 'I' for Inactive)
REMARK    1  A    between atoms: C_1  and  C_2
REMARK    2  A    between atoms: C_4  and  C_5
REMARK    3  A    between atoms: C_14  and  C_15
REMARK    4  A    between atoms: C_15  and  N_16
REMARK    5  A    between atoms: C_20  and  C_22
REMARK                            x       y       z     vdW  Elec       q    Type
REMARK                         _______ _______ _______ _____ _____    ______ ____
ROOT
ATOM      1  C   UNL     1       2.476   9.078  17.822  0.00  0.00    +0.000 C 
ATOM      2  C   UNL     1       2.143   7.958  18.719  0.00  0.00    +0.000 A 
ATOM      3  O   UNL     1       2.501   6.737  18.232  0.00  0.00    +0.000 OA
ATOM      4  C   UNL     1       2.235   5.855  19.237  0.00  0.00    +0.000 A 
ATOM      5  N   UNL     1       1.676   6.414  20.293  0.00  0.00    +0.000 NA
ATOM      6  C   UNL     1       1.614   7.770  19.988  0.00  0.00    +0.000 A 
ENDROOT
BRANCH   4   7
ATOM      7  C   UNL     1       2.710   4.501  19.000  0.00  0.00    +0.000 A 
ATOM      8  C   UNL     1       3.806   3.995  19.729  0.00  0.00    +0.000 A 
ATOM      9  C   UNL     1       4.245   2.684  19.545  0.00  0.00    +0.000 A 
ATOM     10  C   UNL     1       3.594   1.876  18.625  0.00  0.00    +0.000 A 
ATOM     11  F   UNL     1       4.016   0.614  18.455  0.00  0.00    +0.000 F 
ATOM     12  C   UNL     1       2.520   2.344  17.892  0.00  0.00    +0.000 A 
ATOM     13  C   UNL     1       2.079   3.655  18.084  0.00  0.00    +0.000 A 
ATOM     14  F   UNL     1       1.033   4.080  17.364  0.00  0.00    +0.000 F 
ENDBRANCH   4   7
BRANCH   6  15
ATOM     15  C   UNL     1       1.222   8.757  21.050  0.00  0.00    +0.000 C 
BRANCH  15  16
ATOM     16  N   UNL     1      -0.088   9.411  20.958  0.00  0.00    +0.000 NA
ATOM     17  C   UNL     1      -0.604  10.038  22.172  0.00  0.00    +0.000 C 
ATOM     18  C   UNL     1      -0.113  11.470  22.418  0.00  0.00    +0.000 C 
ATOM     19  N   UNL     1      -0.186  12.345  21.246  0.00  0.00    +0.000 N 
ATOM     20  C   UNL     1       0.103  13.703  21.504  0.00  0.00    +0.000 C 
ATOM     21  O   UNL     1       0.329  14.082  22.656  0.00  0.00    +0.000 OA
ATOM     22  C   UNL     1       0.182  11.729  19.960  0.00  0.00    +0.000 C 
ATOM     23  C   UNL     1      -0.305  10.280  19.799  0.00  0.00    +0.000 C 
BRANCH  20  24
ATOM     24  C   UNL     1       0.157  14.641  20.393  0.00  0.00    +0.000 A 
ATOM     25  C   UNL     1      -0.866  15.266  19.706  0.00  0.00    +0.000 A 
ATOM     26  C   UNL     1      -0.262  16.051  18.694  0.00  0.00    +0.000 A 
ATOM     27  C   UNL     1       1.090  15.836  18.803  0.00  0.00    +0.000 A 
ATOM     28  O   UNL     1       1.352  14.968  19.811  0.00  0.00    +0.000 OA
ENDBRANCH  20  24
ENDBRANCH  15  16
ENDBRANCH   6  15
TORSDOF 4
ENDMDL
