MODEL 1
REMARK VINA RESULT:      -7.9      0.000      0.000
REMARK  Name = 
REMARK  2 active torsions:
REMARK  status: ('A' for Active; 'I' for Inactive)
REMARK    1  A    between atoms: C_4  and  C_5
REMARK    2  A    between atoms: C_15  and  C_16
REMARK                            x       y       z     vdW  Elec       q    Type
REMARK                         _______ _______ _______ _____ _____    ______ ____
ROOT
ATOM      1 CL   UNL     1       3.402   7.903  17.384  0.00  0.00    +0.000 Cl
ATOM      2  C   UNL     1       2.738   7.418  18.869  0.00  0.00    +0.000 A 
ATOM      3  N   UNL     1       2.011   8.359  19.485  0.00  0.00    +0.000 NA
ATOM      4  C   UNL     1       1.342   8.015  20.589  0.00  0.00    +0.000 A 
ATOM      5  N   UNL     1       1.312   6.791  21.119  0.00  0.00    +0.000 NA
ATOM      6  C   UNL     1       2.074   5.894  20.473  0.00  0.00    +0.000 A 
ATOM      7  S   UNL     1       2.110   4.288  21.025  0.00  0.00    +0.000 S 
ATOM      8  C   UNL     1       3.242   3.851  19.834  0.00  0.00    +0.000 A 
ATOM      9  C   UNL     1       3.596   4.899  18.996  0.00  0.00    +0.000 A 
ATOM     10  C   UNL     1       2.864   6.113  19.349  0.00  0.00    +0.000 A 
ENDROOT
BRANCH   4  11
ATOM     11  C   UNL     1       0.565   9.073  21.258  0.00  0.00    +0.000 A 
ATOM     12  C   UNL     1      -0.192  10.014  20.542  0.00  0.00    +0.000 A 
ATOM     13  C   UNL     1      -0.912  11.006  21.210  0.00  0.00    +0.000 A 
ATOM     14  C   UNL     1      -0.860  11.036  22.587  0.00  0.00    +0.000 A 
ATOM     15  N   UNL     1      -0.150  10.157  23.327  0.00  0.00    +0.000 NA
ATOM     16  C   UNL     1       0.538   9.206  22.645  0.00  0.00    +0.000 A 
ENDBRANCH   4  11
BRANCH   9  17
ATOM     17  C   UNL     1       4.620   4.669  17.966  0.00  0.00    +0.000 A 
ATOM     18  C   UNL     1       4.261   4.278  16.664  0.00  0.00    +0.000 A 
ATOM     19  C   UNL     1       5.236   4.047  15.687  0.00  0.00    +0.000 A 
ATOM     20  C   UNL     1       6.581   4.240  15.985  0.00  0.00    +0.000 A 
ATOM     21  C   UNL     1       6.955   4.613  17.272  0.00  0.00    +0.000 A 
ATOM     22  C   UNL     1       5.983   4.782  18.264  0.00  0.00    +0.000 A 
ENDBRANCH   9  17
TORSDOF 2
ENDMDL
MODEL 2
REMARK VINA RESULT:      -7.9      0.040      1.026
REMARK  Name = 
REMARK  2 active torsions:
REMARK  status: ('A' for Active; 'I' for Inactive)
REMARK    1  A    between atoms: C_4  and  C_5
REMARK    2  A    between atoms: C_15  and  C_16
REMARK                            x       y       z     vdW  Elec       q    Type
REMARK                         _______ _______ _______ _____ _____    ______ ____
ROOT
ATOM      1 CL   UNL     1       3.412   7.872  17.385  0.00  0.00    +0.000 Cl
ATOM      2  C   UNL     1       2.751   7.385  18.870  0.00  0.00    +0.000 A 
ATOM      3  N   UNL     1       2.024   8.326  19.487  0.00  0.00    +0.000 NA
ATOM      4  C   UNL     1       1.356   7.980  20.593  0.00  0.00    +0.000 A 
ATOM      5  N   UNL     1       1.328   6.756  21.122  0.00  0.00    +0.000 NA
ATOM      6  C   UNL     1       2.090   5.860  20.474  0.00  0.00    +0.000 A 
ATOM      7  S   UNL     1       2.127   4.253  21.025  0.00  0.00    +0.000 S 
ATOM      8  C   UNL     1       3.257   3.818  19.832  0.00  0.00    +0.000 A 
ATOM      9  C   UNL     1       3.610   4.867  18.995  0.00  0.00    +0.000 A 
ATOM     10  C   UNL     1       2.878   6.080  19.349  0.00  0.00    +0.000 A 
ENDROOT
BRANCH   4  11
ATOM     11  C   UNL     1       0.580   9.037  21.263  0.00  0.00    +0.000 A 
ATOM     12  C   UNL     1      -0.197   9.965  20.550  0.00  0.00    +0.000 A 
ATOM     13  C   UNL     1      -0.916  10.956  21.219  0.00  0.00    +0.000 A 
ATOM     14  C   UNL     1      -0.843  11.000  22.595  0.00  0.00    +0.000 A 
ATOM     15  N   UNL     1      -0.115  10.134  23.332  0.00  0.00    +0.000 NA
ATOM     16  C   UNL     1       0.572   9.184  22.649  0.00  0.00    +0.000 A 
ENDBRANCH   4  11
BRANCH   9  17
ATOM     17  C   UNL     1       4.633   4.637  17.963  0.00  0.00    +0.000 A 
ATOM     18  C   UNL     1       5.998   4.825  18.244  0.00  0.00    +0.000 A 
ATOM     19  C   UNL     1       6.970   4.618  17.260  0.00  0.00    +0.000 A 
ATOM     20  C   UNL     1       6.597   4.183  15.991  0.00  0.00    +0.000 A 
ATOM     21  C   UNL     1       5.251   4.006  15.693  0.00  0.00    +0.000 A 
ATOM     22  C   UNL     1       4.276   4.274  16.660  0.00  0.00    +0.000 A 
ENDBRANCH   9  17
TORSDOF 2
ENDMDL
MODEL 3
REMARK VINA RESULT:      -7.8      0.624      1.020
REMARK  Name = 
REMARK  2 active torsions:
REMARK  status: ('A' for Active; 'I' for Inactive)
REMARK    1  A    between atoms: C_4  and  C_5
REMARK    2  A    between atoms: C_15  and  C_16
REMARK                            x       y       z     vdW  Elec       q    Type
REMARK                         _______ _______ _______ _____ _____    ______ ____
ROOT
ATOM      1 CL   UNL     1       3.415   7.883  17.362  0.00  0.00    +0.000 Cl
ATOM      2  C   UNL     1       2.736   7.398  18.840  0.00  0.00    +0.000 A 
ATOM      3  N   UNL     1       1.980   8.331  19.435  0.00  0.00    +0.000 NA
ATOM      4  C   UNL     1       1.299   7.983  20.531  0.00  0.00    +0.000 A 
ATOM      5  N   UNL     1       1.286   6.763  21.072  0.00  0.00    +0.000 NA
ATOM      6  C   UNL     1       2.076   5.876  20.448  0.00  0.00    +0.000 A 
ATOM      7  S   UNL     1       2.135   4.276  21.016  0.00  0.00    +0.000 S 
ATOM      8  C   UNL     1       3.295   3.852  19.848  0.00  0.00    +0.000 A 
ATOM      9  C   UNL     1       3.642   4.899  19.006  0.00  0.00    +0.000 A 
ATOM     10  C   UNL     1       2.880   6.101  19.335  0.00  0.00    +0.000 A 
ENDROOT
BRANCH   4  11
ATOM     11  C   UNL     1       0.491   9.031  21.177  0.00  0.00    +0.000 A 
ATOM     12  C   UNL     1       0.221   9.028  22.555  0.00  0.00    +0.000 A 
ATOM     13  C   UNL     1      -0.553  10.036  23.132  0.00  0.00    +0.000 A 
ATOM     14  C   UNL     1      -1.045  11.031  22.315  0.00  0.00    +0.000 A 
ATOM     15  N   UNL     1      -0.817  11.086  20.985  0.00  0.00    +0.000 NA
ATOM     16  C   UNL     1      -0.060  10.089  20.458  0.00  0.00    +0.000 A 
ENDBRANCH   4  11
BRANCH   9  17
ATOM     17  C   UNL     1       4.688   4.680  17.995  0.00  0.00    +0.000 A 
ATOM     18  C   UNL     1       4.358   4.282  16.688  0.00  0.00    +0.000 A 
ATOM     19  C   UNL     1       5.353   4.063  15.729  0.00  0.00    +0.000 A 
ATOM     20  C   UNL     1       6.691   4.273  16.052  0.00  0.00    +0.000 A 
ATOM     21  C   UNL     1       7.036   4.652  17.345  0.00  0.00    +0.000 A 
ATOM     22  C   UNL     1       6.044   4.811  18.318  0.00  0.00    +0.000 A 
ENDBRANCH   9  17
TORSDOF 2
ENDMDL
MODEL 4
REMARK VINA RESULT:      -7.8      0.631      1.448
REMARK  Name = 
REMARK  2 active torsions:
REMARK  status: ('A' for Active; 'I' for Inactive)
REMARK    1  A    between atoms: C_4  and  C_5
REMARK    2  A    between atoms: C_15  and  C_16
REMARK                            x       y       z     vdW  Elec       q    Type
REMARK                         _______ _______ _______ _____ _____    ______ ____
ROOT
ATOM      1 CL   UNL     1       3.437   7.854  17.339  0.00  0.00    +0.000 Cl
ATOM      2  C   UNL     1       2.758   7.366  18.816  0.00  0.00    +0.000 A 
ATOM      3  N   UNL     1       2.001   8.297  19.411  0.00  0.00    +0.000 NA
ATOM      4  C   UNL     1       1.320   7.948  20.507  0.00  0.00    +0.000 A 
ATOM      5  N   UNL     1       1.307   6.728  21.046  0.00  0.00    +0.000 NA
ATOM      6  C   UNL     1       2.099   5.842  20.422  0.00  0.00    +0.000 A 
ATOM      7  S   UNL     1       2.159   4.242  20.987  0.00  0.00    +0.000 S 
ATOM      8  C   UNL     1       3.320   3.819  19.820  0.00  0.00    +0.000 A 
ATOM      9  C   UNL     1       3.667   4.868  18.980  0.00  0.00    +0.000 A 
ATOM     10  C   UNL     1       2.903   6.069  19.310  0.00  0.00    +0.000 A 
ENDROOT
BRANCH   4  11
ATOM     11  C   UNL     1       0.510   8.994  21.153  0.00  0.00    +0.000 A 
ATOM     12  C   UNL     1       0.231   8.984  22.530  0.00  0.00    +0.000 A 
ATOM     13  C   UNL     1      -0.545   9.991  23.107  0.00  0.00    +0.000 A 
ATOM     14  C   UNL     1      -1.028  10.992  22.292  0.00  0.00    +0.000 A 
ATOM     15  N   UNL     1      -0.792  11.054  20.964  0.00  0.00    +0.000 NA
ATOM     16  C   UNL     1      -0.034  10.058  20.436  0.00  0.00    +0.000 A 
ENDBRANCH   4  11
BRANCH   9  17
ATOM     17  C   UNL     1       4.714   4.651  17.970  0.00  0.00    +0.000 A 
ATOM     18  C   UNL     1       6.071   4.844  18.281  0.00  0.00    +0.000 A 
ATOM     19  C   UNL     1       7.066   4.648  17.318  0.00  0.00    +0.000 A 
ATOM     20  C   UNL     1       6.723   4.220  16.038  0.00  0.00    +0.000 A 
ATOM     21  C   UNL     1       5.384   4.038  15.709  0.00  0.00    +0.000 A 
ATOM     22  C   UNL     1       4.387   4.295  16.656  0.00  0.00    +0.000 A 
ENDBRANCH   9  17
TORSDOF 2
ENDMDL
MODEL 5
REMARK VINA RESULT:      -7.1      1.149      1.585
REMARK  Name = 
REMARK  2 active torsions:
REMARK  status: ('A' for Active; 'I' for Inactive)
REMARK    1  A    between atoms: C_4  and  C_5
REMARK    2  A    between atoms: C_15  and  C_16
REMARK                            x       y       z     vdW  Elec       q    Type
REMARK                         _______ _______ _______ _____ _____    ______ ____
ROOT
ATOM      1 CL   UNL     1       3.617   7.752  17.105  0.00  0.00    +0.000 Cl
ATOM      2  C   UNL     1       3.119   6.990  18.538  0.00  0.00    +0.000 A 
ATOM      3  N   UNL     1       2.395   7.767  19.354  0.00  0.00    +0.000 NA
ATOM      4  C   UNL     1       1.849   7.204  20.437  0.00  0.00    +0.000 A 
ATOM      5  N   UNL     1       1.940   5.913  20.760  0.00  0.00    +0.000 NA
ATOM      6  C   UNL     1       2.694   5.188  19.919  0.00  0.00    +0.000 A 
ATOM      7  S   UNL     1       2.875   3.522  20.196  0.00  0.00    +0.000 S 
ATOM      8  C   UNL     1       3.920   3.363  18.864  0.00  0.00    +0.000 A 
ATOM      9  C   UNL     1       4.135   4.554  18.184  0.00  0.00    +0.000 A 
ATOM     10  C   UNL     1       3.366   5.639  18.787  0.00  0.00    +0.000 A 
ENDROOT
BRANCH   4  11
ATOM     11  C   UNL     1       1.073   8.083  21.329  0.00  0.00    +0.000 A 
ATOM     12  C   UNL     1      -0.328   8.158  21.275  0.00  0.00    +0.000 A 
ATOM     13  C   UNL     1      -1.030   9.006  22.133  0.00  0.00    +0.000 A 
ATOM     14  C   UNL     1      -0.312   9.766  23.032  0.00  0.00    +0.000 A 
ATOM     15  N   UNL     1       1.034   9.734  23.129  0.00  0.00    +0.000 NA
ATOM     16  C   UNL     1       1.684   8.898  22.279  0.00  0.00    +0.000 A 
ENDBRANCH   4  11
BRANCH   9  17
ATOM     17  C   UNL     1       5.075   4.564  17.053  0.00  0.00    +0.000 A 
ATOM     18  C   UNL     1       6.350   5.143  17.178  0.00  0.00    +0.000 A 
ATOM     19  C   UNL     1       7.240   5.164  16.099  0.00  0.00    +0.000 A 
ATOM     20  C   UNL     1       6.884   4.573  14.890  0.00  0.00    +0.000 A 
ATOM     21  C   UNL     1       5.621   4.009  14.744  0.00  0.00    +0.000 A 
ATOM     22  C   UNL     1       4.711   4.045  15.806  0.00  0.00    +0.000 A 
ENDBRANCH   9  17
TORSDOF 2
ENDMDL
MODEL 6
REMARK VINA RESULT:      -6.8      2.255      2.877
REMARK  Name = 
REMARK  2 active torsions:
REMARK  status: ('A' for Active; 'I' for Inactive)
REMARK    1  A    between atoms: C_4  and  C_5
REMARK    2  A    between atoms: C_15  and  C_16
REMARK                            x       y       z     vdW  Elec       q    Type
REMARK                         _______ _______ _______ _____ _____    ______ ____
ROOT
ATOM      1 CL   UNL     1       1.825   4.844  21.489  0.00  0.00    +0.000 Cl
ATOM      2  C   UNL     1       1.751   6.286  20.595  0.00  0.00    +0.000 A 
ATOM      3  N   UNL     1       1.094   7.281  21.205  0.00  0.00    +0.000 NA
ATOM      4  C   UNL     1       1.108   8.488  20.630  0.00  0.00    +0.000 A 
ATOM      5  N   UNL     1       1.754   8.795  19.504  0.00  0.00    +0.000 NA
ATOM      6  C   UNL     1       2.377   7.756  18.927  0.00  0.00    +0.000 A 
ATOM      7  S   UNL     1       3.261   8.009  17.499  0.00  0.00    +0.000 S 
ATOM      8  C   UNL     1       3.647   6.357  17.385  0.00  0.00    +0.000 A 
ATOM      9  C   UNL     1       3.131   5.596  18.424  0.00  0.00    +0.000 A 
ATOM     10  C   UNL     1       2.408   6.438  19.373  0.00  0.00    +0.000 A 
ENDROOT
BRANCH   4  11
ATOM     11  C   UNL     1       0.362   9.561  21.310  0.00  0.00    +0.000 A 
ATOM     12  C   UNL     1      -0.224  10.628  20.609  0.00  0.00    +0.000 A 
ATOM     13  C   UNL     1      -0.920  11.629  21.287  0.00  0.00    +0.000 A 
ATOM     14  C   UNL     1      -1.015  11.545  22.659  0.00  0.00    +0.000 A 
ATOM     15  N   UNL     1      -0.474  10.543  23.385  0.00  0.00    +0.000 NA
ATOM     16  C   UNL     1       0.196   9.586  22.693  0.00  0.00    +0.000 A 
ENDBRANCH   4  11
BRANCH   9  17
ATOM     17  C   UNL     1       3.336   4.139  18.405  0.00  0.00    +0.000 A 
ATOM     18  C   UNL     1       4.249   3.525  19.281  0.00  0.00    +0.000 A 
ATOM     19  C   UNL     1       4.452   2.142  19.255  0.00  0.00    +0.000 A 
ATOM     20  C   UNL     1       3.718   1.345  18.381  0.00  0.00    +0.000 A 
ATOM     21  C   UNL     1       2.822   1.937  17.498  0.00  0.00    +0.000 A 
ATOM     22  C   UNL     1       2.666   3.327  17.483  0.00  0.00    +0.000 A 
ENDBRANCH   9  17
TORSDOF 2
ENDMDL
MODEL 7
REMARK VINA RESULT:      -6.8      2.263      2.696
REMARK  Name = 
REMARK  2 active torsions:
REMARK  status: ('A' for Active; 'I' for Inactive)
REMARK    1  A    between atoms: C_4  and  C_5
REMARK    2  A    between atoms: C_15  and  C_16
REMARK                            x       y       z     vdW  Elec       q    Type
REMARK                         _______ _______ _______ _____ _____    ______ ____
ROOT
ATOM      1 CL   UNL     1       1.820   4.849  21.487  0.00  0.00    +0.000 Cl
ATOM      2  C   UNL     1       1.750   6.291  20.594  0.00  0.00    +0.000 A 
ATOM      3  N   UNL     1       1.096   7.288  21.204  0.00  0.00    +0.000 NA
ATOM      4  C   UNL     1       1.113   8.495  20.629  0.00  0.00    +0.000 A 
ATOM      5  N   UNL     1       1.760   8.800  19.503  0.00  0.00    +0.000 NA
ATOM      6  C   UNL     1       2.380   7.759  18.926  0.00  0.00    +0.000 A 
ATOM      7  S   UNL     1       3.265   8.010  17.498  0.00  0.00    +0.000 S 
ATOM      8  C   UNL     1       3.646   6.358  17.384  0.00  0.00    +0.000 A 
ATOM      9  C   UNL     1       3.128   5.597  18.423  0.00  0.00    +0.000 A 
ATOM     10  C   UNL     1       2.408   6.442  19.372  0.00  0.00    +0.000 A 
ENDROOT
BRANCH   4  11
ATOM     11  C   UNL     1       0.370   9.570  21.309  0.00  0.00    +0.000 A 
ATOM     12  C   UNL     1      -0.200  10.646  20.610  0.00  0.00    +0.000 A 
ATOM     13  C   UNL     1      -0.894  11.649  21.288  0.00  0.00    +0.000 A 
ATOM     14  C   UNL     1      -1.003  11.556  22.658  0.00  0.00    +0.000 A 
ATOM     15  N   UNL     1      -0.478  10.544  23.383  0.00  0.00    +0.000 NA
ATOM     16  C   UNL     1       0.190   9.586  22.690  0.00  0.00    +0.000 A 
ENDBRANCH   4  11
BRANCH   9  17
ATOM     17  C   UNL     1       3.329   4.140  18.404  0.00  0.00    +0.000 A 
ATOM     18  C   UNL     1       2.596   3.320  17.528  0.00  0.00    +0.000 A 
ATOM     19  C   UNL     1       2.778   1.934  17.518  0.00  0.00    +0.000 A 
ATOM     20  C   UNL     1       3.724   1.348  18.355  0.00  0.00    +0.000 A 
ATOM     21  C   UNL     1       4.447   2.143  19.238  0.00  0.00    +0.000 A 
ATOM     22  C   UNL     1       4.218   3.522  19.290  0.00  0.00    +0.000 A 
ENDBRANCH   9  17
TORSDOF 2
ENDMDL
MODEL 8
REMARK VINA RESULT:      -6.7      3.228      8.994
REMARK  Name = 
REMARK  2 active torsions:
REMARK  status: ('A' for Active; 'I' for Inactive)
REMARK    1  A    between atoms: C_4  and  C_5
REMARK    2  A    between atoms: C_15  and  C_16
REMARK                            x       y       z     vdW  Elec       q    Type
REMARK                         _______ _______ _______ _____ _____    ______ ____
ROOT
ATOM      1 CL   UNL     1      -0.325   9.852  23.173  0.00  0.00    +0.000 Cl
ATOM      2  C   UNL     1       0.005  10.035  21.518  0.00  0.00    +0.000 A 
ATOM      3  N   UNL     1       0.847   9.121  21.017  0.00  0.00    +0.000 NA
ATOM      4  C   UNL     1       1.051   9.111  19.696  0.00  0.00    +0.000 A 
ATOM      5  N   UNL     1       0.456   9.924  18.821  0.00  0.00    +0.000 NA
ATOM      6  C   UNL     1      -0.360  10.831  19.380  0.00  0.00    +0.000 A 
ATOM      7  S   UNL     1      -1.203  11.914  18.380  0.00  0.00    +0.000 S 
ATOM      8  C   UNL     1      -1.894  12.695  19.723  0.00  0.00    +0.000 A 
ATOM      9  C   UNL     1      -1.514  12.144  20.939  0.00  0.00    +0.000 A 
ATOM     10  C   UNL     1      -0.631  10.999  20.735  0.00  0.00    +0.000 A 
ENDROOT
BRANCH   4  11
ATOM     11  C   UNL     1       1.996   8.110  19.173  0.00  0.00    +0.000 A 
ATOM     12  C   UNL     1       2.649   8.267  17.939  0.00  0.00    +0.000 A 
ATOM     13  C   UNL     1       3.534   7.295  17.473  0.00  0.00    +0.000 A 
ATOM     14  C   UNL     1       3.750   6.179  18.253  0.00  0.00    +0.000 A 
ATOM     15  N   UNL     1       3.152   5.975  19.446  0.00  0.00    +0.000 NA
ATOM     16  C   UNL     1       2.296   6.941  19.869  0.00  0.00    +0.000 A 
ENDBRANCH   4  11
BRANCH   9  17
ATOM     17  C   UNL     1      -1.990  12.773  22.181  0.00  0.00    +0.000 A 
ATOM     18  C   UNL     1      -1.245  13.787  22.809  0.00  0.00    +0.000 A 
ATOM     19  C   UNL     1      -1.691  14.377  23.996  0.00  0.00    +0.000 A 
ATOM     20  C   UNL     1      -2.906  13.990  24.554  0.00  0.00    +0.000 A 
ATOM     21  C   UNL     1      -3.648  12.978  23.954  0.00  0.00    +0.000 A 
ATOM     22  C   UNL     1      -3.169  12.346  22.801  0.00  0.00    +0.000 A 
ENDBRANCH   9  17
TORSDOF 2
ENDMDL
MODEL 9
REMARK VINA RESULT:      -6.7      3.253      8.982
REMARK  Name = 
REMARK  2 active torsions:
REMARK  status: ('A' for Active; 'I' for Inactive)
REMARK    1  A    between atoms: C_4  and  C_5
REMARK    2  A    between atoms: C_15  and  C_16
REMARK                            x       y       z     vdW  Elec       q    Type
REMARK                         _______ _______ _______ _____ _____    ______ ____
ROOT
ATOM      1 CL   UNL     1      -0.368   9.884  23.187  0.00  0.00    +0.000 Cl
ATOM      2  C   UNL     1      -0.026  10.071  21.535  0.00  0.00    +0.000 A 
ATOM      3  N   UNL     1       0.813   9.154  21.036  0.00  0.00    +0.000 NA
ATOM      4  C   UNL     1       1.026   9.147  19.717  0.00  0.00    +0.000 A 
ATOM      5  N   UNL     1       0.442   9.967  18.841  0.00  0.00    +0.000 NA
ATOM      6  C   UNL     1      -0.372  10.877  19.398  0.00  0.00    +0.000 A 
ATOM      7  S   UNL     1      -1.202  11.969  18.396  0.00  0.00    +0.000 S 
ATOM      8  C   UNL     1      -1.896  12.750  19.737  0.00  0.00    +0.000 A 
ATOM      9  C   UNL     1      -1.528  12.192  20.954  0.00  0.00    +0.000 A 
ATOM     10  C   UNL     1      -0.651  11.042  20.751  0.00  0.00    +0.000 A 
ENDROOT
BRANCH   4  11
ATOM     11  C   UNL     1       1.968   8.142  19.196  0.00  0.00    +0.000 A 
ATOM     12  C   UNL     1       2.656   8.315  17.984  0.00  0.00    +0.000 A 
ATOM     13  C   UNL     1       3.537   7.338  17.519  0.00  0.00    +0.000 A 
ATOM     14  C   UNL     1       3.714   6.202  18.279  0.00  0.00    +0.000 A 
ATOM     15  N   UNL     1       3.081   5.982  19.452  0.00  0.00    +0.000 NA
ATOM     16  C   UNL     1       2.231   6.953  19.873  0.00  0.00    +0.000 A 
ENDBRANCH   4  11
BRANCH   9  17
ATOM     17  C   UNL     1      -2.007  12.819  22.195  0.00  0.00    +0.000 A 
ATOM     18  C   UNL     1      -3.201  12.396  22.806  0.00  0.00    +0.000 A 
ATOM     19  C   UNL     1      -3.662  12.999  23.980  0.00  0.00    +0.000 A 
ATOM     20  C   UNL     1      -2.919  14.010  24.583  0.00  0.00    +0.000 A 
ATOM     21  C   UNL     1      -1.744  14.452  23.985  0.00  0.00    +0.000 A 
ATOM     22  C   UNL     1      -1.317  13.889  22.778  0.00  0.00    +0.000 A 
ENDBRANCH   9  17
TORSDOF 2
ENDMDL
