MODEL 1
REMARK VINA RESULT:      -9.1      0.000      0.000
REMARK  Name = 
REMARK  9 active torsions:
REMARK  status: ('A' for Active; 'I' for Inactive)
REMARK    1  A    between atoms: C_1  and  O_2
REMARK    2  A    between atoms: O_2  and  C_3
REMARK    3  A    between atoms: C_5  and  N_6
REMARK    4  A    between atoms: C_21  and  N_22
REMARK    5  A    between atoms: C_23  and  C_25
REMARK    6  A    between atoms: C_25  and  C_26
REMARK    7  A    between atoms: C_30  and  O_31
REMARK    8  A    between atoms: O_31  and  C_32
REMARK    9  A    between atoms: C_33  and  C_34
REMARK                            x       y       z     vdW  Elec       q    Type
REMARK                         _______ _______ _______ _____ _____    ______ ____
ROOT
ATOM      1  C   UNL     1       1.217   8.591  20.079  0.00  0.00    +0.000 A 
ATOM      2  C   UNL     1       2.122   7.509  20.025  0.00  0.00    +0.000 A 
ATOM      3  C   UNL     1       2.778   7.137  18.849  0.00  0.00    +0.000 A 
ATOM      4  C   UNL     1       2.589   7.919  17.718  0.00  0.00    +0.000 A 
ATOM      5  C   UNL     1       1.756   9.038  17.775  0.00  0.00    +0.000 A 
ATOM      6  C   UNL     1       1.043   9.393  18.930  0.00  0.00    +0.000 A 
ENDROOT
BRANCH   3   7
ATOM      7  N   UNL     1       3.653   6.017  18.811  0.00  0.00    +0.000 N 
ATOM      8  C   UNL     1       4.837   5.972  18.123  0.00  0.00    +0.000 A 
ATOM      9  C   UNL     1       5.477   4.799  18.350  0.00  0.00    +0.000 A 
ATOM     10  C   UNL     1       4.676   4.009  19.161  0.00  0.00    +0.000 A 
ATOM     11  N   UNL     1       4.921   2.780  19.611  0.00  0.00    +0.000 NA
ATOM     12  C   UNL     1       3.942   2.292  20.372  0.00  0.00    +0.000 A 
ATOM     13  N   UNL     1       2.799   2.902  20.714  0.00  0.00    +0.000 NA
ATOM     14  C   UNL     1       2.557   4.143  20.255  0.00  0.00    +0.000 A 
ATOM     15  N   UNL     1       1.328   4.656  20.634  0.00  0.00    +0.000 N 
ATOM     16  C   UNL     1       3.524   4.765  19.456  0.00  0.00    +0.000 A 
ATOM     17  C   UNL     1       6.795   4.824  17.733  0.00  0.00    +0.000 C 
ATOM     18  O   UNL     1       6.974   6.224  17.319  0.00  0.00    +0.000 OA
ATOM     19  C   UNL     1       5.674   6.915  17.367  0.00  0.00    +0.000 C 
ATOM     20  H   UNL     1       0.763   3.919  21.042  0.00  0.00    +0.000 HD
ATOM     21  H   UNL     1       0.863   5.205  19.922  0.00  0.00    +0.000 HD
ENDBRANCH   3   7
BRANCH   6  22
ATOM     22  N   UNL     1       0.204  10.548  18.926  0.00  0.00    +0.000 N 
ATOM     23  C   UNL     1      -1.040  10.627  18.302  0.00  0.00    +0.000 C 
ATOM     24  O   UNL     1      -1.653   9.681  17.806  0.00  0.00    +0.000 OA
ATOM     25  H   UNL     1       0.518  11.328  19.500  0.00  0.00    +0.000 HD
BRANCH  23  26
ATOM     26  C   UNL     1      -1.686  12.000  18.265  0.00  0.00    +0.000 C 
BRANCH  26  27
ATOM     27  C   UNL     1      -2.769  12.226  19.311  0.00  0.00    +0.000 A 
ATOM     28  C   UNL     1      -2.378  12.531  20.629  0.00  0.00    +0.000 A 
ATOM     29  C   UNL     1      -3.320  12.764  21.616  0.00  0.00    +0.000 A 
ATOM     30  C   UNL     1      -4.666  12.671  21.297  0.00  0.00    +0.000 A 
ATOM     31  C   UNL     1      -5.106  12.316  20.007  0.00  0.00    +0.000 A 
ATOM     32  C   UNL     1      -4.155  12.053  18.997  0.00  0.00    +0.000 A 
ATOM     33  C   UNL     1      -4.478  11.644  17.582  0.00  0.00    +0.000 C 
BRANCH  31  34
ATOM     34  O   UNL     1      -6.471  12.301  19.988  0.00  0.00    +0.000 OA
ATOM     35  C   UNL     1      -7.211  11.111  20.153  0.00  0.00    +0.000 C 
ENDBRANCH  31  34
ENDBRANCH  26  27
ENDBRANCH  23  26
ENDBRANCH   6  22
BRANCH   1  37
ATOM     36  C   UNL     1       1.316   9.295  22.356  0.00  0.00    +0.000 C 
ATOM     37  O   UNL     1       0.516   8.888  21.231  0.00  0.00    +0.000 OA
ENDBRANCH   1  37
TORSDOF 6
ENDMDL
MODEL 2
REMARK VINA RESULT:      -9.1      2.253      3.458
REMARK  Name = 
REMARK  9 active torsions:
REMARK  status: ('A' for Active; 'I' for Inactive)
REMARK    1  A    between atoms: C_1  and  O_2
REMARK    2  A    between atoms: O_2  and  C_3
REMARK    3  A    between atoms: C_5  and  N_6
REMARK    4  A    between atoms: C_21  and  N_22
REMARK    5  A    between atoms: C_23  and  C_25
REMARK    6  A    between atoms: C_25  and  C_26
REMARK    7  A    between atoms: C_30  and  O_31
REMARK    8  A    between atoms: O_31  and  C_32
REMARK    9  A    between atoms: C_33  and  C_34
REMARK                            x       y       z     vdW  Elec       q    Type
REMARK                         _______ _______ _______ _____ _____    ______ ____
ROOT
ATOM      1  C   UNL     1       1.581   8.347  20.130  0.00  0.00    +0.000 A 
ATOM      2  C   UNL     1       2.256   7.186  19.695  0.00  0.00    +0.000 A 
ATOM      3  C   UNL     1       2.588   6.968  18.355  0.00  0.00    +0.000 A 
ATOM      4  C   UNL     1       2.314   7.975  17.441  0.00  0.00    +0.000 A 
ATOM      5  C   UNL     1       1.716   9.162  17.869  0.00  0.00    +0.000 A 
ATOM      6  C   UNL     1       1.322   9.375  19.198  0.00  0.00    +0.000 A 
ENDROOT
BRANCH   3   7
ATOM      7  N   UNL     1       3.230   5.771  17.936  0.00  0.00    +0.000 N 
ATOM      8  C   UNL     1       2.703   4.512  18.068  0.00  0.00    +0.000 A 
ATOM      9  C   UNL     1       3.519   3.591  17.502  0.00  0.00    +0.000 A 
ATOM     10  C   UNL     1       4.653   4.236  17.031  0.00  0.00    +0.000 A 
ATOM     11  N   UNL     1       5.708   3.701  16.420  0.00  0.00    +0.000 NA
ATOM     12  C   UNL     1       6.639   4.597  16.093  0.00  0.00    +0.000 A 
ATOM     13  N   UNL     1       6.601   5.919  16.304  0.00  0.00    +0.000 NA
ATOM     14  C   UNL     1       5.533   6.453  16.923  0.00  0.00    +0.000 A 
ATOM     15  N   UNL     1       5.623   7.820  17.128  0.00  0.00    +0.000 N 
ATOM     16  C   UNL     1       4.483   5.608  17.300  0.00  0.00    +0.000 A 
ATOM     17  C   UNL     1       2.881   2.283  17.521  0.00  0.00    +0.000 C 
ATOM     18  O   UNL     1       1.498   2.561  17.938  0.00  0.00    +0.000 OA
ATOM     19  C   UNL     1       1.422   3.926  18.488  0.00  0.00    +0.000 C 
ATOM     20  H   UNL     1       6.567   8.132  16.930  0.00  0.00    +0.000 HD
ATOM     21  H   UNL     1       5.245   8.139  18.011  0.00  0.00    +0.000 HD
ENDBRANCH   3   7
BRANCH   6  22
ATOM     22  N   UNL     1       0.713  10.610  19.574  0.00  0.00    +0.000 N 
ATOM     23  C   UNL     1      -0.619  10.947  19.335  0.00  0.00    +0.000 C 
ATOM     24  O   UNL     1      -1.485  10.181  18.911  0.00  0.00    +0.000 OA
ATOM     25  H   UNL     1       1.287  11.237  20.133  0.00  0.00    +0.000 HD
BRANCH  23  26
ATOM     26  C   UNL     1      -1.017  12.376  19.654  0.00  0.00    +0.000 C 
BRANCH  26  27
ATOM     27  C   UNL     1      -2.237  12.514  20.554  0.00  0.00    +0.000 A 
ATOM     28  C   UNL     1      -3.502  12.667  19.955  0.00  0.00    +0.000 A 
ATOM     29  C   UNL     1      -4.647  12.778  20.725  0.00  0.00    +0.000 A 
ATOM     30  C   UNL     1      -4.534  12.759  22.106  0.00  0.00    +0.000 A 
ATOM     31  C   UNL     1      -3.286  12.661  22.752  0.00  0.00    +0.000 A 
ATOM     32  C   UNL     1      -2.108  12.571  21.979  0.00  0.00    +0.000 A 
ATOM     33  C   UNL     1      -0.708  12.483  22.532  0.00  0.00    +0.000 C 
BRANCH  31  34
ATOM     34  O   UNL     1      -3.481  12.670  24.104  0.00  0.00    +0.000 OA
ATOM     35  C   UNL     1      -4.719  12.330  24.687  0.00  0.00    +0.000 C 
ENDBRANCH  31  34
ENDBRANCH  26  27
ENDBRANCH  23  26
ENDBRANCH   6  22
BRANCH   1  37
ATOM     36  C   UNL     1      -0.194   8.211  21.717  0.00  0.00    +0.000 C 
ATOM     37  O   UNL     1       1.188   8.503  21.445  0.00  0.00    +0.000 OA
ENDBRANCH   1  37
TORSDOF 6
ENDMDL
MODEL 3
REMARK VINA RESULT:      -9.0      1.447      1.753
REMARK  Name = 
REMARK  9 active torsions:
REMARK  status: ('A' for Active; 'I' for Inactive)
REMARK    1  A    between atoms: C_1  and  O_2
REMARK    2  A    between atoms: O_2  and  C_3
REMARK    3  A    between atoms: C_5  and  N_6
REMARK    4  A    between atoms: C_21  and  N_22
REMARK    5  A    between atoms: C_23  and  C_25
REMARK    6  A    between atoms: C_25  and  C_26
REMARK    7  A    between atoms: C_30  and  O_31
REMARK    8  A    between atoms: O_31  and  C_32
REMARK    9  A    between atoms: C_33  and  C_34
REMARK                            x       y       z     vdW  Elec       q    Type
REMARK                         _______ _______ _______ _____ _____    ______ ____
ROOT
ATOM      1  C   UNL     1       1.321   8.746  20.189  0.00  0.00    +0.000 A 
ATOM      2  C   UNL     1       2.218   7.660  20.097  0.00  0.00    +0.000 A 
ATOM      3  C   UNL     1       2.677   7.169  18.872  0.00  0.00    +0.000 A 
ATOM      4  C   UNL     1       2.297   7.834  17.715  0.00  0.00    +0.000 A 
ATOM      5  C   UNL     1       1.470   8.957  17.796  0.00  0.00    +0.000 A 
ATOM      6  C   UNL     1       0.951   9.429  19.010  0.00  0.00    +0.000 A 
ENDROOT
BRANCH   3   7
ATOM      7  N   UNL     1       3.548   6.047  18.803  0.00  0.00    +0.000 N 
ATOM      8  C   UNL     1       4.711   6.001  18.080  0.00  0.00    +0.000 A 
ATOM      9  C   UNL     1       5.354   4.827  18.283  0.00  0.00    +0.000 A 
ATOM     10  C   UNL     1       4.576   4.035  19.115  0.00  0.00    +0.000 A 
ATOM     11  N   UNL     1       4.831   2.804  19.553  0.00  0.00    +0.000 NA
ATOM     12  C   UNL     1       3.875   2.315  20.341  0.00  0.00    +0.000 A 
ATOM     13  N   UNL     1       2.744   2.927  20.719  0.00  0.00    +0.000 NA
ATOM     14  C   UNL     1       2.492   4.170  20.273  0.00  0.00    +0.000 A 
ATOM     15  N   UNL     1       1.275   4.685  20.691  0.00  0.00    +0.000 N 
ATOM     16  C   UNL     1       3.435   4.792  19.448  0.00  0.00    +0.000 A 
ATOM     17  C   UNL     1       6.653   4.850  17.626  0.00  0.00    +0.000 C 
ATOM     18  O   UNL     1       6.823   6.252  17.213  0.00  0.00    +0.000 OA
ATOM     19  C   UNL     1       5.526   6.945  17.302  0.00  0.00    +0.000 C 
ATOM     20  H   UNL     1       0.722   3.947  21.113  0.00  0.00    +0.000 HD
ATOM     21  H   UNL     1       0.791   5.237  19.995  0.00  0.00    +0.000 HD
ENDBRANCH   3   7
BRANCH   6  22
ATOM     22  N   UNL     1       0.109  10.582  19.028  0.00  0.00    +0.000 N 
ATOM     23  C   UNL     1       0.559  11.893  19.168  0.00  0.00    +0.000 C 
ATOM     24  O   UNL     1       1.737  12.253  19.142  0.00  0.00    +0.000 OA
ATOM     25  H   UNL     1      -0.876  10.416  18.834  0.00  0.00    +0.000 HD
BRANCH  23  26
ATOM     26  C   UNL     1      -0.512  12.955  19.342  0.00  0.00    +0.000 C 
BRANCH  26  27
ATOM     27  C   UNL     1      -1.250  12.906  20.672  0.00  0.00    +0.000 A 
ATOM     28  C   UNL     1      -0.517  13.110  21.857  0.00  0.00    +0.000 A 
ATOM     29  C   UNL     1      -1.141  13.094  23.093  0.00  0.00    +0.000 A 
ATOM     30  C   UNL     1      -2.503  12.852  23.156  0.00  0.00    +0.000 A 
ATOM     31  C   UNL     1      -3.270  12.590  22.004  0.00  0.00    +0.000 A 
ATOM     32  C   UNL     1      -2.643  12.580  20.739  0.00  0.00    +0.000 A 
ATOM     33  C   UNL     1      -3.331  12.295  19.428  0.00  0.00    +0.000 C 
BRANCH  31  34
ATOM     34  O   UNL     1      -4.570  12.386  22.369  0.00  0.00    +0.000 OA
ATOM     35  C   UNL     1      -5.156  13.052  23.465  0.00  0.00    +0.000 C 
ENDBRANCH  31  34
ENDBRANCH  26  27
ENDBRANCH  23  26
ENDBRANCH   6  22
BRANCH   1  37
ATOM     36  C   UNL     1      -0.434   8.559  21.794  0.00  0.00    +0.000 C 
ATOM     37  O   UNL     1       0.814   9.161  21.405  0.00  0.00    +0.000 OA
ENDBRANCH   1  37
TORSDOF 6
ENDMDL
MODEL 4
REMARK VINA RESULT:      -8.9      1.452      2.093
REMARK  Name = 
REMARK  9 active torsions:
REMARK  status: ('A' for Active; 'I' for Inactive)
REMARK    1  A    between atoms: C_1  and  O_2
REMARK    2  A    between atoms: O_2  and  C_3
REMARK    3  A    between atoms: C_5  and  N_6
REMARK    4  A    between atoms: C_21  and  N_22
REMARK    5  A    between atoms: C_23  and  C_25
REMARK    6  A    between atoms: C_25  and  C_26
REMARK    7  A    between atoms: C_30  and  O_31
REMARK    8  A    between atoms: O_31  and  C_32
REMARK    9  A    between atoms: C_33  and  C_34
REMARK                            x       y       z     vdW  Elec       q    Type
REMARK                         _______ _______ _______ _____ _____    ______ ____
ROOT
ATOM      1  C   UNL     1       1.417   8.573  20.404  0.00  0.00    +0.000 A 
ATOM      2  C   UNL     1       2.156   7.417  20.072  0.00  0.00    +0.000 A 
ATOM      3  C   UNL     1       2.525   7.114  18.759  0.00  0.00    +0.000 A 
ATOM      4  C   UNL     1       2.221   8.033  17.765  0.00  0.00    +0.000 A 
ATOM      5  C   UNL     1       1.557   9.217  18.089  0.00  0.00    +0.000 A 
ATOM      6  C   UNL     1       1.126   9.511  19.391  0.00  0.00    +0.000 A 
ENDROOT
BRANCH   3   7
ATOM      7  N   UNL     1       3.233   5.922  18.445  0.00  0.00    +0.000 N 
ATOM      8  C   UNL     1       4.383   5.867  17.702  0.00  0.00    +0.000 A 
ATOM      9  C   UNL     1       4.857   4.600  17.647  0.00  0.00    +0.000 A 
ATOM     10  C   UNL     1       3.973   3.768  18.318  0.00  0.00    +0.000 A 
ATOM     11  N   UNL     1       4.053   2.450  18.492  0.00  0.00    +0.000 NA
ATOM     12  C   UNL     1       3.034   1.945  19.184  0.00  0.00    +0.000 A 
ATOM     13  N   UNL     1       1.996   2.615  19.704  0.00  0.00    +0.000 NA
ATOM     14  C   UNL     1       1.919   3.946  19.525  0.00  0.00    +0.000 A 
ATOM     15  N   UNL     1       0.783   4.525  20.066  0.00  0.00    +0.000 N 
ATOM     16  C   UNL     1       2.945   4.589  18.823  0.00  0.00    +0.000 A 
ATOM     17  C   UNL     1       6.151   4.580  16.981  0.00  0.00    +0.000 C 
ATOM     18  O   UNL     1       6.515   6.000  16.857  0.00  0.00    +0.000 OA
ATOM     19  C   UNL     1       5.326   6.830  17.115  0.00  0.00    +0.000 C 
ATOM     20  H   UNL     1       0.130   3.799  20.342  0.00  0.00    +0.000 HD
ATOM     21  H   UNL     1       0.384   5.269  19.508  0.00  0.00    +0.000 HD
ENDBRANCH   3   7
BRANCH   6  22
ATOM     22  N   UNL     1       0.450  10.740  19.660  0.00  0.00    +0.000 N 
ATOM     23  C   UNL     1      -0.871  11.015  19.310  0.00  0.00    +0.000 C 
ATOM     24  O   UNL     1      -1.678  10.198  18.864  0.00  0.00    +0.000 OA
ATOM     25  H   UNL     1       0.960  11.414  20.228  0.00  0.00    +0.000 HD
BRANCH  23  26
ATOM     26  C   UNL     1      -1.340  12.442  19.527  0.00  0.00    +0.000 C 
BRANCH  26  27
ATOM     27  C   UNL     1      -2.506  12.591  20.495  0.00  0.00    +0.000 A 
ATOM     28  C   UNL     1      -3.815  12.586  19.976  0.00  0.00    +0.000 A 
ATOM     29  C   UNL     1      -4.913  12.699  20.812  0.00  0.00    +0.000 A 
ATOM     30  C   UNL     1      -4.709  12.843  22.175  0.00  0.00    +0.000 A 
ATOM     31  C   UNL     1      -3.418  12.907  22.735  0.00  0.00    +0.000 A 
ATOM     32  C   UNL     1      -2.290  12.816  21.892  0.00  0.00    +0.000 A 
ATOM     33  C   UNL     1      -0.854  12.890  22.347  0.00  0.00    +0.000 C 
BRANCH  31  34
ATOM     34  O   UNL     1      -3.525  13.052  24.089  0.00  0.00    +0.000 OA
ATOM     35  C   UNL     1      -4.470  12.333  24.849  0.00  0.00    +0.000 C 
ENDBRANCH  31  34
ENDBRANCH  26  27
ENDBRANCH  23  26
ENDBRANCH   6  22
BRANCH   1  37
ATOM     36  C   UNL     1      -0.362   8.410  21.986  0.00  0.00    +0.000 C 
ATOM     37  O   UNL     1       0.990   8.809  21.697  0.00  0.00    +0.000 OA
ENDBRANCH   1  37
TORSDOF 6
ENDMDL
MODEL 5
REMARK VINA RESULT:      -8.9      1.403      1.698
REMARK  Name = 
REMARK  9 active torsions:
REMARK  status: ('A' for Active; 'I' for Inactive)
REMARK    1  A    between atoms: C_1  and  O_2
REMARK    2  A    between atoms: O_2  and  C_3
REMARK    3  A    between atoms: C_5  and  N_6
REMARK    4  A    between atoms: C_21  and  N_22
REMARK    5  A    between atoms: C_23  and  C_25
REMARK    6  A    between atoms: C_25  and  C_26
REMARK    7  A    between atoms: C_30  and  O_31
REMARK    8  A    between atoms: O_31  and  C_32
REMARK    9  A    between atoms: C_33  and  C_34
REMARK                            x       y       z     vdW  Elec       q    Type
REMARK                         _______ _______ _______ _____ _____    ______ ____
ROOT
ATOM      1  C   UNL     1       1.487   8.421  20.324  0.00  0.00    +0.000 A 
ATOM      2  C   UNL     1       2.210   7.292  19.883  0.00  0.00    +0.000 A 
ATOM      3  C   UNL     1       2.486   7.059  18.533  0.00  0.00    +0.000 A 
ATOM      4  C   UNL     1       2.104   8.022  17.610  0.00  0.00    +0.000 A 
ATOM      5  C   UNL     1       1.455   9.181  18.040  0.00  0.00    +0.000 A 
ATOM      6  C   UNL     1       1.116   9.405  19.383  0.00  0.00    +0.000 A 
ENDROOT
BRANCH   3   7
ATOM      7  N   UNL     1       3.180   5.892  18.110  0.00  0.00    +0.000 N 
ATOM      8  C   UNL     1       4.265   5.887  17.272  0.00  0.00    +0.000 A 
ATOM      9  C   UNL     1       4.748   4.631  17.123  0.00  0.00    +0.000 A 
ATOM     10  C   UNL     1       3.933   3.758  17.829  0.00  0.00    +0.000 A 
ATOM     11  N   UNL     1       4.044   2.435  17.938  0.00  0.00    +0.000 NA
ATOM     12  C   UNL     1       3.093   1.885  18.691  0.00  0.00    +0.000 A 
ATOM     13  N   UNL     1       2.094   2.516  19.324  0.00  0.00    +0.000 NA
ATOM     14  C   UNL     1       1.986   3.852  19.209  0.00  0.00    +0.000 A 
ATOM     15  N   UNL     1       0.892   4.390  19.867  0.00  0.00    +0.000 N 
ATOM     16  C   UNL     1       2.942   4.541  18.453  0.00  0.00    +0.000 A 
ATOM     17  C   UNL     1       5.982   4.659  16.351  0.00  0.00    +0.000 C 
ATOM     18  O   UNL     1       6.316   6.089  16.259  0.00  0.00    +0.000 OA
ATOM     19  C   UNL     1       5.143   6.889  16.650  0.00  0.00    +0.000 C 
ATOM     20  H   UNL     1       0.274   3.643  20.165  0.00  0.00    +0.000 HD
ATOM     21  H   UNL     1       0.439   5.150  19.377  0.00  0.00    +0.000 HD
ENDBRANCH   3   7
BRANCH   6  22
ATOM     22  N   UNL     1       0.450  10.610  19.761  0.00  0.00    +0.000 N 
ATOM     23  C   UNL     1      -0.839  10.965  19.367  0.00  0.00    +0.000 C 
ATOM     24  O   UNL     1      -1.633  10.233  18.774  0.00  0.00    +0.000 OA
ATOM     25  H   UNL     1       0.937  11.194  20.438  0.00  0.00    +0.000 HD
BRANCH  23  26
ATOM     26  C   UNL     1      -1.290  12.367  19.731  0.00  0.00    +0.000 C 
BRANCH  26  27
ATOM     27  C   UNL     1      -2.070  12.470  21.035  0.00  0.00    +0.000 A 
ATOM     28  C   UNL     1      -1.359  12.423  22.250  0.00  0.00    +0.000 A 
ATOM     29  C   UNL     1      -2.016  12.530  23.463  0.00  0.00    +0.000 A 
ATOM     30  C   UNL     1      -3.395  12.663  23.474  0.00  0.00    +0.000 A 
ATOM     31  C   UNL     1      -4.155  12.662  22.288  0.00  0.00    +0.000 A 
ATOM     32  C   UNL     1      -3.501  12.530  21.044  0.00  0.00    +0.000 A 
ATOM     33  C   UNL     1      -4.184  12.491  19.700  0.00  0.00    +0.000 C 
BRANCH  31  34
ATOM     34  O   UNL     1      -5.476  12.804  22.603  0.00  0.00    +0.000 OA
ATOM     35  C   UNL     1      -5.925  12.886  23.937  0.00  0.00    +0.000 C 
ENDBRANCH  31  34
ENDBRANCH  26  27
ENDBRANCH  23  26
ENDBRANCH   6  22
BRANCH   1  37
ATOM     36  C   UNL     1      -0.235   8.385  21.974  0.00  0.00    +0.000 C 
ATOM     37  O   UNL     1       1.152   8.588  21.654  0.00  0.00    +0.000 OA
ENDBRANCH   1  37
TORSDOF 6
ENDMDL
MODEL 6
REMARK VINA RESULT:      -8.9      0.648      1.442
REMARK  Name = 
REMARK  9 active torsions:
REMARK  status: ('A' for Active; 'I' for Inactive)
REMARK    1  A    between atoms: C_1  and  O_2
REMARK    2  A    between atoms: O_2  and  C_3
REMARK    3  A    between atoms: C_5  and  N_6
REMARK    4  A    between atoms: C_21  and  N_22
REMARK    5  A    between atoms: C_23  and  C_25
REMARK    6  A    between atoms: C_25  and  C_26
REMARK    7  A    between atoms: C_30  and  O_31
REMARK    8  A    between atoms: O_31  and  C_32
REMARK    9  A    between atoms: C_33  and  C_34
REMARK                            x       y       z     vdW  Elec       q    Type
REMARK                         _______ _______ _______ _____ _____    ______ ____
ROOT
ATOM      1  C   UNL     1       1.325   8.829  19.911  0.00  0.00    +0.000 A 
ATOM      2  C   UNL     1       2.226   7.742  19.920  0.00  0.00    +0.000 A 
ATOM      3  C   UNL     1       2.730   7.176  18.746  0.00  0.00    +0.000 A 
ATOM      4  C   UNL     1       2.392   7.766  17.537  0.00  0.00    +0.000 A 
ATOM      5  C   UNL     1       1.563   8.889  17.517  0.00  0.00    +0.000 A 
ATOM      6  C   UNL     1       0.999   9.435  18.679  0.00  0.00    +0.000 A 
ENDROOT
BRANCH   3   7
ATOM      7  N   UNL     1       3.603   6.054  18.781  0.00  0.00    +0.000 N 
ATOM      8  C   UNL     1       4.813   5.983  18.141  0.00  0.00    +0.000 A 
ATOM      9  C   UNL     1       5.440   4.819  18.432  0.00  0.00    +0.000 A 
ATOM     10  C   UNL     1       4.607   4.058  19.238  0.00  0.00    +0.000 A 
ATOM     11  N   UNL     1       4.831   2.845  19.740  0.00  0.00    +0.000 NA
ATOM     12  C   UNL     1       3.823   2.384  20.479  0.00  0.00    +0.000 A 
ATOM     13  N   UNL     1       2.669   3.008  20.755  0.00  0.00    +0.000 NA
ATOM     14  C   UNL     1       2.448   4.232  20.245  0.00  0.00    +0.000 A 
ATOM     15  N   UNL     1       1.206   4.760  20.559  0.00  0.00    +0.000 N 
ATOM     16  C   UNL     1       3.446   4.825  19.463  0.00  0.00    +0.000 A 
ATOM     17  C   UNL     1       6.781   4.820  17.865  0.00  0.00    +0.000 C 
ATOM     18  O   UNL     1       6.979   6.205  17.411  0.00  0.00    +0.000 OA
ATOM     19  C   UNL     1       5.680   6.899  17.385  0.00  0.00    +0.000 C 
ATOM     20  H   UNL     1       0.625   4.038  20.970  0.00  0.00    +0.000 HD
ATOM     21  H   UNL     1       0.771   5.284  19.812  0.00  0.00    +0.000 HD
ENDBRANCH   3   7
BRANCH   6  22
ATOM     22  N   UNL     1       0.157  10.585  18.593  0.00  0.00    +0.000 N 
ATOM     23  C   UNL     1      -1.205  10.554  18.299  0.00  0.00    +0.000 C 
ATOM     24  O   UNL     1      -1.898   9.538  18.225  0.00  0.00    +0.000 OA
ATOM     25  H   UNL     1       0.585  11.470  18.857  0.00  0.00    +0.000 HD
BRANCH  23  26
ATOM     26  C   UNL     1      -1.875  11.898  18.080  0.00  0.00    +0.000 C 
BRANCH  26  27
ATOM     27  C   UNL     1      -3.365  11.927  18.392  0.00  0.00    +0.000 A 
ATOM     28  C   UNL     1      -4.275  11.625  17.359  0.00  0.00    +0.000 A 
ATOM     29  C   UNL     1      -5.639  11.619  17.591  0.00  0.00    +0.000 A 
ATOM     30  C   UNL     1      -6.109  11.938  18.855  0.00  0.00    +0.000 A 
ATOM     31  C   UNL     1      -5.242  12.298  19.906  0.00  0.00    +0.000 A 
ATOM     32  C   UNL     1      -3.850  12.331  19.677  0.00  0.00    +0.000 A 
ATOM     33  C   UNL     1      -2.808  12.718  20.697  0.00  0.00    +0.000 C 
BRANCH  31  34
ATOM     34  O   UNL     1      -5.980  12.560  21.024  0.00  0.00    +0.000 OA
ATOM     35  C   UNL     1      -7.257  11.999  21.230  0.00  0.00    +0.000 C 
ENDBRANCH  31  34
ENDBRANCH  26  27
ENDBRANCH  23  26
ENDBRANCH   6  22
BRANCH   1  37
ATOM     36  C   UNL     1      -0.300   8.537  21.632  0.00  0.00    +0.000 C 
ATOM     37  O   UNL     1       0.774   9.318  21.080  0.00  0.00    +0.000 OA
ENDBRANCH   1  37
TORSDOF 6
ENDMDL
MODEL 7
REMARK VINA RESULT:      -8.9      2.135      3.193
REMARK  Name = 
REMARK  9 active torsions:
REMARK  status: ('A' for Active; 'I' for Inactive)
REMARK    1  A    between atoms: C_1  and  O_2
REMARK    2  A    between atoms: O_2  and  C_3
REMARK    3  A    between atoms: C_5  and  N_6
REMARK    4  A    between atoms: C_21  and  N_22
REMARK    5  A    between atoms: C_23  and  C_25
REMARK    6  A    between atoms: C_25  and  C_26
REMARK    7  A    between atoms: C_30  and  O_31
REMARK    8  A    between atoms: O_31  and  C_32
REMARK    9  A    between atoms: C_33  and  C_34
REMARK                            x       y       z     vdW  Elec       q    Type
REMARK                         _______ _______ _______ _____ _____    ______ ____
ROOT
ATOM      1  C   UNL     1       1.595   8.345  20.167  0.00  0.00    +0.000 A 
ATOM      2  C   UNL     1       2.291   7.199  19.725  0.00  0.00    +0.000 A 
ATOM      3  C   UNL     1       2.635   7.000  18.385  0.00  0.00    +0.000 A 
ATOM      4  C   UNL     1       2.352   8.013  17.480  0.00  0.00    +0.000 A 
ATOM      5  C   UNL     1       1.733   9.186  17.916  0.00  0.00    +0.000 A 
ATOM      6  C   UNL     1       1.326   9.378  19.244  0.00  0.00    +0.000 A 
ENDROOT
BRANCH   3   7
ATOM      7  N   UNL     1       3.299   5.818  17.958  0.00  0.00    +0.000 N 
ATOM      8  C   UNL     1       2.775   4.554  18.038  0.00  0.00    +0.000 A 
ATOM      9  C   UNL     1       3.615   3.652  17.478  0.00  0.00    +0.000 A 
ATOM     10  C   UNL     1       4.762   4.314  17.065  0.00  0.00    +0.000 A 
ATOM     11  N   UNL     1       5.842   3.801  16.478  0.00  0.00    +0.000 NA
ATOM     12  C   UNL     1       6.778   4.709  16.209  0.00  0.00    +0.000 A 
ATOM     13  N   UNL     1       6.725   6.026  16.453  0.00  0.00    +0.000 NA
ATOM     14  C   UNL     1       5.633   6.538  17.047  0.00  0.00    +0.000 A 
ATOM     15  N   UNL     1       5.707   7.899  17.291  0.00  0.00    +0.000 N 
ATOM     16  C   UNL     1       4.575   5.678  17.364  0.00  0.00    +0.000 A 
ATOM     17  C   UNL     1       2.985   2.340  17.439  0.00  0.00    +0.000 C 
ATOM     18  O   UNL     1       1.587   2.601  17.813  0.00  0.00    +0.000 OA
ATOM     19  C   UNL     1       1.483   3.950  18.395  0.00  0.00    +0.000 C 
ATOM     20  H   UNL     1       6.657   8.221  17.135  0.00  0.00    +0.000 HD
ATOM     21  H   UNL     1       5.296   8.193  18.168  0.00  0.00    +0.000 HD
ENDBRANCH   3   7
BRANCH   6  22
ATOM     22  N   UNL     1       0.695  10.600  19.629  0.00  0.00    +0.000 N 
ATOM     23  C   UNL     1      -0.597  10.977  19.267  0.00  0.00    +0.000 C 
ATOM     24  O   UNL     1      -1.421  10.256  18.703  0.00  0.00    +0.000 OA
ATOM     25  H   UNL     1       1.212  11.179  20.287  0.00  0.00    +0.000 HD
BRANCH  23  26
ATOM     26  C   UNL     1      -1.010  12.392  19.630  0.00  0.00    +0.000 C 
BRANCH  26  27
ATOM     27  C   UNL     1      -1.752  12.521  20.954  0.00  0.00    +0.000 A 
ATOM     28  C   UNL     1      -1.001  12.562  22.145  0.00  0.00    +0.000 A 
ATOM     29  C   UNL     1      -1.623  12.697  23.374  0.00  0.00    +0.000 A 
ATOM     30  C   UNL     1      -3.005  12.771  23.425  0.00  0.00    +0.000 A 
ATOM     31  C   UNL     1      -3.802  12.681  22.266  0.00  0.00    +0.000 A 
ATOM     32  C   UNL     1      -3.183  12.520  21.008  0.00  0.00    +0.000 A 
ATOM     33  C   UNL     1      -3.906  12.389  19.691  0.00  0.00    +0.000 C 
BRANCH  31  34
ATOM     34  O   UNL     1      -5.117  12.781  22.619  0.00  0.00    +0.000 OA
ATOM     35  C   UNL     1      -5.522  13.035  23.946  0.00  0.00    +0.000 C 
ENDBRANCH  31  34
ENDBRANCH  26  27
ENDBRANCH  23  26
ENDBRANCH   6  22
BRANCH   1  37
ATOM     36  C   UNL     1      -0.200   8.213  21.732  0.00  0.00    +0.000 C 
ATOM     37  O   UNL     1       1.191   8.480  21.481  0.00  0.00    +0.000 OA
ENDBRANCH   1  37
TORSDOF 6
ENDMDL
MODEL 8
REMARK VINA RESULT:      -8.7      1.872      2.796
REMARK  Name = 
REMARK  9 active torsions:
REMARK  status: ('A' for Active; 'I' for Inactive)
REMARK    1  A    between atoms: C_1  and  O_2
REMARK    2  A    between atoms: O_2  and  C_3
REMARK    3  A    between atoms: C_5  and  N_6
REMARK    4  A    between atoms: C_21  and  N_22
REMARK    5  A    between atoms: C_23  and  C_25
REMARK    6  A    between atoms: C_25  and  C_26
REMARK    7  A    between atoms: C_30  and  O_31
REMARK    8  A    between atoms: O_31  and  C_32
REMARK    9  A    between atoms: C_33  and  C_34
REMARK                            x       y       z     vdW  Elec       q    Type
REMARK                         _______ _______ _______ _____ _____    ______ ____
ROOT
ATOM      1  C   UNL     1       1.468   8.577  20.307  0.00  0.00    +0.000 A 
ATOM      2  C   UNL     1       2.159   7.397  19.956  0.00  0.00    +0.000 A 
ATOM      3  C   UNL     1       2.469   7.076  18.632  0.00  0.00    +0.000 A 
ATOM      4  C   UNL     1       2.156   7.998  17.643  0.00  0.00    +0.000 A 
ATOM      5  C   UNL     1       1.540   9.204  17.984  0.00  0.00    +0.000 A 
ATOM      6  C   UNL     1       1.167   9.518  19.299  0.00  0.00    +0.000 A 
ENDROOT
BRANCH   3   7
ATOM      7  N   UNL     1       3.128   5.861  18.299  0.00  0.00    +0.000 N 
ATOM      8  C   UNL     1       4.224   5.763  17.482  0.00  0.00    +0.000 A 
ATOM      9  C   UNL     1       4.666   4.484  17.427  0.00  0.00    +0.000 A 
ATOM     10  C   UNL     1       3.812   3.689  18.175  0.00  0.00    +0.000 A 
ATOM     11  N   UNL     1       3.875   2.374  18.375  0.00  0.00    +0.000 NA
ATOM     12  C   UNL     1       2.895   1.908  19.146  0.00  0.00    +0.000 A 
ATOM     13  N   UNL     1       1.909   2.613  19.719  0.00  0.00    +0.000 NA
ATOM     14  C   UNL     1       1.849   3.941  19.513  0.00  0.00    +0.000 A 
ATOM     15  N   UNL     1       0.765   4.558  20.115  0.00  0.00    +0.000 N 
ATOM     16  C   UNL     1       2.838   4.545  18.728  0.00  0.00    +0.000 A 
ATOM     17  C   UNL     1       5.912   4.420  16.676  0.00  0.00    +0.000 C 
ATOM     18  O   UNL     1       6.296   5.828  16.493  0.00  0.00    +0.000 OA
ATOM     19  C   UNL     1       5.145   6.691  16.810  0.00  0.00    +0.000 C 
ATOM     20  H   UNL     1       0.117   3.854  20.451  0.00  0.00    +0.000 HD
ATOM     21  H   UNL     1       0.345   5.298  19.567  0.00  0.00    +0.000 HD
ENDBRANCH   3   7
BRANCH   6  22
ATOM     22  N   UNL     1       0.539  10.768  19.585  0.00  0.00    +0.000 N 
ATOM     23  C   UNL     1      -0.773  11.095  19.247  0.00  0.00    +0.000 C 
ATOM     24  O   UNL     1      -1.613  10.313  18.800  0.00  0.00    +0.000 OA
ATOM     25  H   UNL     1       1.078  11.417  20.154  0.00  0.00    +0.000 HD
BRANCH  23  26
ATOM     26  C   UNL     1      -1.187  12.537  19.482  0.00  0.00    +0.000 C 
BRANCH  26  27
ATOM     27  C   UNL     1      -1.676  12.840  20.891  0.00  0.00    +0.000 A 
ATOM     28  C   UNL     1      -3.004  12.514  21.228  0.00  0.00    +0.000 A 
ATOM     29  C   UNL     1      -3.495  12.752  22.500  0.00  0.00    +0.000 A 
ATOM     30  C   UNL     1      -2.666  13.338  23.443  0.00  0.00    +0.000 A 
ATOM     31  C   UNL     1      -1.348  13.730  23.139  0.00  0.00    +0.000 A 
ATOM     32  C   UNL     1      -0.842  13.516  21.839  0.00  0.00    +0.000 A 
ATOM     33  C   UNL     1       0.538  13.902  21.366  0.00  0.00    +0.000 C 
BRANCH  31  34
ATOM     34  O   UNL     1      -0.776  14.279  24.252  0.00  0.00    +0.000 OA
ATOM     35  C   UNL     1      -1.264  15.464  24.839  0.00  0.00    +0.000 C 
ENDBRANCH  31  34
ENDBRANCH  26  27
ENDBRANCH  23  26
ENDBRANCH   6  22
BRANCH   1  37
ATOM     36  C   UNL     1      -0.263   8.505  21.947  0.00  0.00    +0.000 C 
ATOM     37  O   UNL     1       1.097   8.834  21.613  0.00  0.00    +0.000 OA
ENDBRANCH   1  37
TORSDOF 6
ENDMDL
MODEL 9
REMARK VINA RESULT:      -8.7      0.984      1.722
REMARK  Name = 
REMARK  9 active torsions:
REMARK  status: ('A' for Active; 'I' for Inactive)
REMARK    1  A    between atoms: C_1  and  O_2
REMARK    2  A    between atoms: O_2  and  C_3
REMARK    3  A    between atoms: C_5  and  N_6
REMARK    4  A    between atoms: C_21  and  N_22
REMARK    5  A    between atoms: C_23  and  C_25
REMARK    6  A    between atoms: C_25  and  C_26
REMARK    7  A    between atoms: C_30  and  O_31
REMARK    8  A    between atoms: O_31  and  C_32
REMARK    9  A    between atoms: C_33  and  C_34
REMARK                            x       y       z     vdW  Elec       q    Type
REMARK                         _______ _______ _______ _____ _____    ______ ____
ROOT
ATOM      1  C   UNL     1       1.236   8.309  20.174  0.00  0.00    +0.000 A 
ATOM      2  C   UNL     1       2.201   7.280  20.109  0.00  0.00    +0.000 A 
ATOM      3  C   UNL     1       2.831   6.917  18.916  0.00  0.00    +0.000 A 
ATOM      4  C   UNL     1       2.551   7.658  17.776  0.00  0.00    +0.000 A 
ATOM      5  C   UNL     1       1.656   8.727  17.841  0.00  0.00    +0.000 A 
ATOM      6  C   UNL     1       0.969   9.068  19.015  0.00  0.00    +0.000 A 
ENDROOT
BRANCH   3   7
ATOM      7  N   UNL     1       3.769   5.850  18.868  0.00  0.00    +0.000 N 
ATOM      8  C   UNL     1       4.965   5.887  18.200  0.00  0.00    +0.000 A 
ATOM      9  C   UNL     1       5.667   4.749  18.412  0.00  0.00    +0.000 A 
ATOM     10  C   UNL     1       4.900   3.896  19.192  0.00  0.00    +0.000 A 
ATOM     11  N   UNL     1       5.207   2.673  19.620  0.00  0.00    +0.000 NA
ATOM     12  C   UNL     1       4.246   2.112  20.352  0.00  0.00    +0.000 A 
ATOM     13  N   UNL     1       3.065   2.649  20.688  0.00  0.00    +0.000 NA
ATOM     14  C   UNL     1       2.760   3.884  20.253  0.00  0.00    +0.000 A 
ATOM     15  N   UNL     1       1.497   4.318  20.622  0.00  0.00    +0.000 N 
ATOM     16  C   UNL     1       3.702   4.578  19.484  0.00  0.00    +0.000 A 
ATOM     17  C   UNL     1       6.991   4.862  17.818  0.00  0.00    +0.000 C 
ATOM     18  O   UNL     1       7.096   6.279  17.438  0.00  0.00    +0.000 OA
ATOM     19  C   UNL     1       5.758   6.894  17.479  0.00  0.00    +0.000 C 
ATOM     20  H   UNL     1       0.969   3.541  21.004  0.00  0.00    +0.000 HD
ATOM     21  H   UNL     1       1.014   4.856  19.914  0.00  0.00    +0.000 HD
ENDBRANCH   3   7
BRANCH   6  22
ATOM     22  N   UNL     1       0.064  10.173  19.018  0.00  0.00    +0.000 N 
ATOM     23  C   UNL     1       0.443  11.513  19.042  0.00  0.00    +0.000 C 
ATOM     24  O   UNL     1       1.594  11.934  18.910  0.00  0.00    +0.000 OA
ATOM     25  H   UNL     1      -0.921   9.941  18.905  0.00  0.00    +0.000 HD
BRANCH  23  26
ATOM     26  C   UNL     1      -0.674  12.524  19.223  0.00  0.00    +0.000 C 
BRANCH  26  27
ATOM     27  C   UNL     1      -2.017  12.105  18.640  0.00  0.00    +0.000 A 
ATOM     28  C   UNL     1      -2.056  11.632  17.314  0.00  0.00    +0.000 A 
ATOM     29  C   UNL     1      -3.246  11.220  16.740  0.00  0.00    +0.000 A 
ATOM     30  C   UNL     1      -4.414  11.298  17.481  0.00  0.00    +0.000 A 
ATOM     31  C   UNL     1      -4.434  11.812  18.793  0.00  0.00    +0.000 A 
ATOM     32  C   UNL     1      -3.231  12.258  19.382  0.00  0.00    +0.000 A 
ATOM     33  C   UNL     1      -3.105  12.849  20.764  0.00  0.00    +0.000 C 
BRANCH  31  34
ATOM     34  O   UNL     1      -5.712  11.769  19.270  0.00  0.00    +0.000 OA
ATOM     35  C   UNL     1      -6.769  11.190  18.538  0.00  0.00    +0.000 C 
ENDBRANCH  31  34
ENDBRANCH  26  27
ENDBRANCH  23  26
ENDBRANCH   6  22
BRANCH   1  37
ATOM     36  C   UNL     1       1.306   9.358  22.315  0.00  0.00    +0.000 C 
ATOM     37  O   UNL     1       0.565   8.594  21.347  0.00  0.00    +0.000 OA
ENDBRANCH   1  37
TORSDOF 6
ENDMDL
