MODEL 1
REMARK VINA RESULT:      -7.6      0.000      0.000
REMARK  Name = 
REMARK  6 active torsions:
REMARK  status: ('A' for Active; 'I' for Inactive)
REMARK    1  A    between atoms: C_1  and  C_2
REMARK    2  A    between atoms: C_2  and  N_3
REMARK    3  A    between atoms: C_8  and  C_9
REMARK    4  A    between atoms: N_11  and  C_12
REMARK    5  A    between atoms: C_12  and  C_13
REMARK    6  A    between atoms: C_18  and  C_19
REMARK                            x       y       z     vdW  Elec       q    Type
REMARK                         _______ _______ _______ _____ _____    ______ ____
ROOT
ATOM      1  C   UNL     1       3.915   5.246  18.945  0.00  0.00    +0.000 C 
ATOM      2  O   UNL     1       4.958   5.607  19.484  0.00  0.00    +0.000 OA
ATOM      3  N   UNL     1       3.141   6.079  18.165  0.00  0.00    +0.000 N 
ATOM      4  H   UNL     1       2.297   5.692  17.757  0.00  0.00    +0.000 HD
ENDROOT
BRANCH   1  10
ATOM      5  N   UNL     1       2.047   3.612  19.276  0.00  0.00    +0.000 N 
ATOM      6  C   UNL     1       1.443   2.643  18.485  0.00  0.00    +0.000 C 
ATOM      7  O   UNL     1       0.302   2.228  18.601  0.00  0.00    +0.000 OA
ATOM      8  C   UNL     1       2.460   2.135  17.497  0.00  0.00    +0.000 C 
ATOM      9  C   UNL     1       3.563   3.181  17.551  0.00  0.00    +0.000 C 
ATOM     10  C   UNL     1       3.460   3.775  18.953  0.00  0.00    +0.000 C 
BRANCH   5  12
ATOM     11  C   UNL     1       1.748   3.164  21.707  0.00  0.00    +0.000 C 
ATOM     12  C   UNL     1       1.464   4.079  20.530  0.00  0.00    +0.000 C 
ENDBRANCH   5  12
ENDBRANCH   1  10
BRANCH   3  13
ATOM     13  C   UNL     1       3.390   7.494  18.040  0.00  0.00    +0.000 C 
BRANCH  13  14
ATOM     14  C   UNL     1       2.210   8.306  18.520  0.00  0.00    +0.000 A 
ATOM     15  C   UNL     1       1.448   9.064  17.618  0.00  0.00    +0.000 A 
ATOM     16  C   UNL     1       0.381   9.838  18.070  0.00  0.00    +0.000 A 
ATOM     17  C   UNL     1       0.057   9.854  19.425  0.00  0.00    +0.000 A 
ATOM     18  F   UNL     1      -0.965  10.622  19.821  0.00  0.00    +0.000 F 
ATOM     19  C   UNL     1       0.775   9.097  20.348  0.00  0.00    +0.000 A 
ATOM     20  C   UNL     1       1.852   8.317  19.880  0.00  0.00    +0.000 A 
BRANCH  19  21
ATOM     21  C   UNL     1       0.420   9.110  21.805  0.00  0.00    +0.000 C 
ATOM     22  F   UNL     1      -0.709   8.427  22.135  0.00  0.00    +0.000 F 
ATOM     23  F   UNL     1       1.412   8.570  22.574  0.00  0.00    +0.000 F 
ATOM     24  F   UNL     1       0.239  10.374  22.278  0.00  0.00    +0.000 F 
ENDBRANCH  19  21
ENDBRANCH  13  14
ENDBRANCH   3  13
TORSDOF 5
ENDMDL
MODEL 2
REMARK VINA RESULT:      -7.5      2.296      4.108
REMARK  Name = 
REMARK  6 active torsions:
REMARK  status: ('A' for Active; 'I' for Inactive)
REMARK    1  A    between atoms: C_1  and  C_2
REMARK    2  A    between atoms: C_2  and  N_3
REMARK    3  A    between atoms: C_8  and  C_9
REMARK    4  A    between atoms: N_11  and  C_12
REMARK    5  A    between atoms: C_12  and  C_13
REMARK    6  A    between atoms: C_18  and  C_19
REMARK                            x       y       z     vdW  Elec       q    Type
REMARK                         _______ _______ _______ _____ _____    ______ ____
ROOT
ATOM      1  C   UNL     1       4.170   4.918  18.567  0.00  0.00    +0.000 C 
ATOM      2  O   UNL     1       3.370   4.062  18.200  0.00  0.00    +0.000 OA
ATOM      3  N   UNL     1       3.853   5.906  19.476  0.00  0.00    +0.000 N 
ATOM      4  H   UNL     1       4.580   6.569  19.722  0.00  0.00    +0.000 HD
ENDROOT
BRANCH   1  10
ATOM      5  N   UNL     1       6.004   5.805  17.112  0.00  0.00    +0.000 N 
ATOM      6  C   UNL     1       7.226   6.424  17.345  0.00  0.00    +0.000 C 
ATOM      7  O   UNL     1       7.810   7.175  16.582  0.00  0.00    +0.000 OA
ATOM      8  C   UNL     1       7.748   5.956  18.678  0.00  0.00    +0.000 C 
ATOM      9  C   UNL     1       6.530   5.328  19.338  0.00  0.00    +0.000 C 
ATOM     10  C   UNL     1       5.658   4.867  18.174  0.00  0.00    +0.000 C 
BRANCH   5  12
ATOM     11  C   UNL     1       5.654   4.496  15.023  0.00  0.00    +0.000 C 
ATOM     12  C   UNL     1       5.378   5.774  15.794  0.00  0.00    +0.000 C 
ENDBRANCH   5  12
ENDBRANCH   1  10
BRANCH   3  13
ATOM     13  C   UNL     1       2.512   6.132  19.955  0.00  0.00    +0.000 C 
BRANCH  13  14
ATOM     14  C   UNL     1       2.006   7.498  19.556  0.00  0.00    +0.000 A 
ATOM     15  C   UNL     1       2.208   7.984  18.256  0.00  0.00    +0.000 A 
ATOM     16  C   UNL     1       1.769   9.259  17.902  0.00  0.00    +0.000 A 
ATOM     17  C   UNL     1       1.114  10.054  18.839  0.00  0.00    +0.000 A 
ATOM     18  F   UNL     1       0.721  11.279  18.465  0.00  0.00    +0.000 F 
ATOM     19  C   UNL     1       0.873   9.598  20.133  0.00  0.00    +0.000 A 
ATOM     20  C   UNL     1       1.321   8.307  20.480  0.00  0.00    +0.000 A 
BRANCH  19  21
ATOM     21  C   UNL     1       0.162  10.453  21.138  0.00  0.00    +0.000 C 
ATOM     22  F   UNL     1       0.763  11.640  21.422  0.00  0.00    +0.000 F 
ATOM     23  F   UNL     1      -1.102  10.773  20.728  0.00  0.00    +0.000 F 
ATOM     24  F   UNL     1       0.008   9.821  22.334  0.00  0.00    +0.000 F 
ENDBRANCH  19  21
ENDBRANCH  13  14
ENDBRANCH   3  13
TORSDOF 5
ENDMDL
MODEL 3
REMARK VINA RESULT:      -7.4      4.029      6.800
REMARK  Name = 
REMARK  6 active torsions:
REMARK  status: ('A' for Active; 'I' for Inactive)
REMARK    1  A    between atoms: C_1  and  C_2
REMARK    2  A    between atoms: C_2  and  N_3
REMARK    3  A    between atoms: C_8  and  C_9
REMARK    4  A    between atoms: N_11  and  C_12
REMARK    5  A    between atoms: C_12  and  C_13
REMARK    6  A    between atoms: C_18  and  C_19
REMARK                            x       y       z     vdW  Elec       q    Type
REMARK                         _______ _______ _______ _____ _____    ______ ____
ROOT
ATOM      1  C   UNL     1       1.473   9.178  18.233  0.00  0.00    +0.000 C 
ATOM      2  O   UNL     1       2.114  10.001  17.584  0.00  0.00    +0.000 OA
ATOM      3  N   UNL     1       1.962   7.931  18.563  0.00  0.00    +0.000 N 
ATOM      4  H   UNL     1       1.362   7.319  19.105  0.00  0.00    +0.000 HD
ENDROOT
BRANCH   1  10
ATOM      5  N   UNL     1       0.246  10.488  19.978  0.00  0.00    +0.000 N 
ATOM      6  C   UNL     1      -0.776  11.429  19.957  0.00  0.00    +0.000 C 
ATOM      7  O   UNL     1      -0.984  12.286  20.799  0.00  0.00    +0.000 OA
ATOM      8  C   UNL     1      -1.635  11.169  18.747  0.00  0.00    +0.000 C 
ATOM      9  C   UNL     1      -0.777  10.252  17.890  0.00  0.00    +0.000 C 
ATOM     10  C   UNL     1       0.123   9.528  18.887  0.00  0.00    +0.000 C 
BRANCH   5  12
ATOM     11  C   UNL     1       0.469   9.202  22.098  0.00  0.00    +0.000 C 
ATOM     12  C   UNL     1       1.061  10.241  21.163  0.00  0.00    +0.000 C 
ENDBRANCH   5  12
ENDBRANCH   1  10
BRANCH   3  13
ATOM     13  C   UNL     1       3.200   7.410  18.039  0.00  0.00    +0.000 C 
BRANCH  13  14
ATOM     14  C   UNL     1       3.171   5.902  17.951  0.00  0.00    +0.000 A 
ATOM     15  C   UNL     1       4.089   5.215  17.143  0.00  0.00    +0.000 A 
ATOM     16  C   UNL     1       4.036   3.826  17.039  0.00  0.00    +0.000 A 
ATOM     17  C   UNL     1       3.075   3.110  17.749  0.00  0.00    +0.000 A 
ATOM     18  F   UNL     1       3.048   1.778  17.610  0.00  0.00    +0.000 F 
ATOM     19  C   UNL     1       2.161   3.755  18.580  0.00  0.00    +0.000 A 
ATOM     20  C   UNL     1       2.224   5.159  18.679  0.00  0.00    +0.000 A 
BRANCH  19  21
ATOM     21  C   UNL     1       1.132   2.981  19.349  0.00  0.00    +0.000 C 
ATOM     22  F   UNL     1       0.243   2.284  18.592  0.00  0.00    +0.000 F 
ATOM     23  F   UNL     1       1.706   2.061  20.180  0.00  0.00    +0.000 F 
ATOM     24  F   UNL     1       0.383   3.783  20.154  0.00  0.00    +0.000 F 
ENDBRANCH  19  21
ENDBRANCH  13  14
ENDBRANCH   3  13
TORSDOF 5
ENDMDL
MODEL 4
REMARK VINA RESULT:      -7.3      0.551      1.001
REMARK  Name = 
REMARK  6 active torsions:
REMARK  status: ('A' for Active; 'I' for Inactive)
REMARK    1  A    between atoms: C_1  and  C_2
REMARK    2  A    between atoms: C_2  and  N_3
REMARK    3  A    between atoms: C_8  and  C_9
REMARK    4  A    between atoms: N_11  and  C_12
REMARK    5  A    between atoms: C_12  and  C_13
REMARK    6  A    between atoms: C_18  and  C_19
REMARK                            x       y       z     vdW  Elec       q    Type
REMARK                         _______ _______ _______ _____ _____    ______ ____
ROOT
ATOM      1  C   UNL     1       4.020   5.174  18.767  0.00  0.00    +0.000 C 
ATOM      2  O   UNL     1       5.046   5.573  19.310  0.00  0.00    +0.000 OA
ATOM      3  N   UNL     1       3.289   5.938  17.881  0.00  0.00    +0.000 N 
ATOM      4  H   UNL     1       2.455   5.524  17.478  0.00  0.00    +0.000 HD
ENDROOT
BRANCH   1  10
ATOM      5  N   UNL     1       2.146   3.602  19.301  0.00  0.00    +0.000 N 
ATOM      6  C   UNL     1       1.485   2.596  18.608  0.00  0.00    +0.000 C 
ATOM      7  O   UNL     1       0.346   2.211  18.810  0.00  0.00    +0.000 OA
ATOM      8  C   UNL     1       2.440   2.005  17.604  0.00  0.00    +0.000 C 
ATOM      9  C   UNL     1       3.561   3.030  17.531  0.00  0.00    +0.000 C 
ATOM     10  C   UNL     1       3.543   3.716  18.895  0.00  0.00    +0.000 C 
BRANCH   5  12
ATOM     11  C   UNL     1       1.935   3.298  21.764  0.00  0.00    +0.000 C 
ATOM     12  C   UNL     1       1.638   4.160  20.550  0.00  0.00    +0.000 C 
ENDBRANCH   5  12
ENDBRANCH   1  10
BRANCH   3  13
ATOM     13  C   UNL     1       3.564   7.332  17.634  0.00  0.00    +0.000 C 
BRANCH  13  14
ATOM     14  C   UNL     1       2.521   8.222  18.268  0.00  0.00    +0.000 A 
ATOM     15  C   UNL     1       2.019   9.337  17.581  0.00  0.00    +0.000 A 
ATOM     16  C   UNL     1       1.081  10.174  18.184  0.00  0.00    +0.000 A 
ATOM     17  C   UNL     1       0.627   9.898  19.471  0.00  0.00    +0.000 A 
ATOM     18  F   UNL     1      -0.263  10.735  20.021  0.00  0.00    +0.000 F 
ATOM     19  C   UNL     1       1.084   8.787  20.176  0.00  0.00    +0.000 A 
ATOM     20  C   UNL     1       2.032   7.947  19.558  0.00  0.00    +0.000 A 
BRANCH  19  21
ATOM     21  C   UNL     1       0.589   8.489  21.560  0.00  0.00    +0.000 C 
ATOM     22  F   UNL     1       0.837   9.452  22.487  0.00  0.00    +0.000 F 
ATOM     23  F   UNL     1      -0.764   8.298  21.584  0.00  0.00    +0.000 F 
ATOM     24  F   UNL     1       1.127   7.344  22.062  0.00  0.00    +0.000 F 
ENDBRANCH  19  21
ENDBRANCH  13  14
ENDBRANCH   3  13
TORSDOF 5
ENDMDL
MODEL 5
REMARK VINA RESULT:      -7.3      1.439      2.390
REMARK  Name = 
REMARK  6 active torsions:
REMARK  status: ('A' for Active; 'I' for Inactive)
REMARK    1  A    between atoms: C_1  and  C_2
REMARK    2  A    between atoms: C_2  and  N_3
REMARK    3  A    between atoms: C_8  and  C_9
REMARK    4  A    between atoms: N_11  and  C_12
REMARK    5  A    between atoms: C_12  and  C_13
REMARK    6  A    between atoms: C_18  and  C_19
REMARK                            x       y       z     vdW  Elec       q    Type
REMARK                         _______ _______ _______ _____ _____    ______ ____
ROOT
ATOM      1  C   UNL     1       1.970   4.588  18.473  0.00  0.00    +0.000 C 
ATOM      2  O   UNL     1       1.401   4.725  17.393  0.00  0.00    +0.000 OA
ATOM      3  N   UNL     1       2.736   5.577  19.053  0.00  0.00    +0.000 N 
ATOM      4  H   UNL     1       3.167   5.375  19.949  0.00  0.00    +0.000 HD
ENDROOT
BRANCH   1  10
ATOM      5  N   UNL     1       2.977   2.808  19.916  0.00  0.00    +0.000 N 
ATOM      6  C   UNL     1       2.825   2.421  21.242  0.00  0.00    +0.000 C 
ATOM      7  O   UNL     1       3.656   1.843  21.923  0.00  0.00    +0.000 OA
ATOM      8  C   UNL     1       1.428   2.772  21.682  0.00  0.00    +0.000 C 
ATOM      9  C   UNL     1       0.949   3.738  20.610  0.00  0.00    +0.000 C 
ATOM     10  C   UNL     1       1.742   3.353  19.364  0.00  0.00    +0.000 C 
BRANCH   5  12
ATOM     11  C   UNL     1       3.619   1.521  17.883  0.00  0.00    +0.000 C 
ATOM     12  C   UNL     1       4.076   2.334  19.081  0.00  0.00    +0.000 C 
ENDBRANCH   5  12
ENDBRANCH   1  10
BRANCH   3  13
ATOM     13  C   UNL     1       3.080   6.803  18.375  0.00  0.00    +0.000 C 
BRANCH  13  14
ATOM     14  C   UNL     1       2.141   7.924  18.751  0.00  0.00    +0.000 A 
ATOM     15  C   UNL     1       1.696   8.839  17.785  0.00  0.00    +0.000 A 
ATOM     16  C   UNL     1       0.856   9.892  18.144  0.00  0.00    +0.000 A 
ATOM     17  C   UNL     1       0.444  10.035  19.466  0.00  0.00    +0.000 A 
ATOM     18  F   UNL     1      -0.351  11.069  19.773  0.00  0.00    +0.000 F 
ATOM     19  C   UNL     1       0.846   9.133  20.449  0.00  0.00    +0.000 A 
ATOM     20  C   UNL     1       1.694   8.072  20.076  0.00  0.00    +0.000 A 
BRANCH  19  21
ATOM     21  C   UNL     1       0.394   9.285  21.871  0.00  0.00    +0.000 C 
ATOM     22  F   UNL     1      -0.753   8.629  22.191  0.00  0.00    +0.000 F 
ATOM     23  F   UNL     1       1.334   8.830  22.753  0.00  0.00    +0.000 F 
ATOM     24  F   UNL     1       0.181  10.587  22.206  0.00  0.00    +0.000 F 
ENDBRANCH  19  21
ENDBRANCH  13  14
ENDBRANCH   3  13
TORSDOF 5
ENDMDL
MODEL 6
REMARK VINA RESULT:      -7.3      5.938      7.944
REMARK  Name = 
REMARK  6 active torsions:
REMARK  status: ('A' for Active; 'I' for Inactive)
REMARK    1  A    between atoms: C_1  and  C_2
REMARK    2  A    between atoms: C_2  and  N_3
REMARK    3  A    between atoms: C_8  and  C_9
REMARK    4  A    between atoms: N_11  and  C_12
REMARK    5  A    between atoms: C_12  and  C_13
REMARK    6  A    between atoms: C_18  and  C_19
REMARK                            x       y       z     vdW  Elec       q    Type
REMARK                         _______ _______ _______ _____ _____    ______ ____
ROOT
ATOM      1  C   UNL     1       3.800   5.334  18.391  0.00  0.00    +0.000 C 
ATOM      2  O   UNL     1       4.780   5.464  19.120  0.00  0.00    +0.000 OA
ATOM      3  N   UNL     1       3.666   4.303  17.484  0.00  0.00    +0.000 N 
ATOM      4  H   UNL     1       2.819   4.275  16.926  0.00  0.00    +0.000 HD
ENDROOT
BRANCH   1  10
ATOM      5  N   UNL     1       2.171   6.444  19.933  0.00  0.00    +0.000 N 
ATOM      6  C   UNL     1       1.770   7.757  20.153  0.00  0.00    +0.000 C 
ATOM      7  O   UNL     1       1.308   8.204  21.190  0.00  0.00    +0.000 OA
ATOM      8  C   UNL     1       1.937   8.526  18.869  0.00  0.00    +0.000 C 
ATOM      9  C   UNL     1       2.829   7.627  18.028  0.00  0.00    +0.000 C 
ATOM     10  C   UNL     1       2.549   6.218  18.542  0.00  0.00    +0.000 C 
BRANCH   5  12
ATOM     11  C   UNL     1       0.970   4.283  20.230  0.00  0.00    +0.000 C 
ATOM     12  C   UNL     1       1.844   5.359  20.851  0.00  0.00    +0.000 C 
ENDBRANCH   5  12
ENDBRANCH   1  10
BRANCH   3  13
ATOM     13  C   UNL     1       4.729   3.377  17.185  0.00  0.00    +0.000 C 
BRANCH  13  14
ATOM     14  C   UNL     1       5.595   3.877  16.052  0.00  0.00    +0.000 A 
ATOM     15  C   UNL     1       6.651   4.767  16.298  0.00  0.00    +0.000 A 
ATOM     16  C   UNL     1       7.425   5.252  15.245  0.00  0.00    +0.000 A 
ATOM     17  C   UNL     1       7.159   4.844  13.940  0.00  0.00    +0.000 A 
ATOM     18  F   UNL     1       7.916   5.345  12.955  0.00  0.00    +0.000 F 
ATOM     19  C   UNL     1       6.134   3.944  13.659  0.00  0.00    +0.000 A 
ATOM     20  C   UNL     1       5.358   3.459  14.730  0.00  0.00    +0.000 A 
BRANCH  19  21
ATOM     21  C   UNL     1       5.854   3.501  12.253  0.00  0.00    +0.000 C 
ATOM     22  F   UNL     1       6.523   4.183  11.285  0.00  0.00    +0.000 F 
ATOM     23  F   UNL     1       6.174   2.187  12.063  0.00  0.00    +0.000 F 
ATOM     24  F   UNL     1       4.535   3.606  11.935  0.00  0.00    +0.000 F 
ENDBRANCH  19  21
ENDBRANCH  13  14
ENDBRANCH   3  13
TORSDOF 5
ENDMDL
MODEL 7
REMARK VINA RESULT:      -7.3      3.843      6.680
REMARK  Name = 
REMARK  6 active torsions:
REMARK  status: ('A' for Active; 'I' for Inactive)
REMARK    1  A    between atoms: C_1  and  C_2
REMARK    2  A    between atoms: C_2  and  N_3
REMARK    3  A    between atoms: C_8  and  C_9
REMARK    4  A    between atoms: N_11  and  C_12
REMARK    5  A    between atoms: C_12  and  C_13
REMARK    6  A    between atoms: C_18  and  C_19
REMARK                            x       y       z     vdW  Elec       q    Type
REMARK                         _______ _______ _______ _____ _____    ______ ____
ROOT
ATOM      1  C   UNL     1       1.701   9.323  18.274  0.00  0.00    +0.000 C 
ATOM      2  O   UNL     1       2.352  10.129  17.614  0.00  0.00    +0.000 OA
ATOM      3  N   UNL     1       2.093   8.015  18.467  0.00  0.00    +0.000 N 
ATOM      4  H   UNL     1       1.493   7.422  19.031  0.00  0.00    +0.000 HD
ENDROOT
BRANCH   1  10
ATOM      5  N   UNL     1       0.782  10.065  20.481  0.00  0.00    +0.000 N 
ATOM      6  C   UNL     1       0.087  11.183  20.926  0.00  0.00    +0.000 C 
ATOM      7  O   UNL     1       0.076  11.618  22.066  0.00  0.00    +0.000 OA
ATOM      8  C   UNL     1      -0.713  11.735  19.775  0.00  0.00    +0.000 C 
ATOM      9  C   UNL     1      -0.099  11.060  18.558  0.00  0.00    +0.000 C 
ATOM     10  C   UNL     1       0.467   9.747  19.093  0.00  0.00    +0.000 C 
BRANCH   5  12
ATOM     11  C   UNL     1       0.546   7.864  21.622  0.00  0.00    +0.000 C 
ATOM     12  C   UNL     1       1.391   9.105  21.395  0.00  0.00    +0.000 C 
ENDBRANCH   5  12
ENDBRANCH   1  10
BRANCH   3  13
ATOM     13  C   UNL     1       3.212   7.421  17.779  0.00  0.00    +0.000 C 
BRANCH  13  14
ATOM     14  C   UNL     1       3.175   5.913  17.863  0.00  0.00    +0.000 A 
ATOM     15  C   UNL     1       4.086   5.134  17.135  0.00  0.00    +0.000 A 
ATOM     16  C   UNL     1       4.026   3.742  17.189  0.00  0.00    +0.000 A 
ATOM     17  C   UNL     1       3.064   3.117  17.979  0.00  0.00    +0.000 A 
ATOM     18  F   UNL     1       3.030   1.778  17.992  0.00  0.00    +0.000 F 
ATOM     19  C   UNL     1       2.157   3.857  18.733  0.00  0.00    +0.000 A 
ATOM     20  C   UNL     1       2.226   5.263  18.672  0.00  0.00    +0.000 A 
BRANCH  19  21
ATOM     21  C   UNL     1       1.126   3.181  19.588  0.00  0.00    +0.000 C 
ATOM     22  F   UNL     1       1.616   2.323  20.523  0.00  0.00    +0.000 F 
ATOM     23  F   UNL     1       0.371   4.084  20.281  0.00  0.00    +0.000 F 
ATOM     24  F   UNL     1       0.241   2.456  18.849  0.00  0.00    +0.000 F 
ENDBRANCH  19  21
ENDBRANCH  13  14
ENDBRANCH   3  13
TORSDOF 5
ENDMDL
MODEL 8
REMARK VINA RESULT:      -7.2      6.352      7.963
REMARK  Name = 
REMARK  6 active torsions:
REMARK  status: ('A' for Active; 'I' for Inactive)
REMARK    1  A    between atoms: C_1  and  C_2
REMARK    2  A    between atoms: C_2  and  N_3
REMARK    3  A    between atoms: C_8  and  C_9
REMARK    4  A    between atoms: N_11  and  C_12
REMARK    5  A    between atoms: C_12  and  C_13
REMARK    6  A    between atoms: C_18  and  C_19
REMARK                            x       y       z     vdW  Elec       q    Type
REMARK                         _______ _______ _______ _____ _____    ______ ____
ROOT
ATOM      1  C   UNL     1       5.440   4.249  18.330  0.00  0.00    +0.000 C 
ATOM      2  O   UNL     1       6.205   4.620  19.217  0.00  0.00    +0.000 OA
ATOM      3  N   UNL     1       5.804   4.174  17.002  0.00  0.00    +0.000 N 
ATOM      4  H   UNL     1       5.106   3.852  16.340  0.00  0.00    +0.000 HD
ENDROOT
BRANCH   1  10
ATOM      5  N   UNL     1       2.956   4.507  18.166  0.00  0.00    +0.000 N 
ATOM      6  C   UNL     1       1.928   3.753  17.614  0.00  0.00    +0.000 C 
ATOM      7  O   UNL     1       0.851   4.177  17.228  0.00  0.00    +0.000 OA
ATOM      8  C   UNL     1       2.338   2.304  17.635  0.00  0.00    +0.000 C 
ATOM      9  C   UNL     1       3.837   2.361  17.887  0.00  0.00    +0.000 C 
ATOM     10  C   UNL     1       4.049   3.669  18.645  0.00  0.00    +0.000 C 
BRANCH   5  12
ATOM     11  C   UNL     1       2.223   6.016  20.006  0.00  0.00    +0.000 C 
ATOM     12  C   UNL     1       2.772   5.889  18.597  0.00  0.00    +0.000 C 
ENDBRANCH   5  12
ENDBRANCH   1  10
BRANCH   3  13
ATOM     13  C   UNL     1       7.058   4.679  16.502  0.00  0.00    +0.000 C 
BRANCH  13  14
ATOM     14  C   UNL     1       7.097   4.663  14.992  0.00  0.00    +0.000 A 
ATOM     15  C   UNL     1       8.106   5.344  14.295  0.00  0.00    +0.000 A 
ATOM     16  C   UNL     1       8.118   5.354  12.901  0.00  0.00    +0.000 A 
ATOM     17  C   UNL     1       7.131   4.675  12.191  0.00  0.00    +0.000 A 
ATOM     18  F   UNL     1       7.169   4.722  10.853  0.00  0.00    +0.000 F 
ATOM     19  C   UNL     1       6.126   3.968  12.847  0.00  0.00    +0.000 A 
ATOM     20  C   UNL     1       6.123   3.964  14.257  0.00  0.00    +0.000 A 
BRANCH  19  21
ATOM     21  C   UNL     1       5.068   3.232  12.080  0.00  0.00    +0.000 C 
ATOM     22  F   UNL     1       3.922   2.979  12.766  0.00  0.00    +0.000 F 
ATOM     23  F   UNL     1       4.682   3.917  10.963  0.00  0.00    +0.000 F 
ATOM     24  F   UNL     1       5.506   2.023  11.633  0.00  0.00    +0.000 F 
ENDBRANCH  19  21
ENDBRANCH  13  14
ENDBRANCH   3  13
TORSDOF 5
ENDMDL
MODEL 9
REMARK VINA RESULT:      -7.2      4.139      7.058
REMARK  Name = 
REMARK  6 active torsions:
REMARK  status: ('A' for Active; 'I' for Inactive)
REMARK    1  A    between atoms: C_1  and  C_2
REMARK    2  A    between atoms: C_2  and  N_3
REMARK    3  A    between atoms: C_8  and  C_9
REMARK    4  A    between atoms: N_11  and  C_12
REMARK    5  A    between atoms: C_12  and  C_13
REMARK    6  A    between atoms: C_18  and  C_19
REMARK                            x       y       z     vdW  Elec       q    Type
REMARK                         _______ _______ _______ _____ _____    ______ ____
ROOT
ATOM      1  C   UNL     1       1.634   9.409  18.084  0.00  0.00    +0.000 C 
ATOM      2  O   UNL     1       2.354  10.213  17.497  0.00  0.00    +0.000 OA
ATOM      3  N   UNL     1       2.035   8.128  18.399  0.00  0.00    +0.000 N 
ATOM      4  H   UNL     1       1.373   7.535  18.888  0.00  0.00    +0.000 HD
ENDROOT
BRANCH   1  10
ATOM      5  N   UNL     1       0.226  11.209  19.106  0.00  0.00    +0.000 N 
ATOM      6  C   UNL     1      -0.982  11.812  18.776  0.00  0.00    +0.000 C 
ATOM      7  O   UNL     1      -1.337  12.934  19.097  0.00  0.00    +0.000 OA
ATOM      8  C   UNL     1      -1.815  10.819  18.011  0.00  0.00    +0.000 C 
ATOM      9  C   UNL     1      -0.813   9.749  17.607  0.00  0.00    +0.000 C 
ATOM     10  C   UNL     1       0.273   9.816  18.677  0.00  0.00    +0.000 C 
BRANCH   5  12
ATOM     11  C   UNL     1       1.966  12.920  19.603  0.00  0.00    +0.000 C 
ATOM     12  C   UNL     1       1.130  11.759  20.111  0.00  0.00    +0.000 C 
ENDBRANCH   5  12
ENDBRANCH   1  10
BRANCH   3  13
ATOM     13  C   UNL     1       3.269   7.552  17.924  0.00  0.00    +0.000 C 
BRANCH  13  14
ATOM     14  C   UNL     1       3.210   6.042  17.925  0.00  0.00    +0.000 A 
ATOM     15  C   UNL     1       4.097   5.292  17.139  0.00  0.00    +0.000 A 
ATOM     16  C   UNL     1       4.016   3.900  17.116  0.00  0.00    +0.000 A 
ATOM     17  C   UNL     1       3.058   3.246  17.887  0.00  0.00    +0.000 A 
ATOM     18  F   UNL     1       3.003   1.909  17.826  0.00  0.00    +0.000 F 
ATOM     19  C   UNL     1       2.175   3.955  18.698  0.00  0.00    +0.000 A 
ATOM     20  C   UNL     1       2.265   5.361  18.714  0.00  0.00    +0.000 A 
BRANCH  19  21
ATOM     21  C   UNL     1       1.149   3.247  19.532  0.00  0.00    +0.000 C 
ATOM     22  F   UNL     1       1.645   2.364  20.438  0.00  0.00    +0.000 F 
ATOM     23  F   UNL     1       0.390   4.124  20.253  0.00  0.00    +0.000 F 
ATOM     24  F   UNL     1       0.268   2.541  18.771  0.00  0.00    +0.000 F 
ENDBRANCH  19  21
ENDBRANCH  13  14
ENDBRANCH   3  13
TORSDOF 5
ENDMDL
