MODEL 1
REMARK VINA RESULT:      -9.0      0.000      0.000
REMARK  Name = 
REMARK  8 active torsions:
REMARK  status: ('A' for Active; 'I' for Inactive)
REMARK    1  A    between atoms: C_1  and  C_2
REMARK    2  A    between atoms: C_2  and  C_3
REMARK    3  A    between atoms: C_6  and  C_7
REMARK    4  A    between atoms: C_9  and  C_10
REMARK    5  A    between atoms: N_13  and  C_14
REMARK    6  A    between atoms: C_14  and  C_15
REMARK    7  A    between atoms: C_24  and  C_26
REMARK    8  A    between atoms: C_31  and  C_32
REMARK                            x       y       z     vdW  Elec       q    Type
REMARK                         _______ _______ _______ _____ _____    ______ ____
ROOT
ATOM      1  C   UNL     1       2.106   6.858  19.793  0.00  0.00    +0.000 A 
ATOM      2  C   UNL     1       1.543   7.421  20.963  0.00  0.00    +0.000 A 
ATOM      3  C   UNL     1       1.008   8.738  20.974  0.00  0.00    +0.000 A 
ATOM      4  C   UNL     1       1.031   9.475  19.796  0.00  0.00    +0.000 A 
ATOM      5  C   UNL     1       1.334   8.797  18.596  0.00  0.00    +0.000 A 
ATOM      6  C   UNL     1       1.880   7.509  18.581  0.00  0.00    +0.000 A 
ATOM      7  C   UNL     1       1.605   9.828  17.530  0.00  0.00    +0.000 C 
ATOM      8  C   UNL     1       2.429  10.720  18.444  0.00  0.00    +0.000 C 
ATOM      9  N   UNL     1       1.553  10.816  19.634  0.00  0.00    +0.000 N 
ATOM     10  C   UNL     1       0.949  12.073  19.788  0.00  0.00    +0.000 C 
ATOM     11  O   UNL     1       1.412  13.079  19.253  0.00  0.00    +0.000 OA
ENDROOT
BRANCH  10  12
ATOM     12  C   UNL     1      -0.268  12.238  20.576  0.00  0.00    +0.000 A 
ATOM     13  C   UNL     1      -0.118  12.775  21.860  0.00  0.00    +0.000 A 
ATOM     14  C   UNL     1      -1.198  12.798  22.735  0.00  0.00    +0.000 A 
ATOM     15  C   UNL     1      -2.436  12.333  22.309  0.00  0.00    +0.000 A 
ATOM     16  C   UNL     1      -2.616  11.920  20.982  0.00  0.00    +0.000 A 
ATOM     17  C   UNL     1      -1.542  11.895  20.076  0.00  0.00    +0.000 A 
BRANCH  17  18
ATOM     18  C   UNL     1      -1.812  11.492  18.693  0.00  0.00    +0.000 A 
ATOM     19  N   UNL     1      -2.144  10.215  18.300  0.00  0.00    +0.000 NA
ATOM     20  N   UNL     1      -2.233  10.223  16.980  0.00  0.00    +0.000 NA
ATOM     21  N   UNL     1      -1.930  11.475  16.629  0.00  0.00    +0.000 N 
ATOM     22  N   UNL     1      -1.626  12.307  17.636  0.00  0.00    +0.000 NA
ATOM     23  H   UNL     1      -1.916  11.768  15.664  0.00  0.00    +0.000 HD
ENDBRANCH  17  18
ENDBRANCH  10  12
BRANCH   1  24
ATOM     24  C   UNL     1       3.213   5.807  19.888  0.00  0.00    +0.000 C 
BRANCH  24  35
ATOM     25  C   UNL     1       2.885   4.323  17.844  0.00  0.00    +0.000 A 
ATOM     26  N   UNL     1       3.563   3.987  16.764  0.00  0.00    +0.000 NA
ATOM     27  C   UNL     1       4.708   4.730  16.795  0.00  0.00    +0.000 A 
ATOM     28  C   UNL     1       5.760   4.802  15.872  0.00  0.00    +0.000 A 
ATOM     29  C   UNL     1       5.844   3.945  14.648  0.00  0.00    +0.000 C 
ATOM     30  C   UNL     1       6.753   5.749  16.153  0.00  0.00    +0.000 A 
ATOM     31  C   UNL     1       6.670   6.545  17.302  0.00  0.00    +0.000 A 
ATOM     32  C   UNL     1       7.734   7.586  17.531  0.00  0.00    +0.000 C 
ATOM     33  N   UNL     1       5.686   6.456  18.242  0.00  0.00    +0.000 NA
ATOM     34  C   UNL     1       4.752   5.529  17.930  0.00  0.00    +0.000 A 
ATOM     35  N   UNL     1       3.633   5.169  18.654  0.00  0.00    +0.000 N 
BRANCH  25  37
ATOM     36  C   UNL     1       1.447   2.542  18.863  0.00  0.00    +0.000 C 
ATOM     37  C   UNL     1       1.489   3.849  18.095  0.00  0.00    +0.000 C 
ENDBRANCH  25  37
ENDBRANCH  24  35
ENDBRANCH   1  24
TORSDOF 5
ENDMDL
MODEL 2
REMARK VINA RESULT:      -8.7      2.511      9.062
REMARK  Name = 
REMARK  8 active torsions:
REMARK  status: ('A' for Active; 'I' for Inactive)
REMARK    1  A    between atoms: C_1  and  C_2
REMARK    2  A    between atoms: C_2  and  C_3
REMARK    3  A    between atoms: C_6  and  C_7
REMARK    4  A    between atoms: C_9  and  C_10
REMARK    5  A    between atoms: N_13  and  C_14
REMARK    6  A    between atoms: C_14  and  C_15
REMARK    7  A    between atoms: C_24  and  C_26
REMARK    8  A    between atoms: C_31  and  C_32
REMARK                            x       y       z     vdW  Elec       q    Type
REMARK                         _______ _______ _______ _____ _____    ______ ____
ROOT
ATOM      1  C   UNL     1       1.546   8.606  19.140  0.00  0.00    +0.000 A 
ATOM      2  C   UNL     1       2.630   8.865  18.266  0.00  0.00    +0.000 A 
ATOM      3  C   UNL     1       3.504   7.830  17.834  0.00  0.00    +0.000 A 
ATOM      4  C   UNL     1       3.267   6.533  18.275  0.00  0.00    +0.000 A 
ATOM      5  C   UNL     1       2.035   6.261  18.904  0.00  0.00    +0.000 A 
ATOM      6  C   UNL     1       1.182   7.276  19.351  0.00  0.00    +0.000 A 
ATOM      7  C   UNL     1       2.132   4.908  19.561  0.00  0.00    +0.000 C 
ATOM      8  C   UNL     1       3.533   5.146  20.102  0.00  0.00    +0.000 C 
ATOM      9  N   UNL     1       4.232   5.651  18.899  0.00  0.00    +0.000 N 
ATOM     10  C   UNL     1       5.145   4.737  18.352  0.00  0.00    +0.000 C 
ATOM     11  O   UNL     1       5.608   3.814  19.020  0.00  0.00    +0.000 OA
ENDROOT
BRANCH  10  12
ATOM     12  C   UNL     1       5.569   4.830  16.959  0.00  0.00    +0.000 A 
ATOM     13  C   UNL     1       4.858   4.059  16.033  0.00  0.00    +0.000 A 
ATOM     14  C   UNL     1       5.310   3.954  14.722  0.00  0.00    +0.000 A 
ATOM     15  C   UNL     1       6.441   4.659  14.328  0.00  0.00    +0.000 A 
ATOM     16  C   UNL     1       7.073   5.534  15.221  0.00  0.00    +0.000 A 
ATOM     17  C   UNL     1       6.631   5.664  16.548  0.00  0.00    +0.000 A 
BRANCH  17  18
ATOM     18  C   UNL     1       7.314   6.629  17.414  0.00  0.00    +0.000 A 
ATOM     19  N   UNL     1       7.504   7.958  17.110  0.00  0.00    +0.000 NA
ATOM     20  N   UNL     1       8.221   8.485  18.087  0.00  0.00    +0.000 NA
ATOM     21  N   UNL     1       8.459   7.467  18.919  0.00  0.00    +0.000 N 
ATOM     22  N   UNL     1       7.954   6.281  18.547  0.00  0.00    +0.000 NA
ATOM     23  H   UNL     1       8.997   7.584  19.762  0.00  0.00    +0.000 HD
ENDBRANCH  17  18
ENDBRANCH  10  12
BRANCH   1  24
ATOM     24  C   UNL     1       1.038   9.686  20.095  0.00  0.00    +0.000 C 
BRANCH  24  35
ATOM     25  C   UNL     1      -0.593  11.159  18.806  0.00  0.00    +0.000 A 
ATOM     26  N   UNL     1      -0.710  12.432  18.483  0.00  0.00    +0.000 NA
ATOM     27  C   UNL     1       0.326  13.072  19.100  0.00  0.00    +0.000 A 
ATOM     28  C   UNL     1       0.653  14.435  19.130  0.00  0.00    +0.000 A 
ATOM     29  C   UNL     1      -0.093  15.478  18.361  0.00  0.00    +0.000 C 
ATOM     30  C   UNL     1       1.736  14.782  19.946  0.00  0.00    +0.000 A 
ATOM     31  C   UNL     1       2.433  13.799  20.660  0.00  0.00    +0.000 A 
ATOM     32  C   UNL     1       3.555  14.231  21.566  0.00  0.00    +0.000 C 
ATOM     33  N   UNL     1       2.168  12.463  20.604  0.00  0.00    +0.000 NA
ATOM     34  C   UNL     1       1.117  12.173  19.804  0.00  0.00    +0.000 A 
ATOM     35  N   UNL     1       0.586  10.934  19.509  0.00  0.00    +0.000 N 
BRANCH  25  37
ATOM     36  C   UNL     1      -1.879  10.044  16.969  0.00  0.00    +0.000 C 
ATOM     37  C   UNL     1      -1.635  10.144  18.462  0.00  0.00    +0.000 C 
ENDBRANCH  25  37
ENDBRANCH  24  35
ENDBRANCH   1  24
TORSDOF 5
ENDMDL
MODEL 3
REMARK VINA RESULT:      -8.0      2.598      4.175
REMARK  Name = 
REMARK  8 active torsions:
REMARK  status: ('A' for Active; 'I' for Inactive)
REMARK    1  A    between atoms: C_1  and  C_2
REMARK    2  A    between atoms: C_2  and  C_3
REMARK    3  A    between atoms: C_6  and  C_7
REMARK    4  A    between atoms: C_9  and  C_10
REMARK    5  A    between atoms: N_13  and  C_14
REMARK    6  A    between atoms: C_14  and  C_15
REMARK    7  A    between atoms: C_24  and  C_26
REMARK    8  A    between atoms: C_31  and  C_32
REMARK                            x       y       z     vdW  Elec       q    Type
REMARK                         _______ _______ _______ _____ _____    ______ ____
ROOT
ATOM      1  C   UNL     1       0.531   8.738  21.186  0.00  0.00    +0.000 A 
ATOM      2  C   UNL     1       0.091   9.249  22.431  0.00  0.00    +0.000 A 
ATOM      3  C   UNL     1      -0.732  10.405  22.513  0.00  0.00    +0.000 A 
ATOM      4  C   UNL     1      -1.121  11.030  21.334  0.00  0.00    +0.000 A 
ATOM      5  C   UNL     1      -0.907  10.345  20.119  0.00  0.00    +0.000 A 
ATOM      6  C   UNL     1      -0.080   9.220  20.029  0.00  0.00    +0.000 A 
ATOM      7  C   UNL     1      -1.108  11.321  18.988  0.00  0.00    +0.000 C 
ATOM      8  C   UNL     1      -0.360  12.449  19.679  0.00  0.00    +0.000 C 
ATOM      9  N   UNL     1      -0.981  12.438  21.023  0.00  0.00    +0.000 N 
ATOM     10  C   UNL     1      -1.827  13.531  21.262  0.00  0.00    +0.000 C 
ATOM     11  O   UNL     1      -1.735  14.569  20.610  0.00  0.00    +0.000 OA
ENDROOT
BRANCH  10  12
ATOM     12  C   UNL     1      -2.868  13.475  22.283  0.00  0.00    +0.000 A 
ATOM     13  C   UNL     1      -2.470  13.728  23.601  0.00  0.00    +0.000 A 
ATOM     14  C   UNL     1      -3.360  13.520  24.648  0.00  0.00    +0.000 A 
ATOM     15  C   UNL     1      -4.659  13.111  24.374  0.00  0.00    +0.000 A 
ATOM     16  C   UNL     1      -5.094  12.988  23.048  0.00  0.00    +0.000 A 
ATOM     17  C   UNL     1      -4.216  13.200  21.971  0.00  0.00    +0.000 A 
BRANCH  17  18
ATOM     18  C   UNL     1      -4.750  13.095  20.611  0.00  0.00    +0.000 A 
ATOM     19  N   UNL     1      -4.514  12.042  19.755  0.00  0.00    +0.000 NA
ATOM     20  N   UNL     1      -5.091  12.337  18.603  0.00  0.00    +0.000 NA
ATOM     21  N   UNL     1      -5.622  13.548  18.791  0.00  0.00    +0.000 N 
ATOM     22  N   UNL     1      -5.422  14.091  20.001  0.00  0.00    +0.000 NA
ATOM     23  H   UNL     1      -6.128  14.026  18.062  0.00  0.00    +0.000 HD
ENDBRANCH  17  18
ENDBRANCH  10  12
BRANCH   1  24
ATOM     24  C   UNL     1       1.855   7.980  21.078  0.00  0.00    +0.000 C 
BRANCH  24  35
ATOM     25  C   UNL     1       2.501   7.399  18.683  0.00  0.00    +0.000 A 
ATOM     26  N   UNL     1       2.582   6.320  17.930  0.00  0.00    +0.000 NA
ATOM     27  C   UNL     1       2.288   5.268  18.750  0.00  0.00    +0.000 A 
ATOM     28  C   UNL     1       2.271   3.894  18.480  0.00  0.00    +0.000 A 
ATOM     29  C   UNL     1       2.510   3.317  17.121  0.00  0.00    +0.000 C 
ATOM     30  C   UNL     1       2.023   3.061  19.578  0.00  0.00    +0.000 A 
ATOM     31  C   UNL     1       1.796   3.608  20.848  0.00  0.00    +0.000 A 
ATOM     32  C   UNL     1       1.588   2.668  22.006  0.00  0.00    +0.000 C 
ATOM     33  N   UNL     1       1.753   4.942  21.124  0.00  0.00    +0.000 NA
ATOM     34  C   UNL     1       1.996   5.707  20.036  0.00  0.00    +0.000 A 
ATOM     35  N   UNL     1       2.020   7.084  19.949  0.00  0.00    +0.000 N 
BRANCH  25  37
ATOM     36  C   UNL     1       1.768   9.518  17.565  0.00  0.00    +0.000 C 
ATOM     37  C   UNL     1       2.914   8.751  18.196  0.00  0.00    +0.000 C 
ENDBRANCH  25  37
ENDBRANCH  24  35
ENDBRANCH   1  24
TORSDOF 5
ENDMDL
MODEL 4
REMARK VINA RESULT:      -8.0      2.614      9.250
REMARK  Name = 
REMARK  8 active torsions:
REMARK  status: ('A' for Active; 'I' for Inactive)
REMARK    1  A    between atoms: C_1  and  C_2
REMARK    2  A    between atoms: C_2  and  C_3
REMARK    3  A    between atoms: C_6  and  C_7
REMARK    4  A    between atoms: C_9  and  C_10
REMARK    5  A    between atoms: N_13  and  C_14
REMARK    6  A    between atoms: C_14  and  C_15
REMARK    7  A    between atoms: C_24  and  C_26
REMARK    8  A    between atoms: C_31  and  C_32
REMARK                            x       y       z     vdW  Elec       q    Type
REMARK                         _______ _______ _______ _____ _____    ______ ____
ROOT
ATOM      1  C   UNL     1       1.742   8.585  18.581  0.00  0.00    +0.000 A 
ATOM      2  C   UNL     1       3.035   8.754  18.029  0.00  0.00    +0.000 A 
ATOM      3  C   UNL     1       3.793   7.649  17.552  0.00  0.00    +0.000 A 
ATOM      4  C   UNL     1       3.232   6.379  17.621  0.00  0.00    +0.000 A 
ATOM      5  C   UNL     1       1.854   6.277  17.908  0.00  0.00    +0.000 A 
ATOM      6  C   UNL     1       1.110   7.356  18.398  0.00  0.00    +0.000 A 
ATOM      7  C   UNL     1       1.548   4.839  18.237  0.00  0.00    +0.000 C 
ATOM      8  C   UNL     1       2.794   4.651  19.089  0.00  0.00    +0.000 C 
ATOM      9  N   UNL     1       3.844   5.203  18.204  0.00  0.00    +0.000 N 
ATOM     10  C   UNL     1       4.688   4.226  17.654  0.00  0.00    +0.000 C 
ATOM     11  O   UNL     1       4.803   3.114  18.167  0.00  0.00    +0.000 OA
ENDROOT
BRANCH  10  12
ATOM     12  C   UNL     1       5.450   4.480  16.436  0.00  0.00    +0.000 A 
ATOM     13  C   UNL     1       4.810   4.197  15.224  0.00  0.00    +0.000 A 
ATOM     14  C   UNL     1       5.526   4.242  14.032  0.00  0.00    +0.000 A 
ATOM     15  C   UNL     1       6.863   4.619  14.049  0.00  0.00    +0.000 A 
ATOM     16  C   UNL     1       7.464   5.031  15.245  0.00  0.00    +0.000 A 
ATOM     17  C   UNL     1       6.760   5.002  16.461  0.00  0.00    +0.000 A 
BRANCH  17  18
ATOM     18  C   UNL     1       7.439   5.487  17.666  0.00  0.00    +0.000 A 
ATOM     19  N   UNL     1       7.768   4.703  18.749  0.00  0.00    +0.000 NA
ATOM     20  N   UNL     1       8.293   5.501  19.664  0.00  0.00    +0.000 NA
ATOM     21  N   UNL     1       8.237   6.720  19.122  0.00  0.00    +0.000 N 
ATOM     22  N   UNL     1       7.690   6.790  17.899  0.00  0.00    +0.000 NA
ATOM     23  H   UNL     1       8.572   7.535  19.611  0.00  0.00    +0.000 HD
ENDBRANCH  17  18
ENDBRANCH  10  12
BRANCH   1  24
ATOM     24  C   UNL     1       1.214   9.554  19.640  0.00  0.00    +0.000 C 
BRANCH  24  35
ATOM     25  C   UNL     1      -0.571  11.024  18.571  0.00  0.00    +0.000 A 
ATOM     26  N   UNL     1      -0.771  12.307  18.347  0.00  0.00    +0.000 NA
ATOM     27  C   UNL     1       0.276  12.957  18.935  0.00  0.00    +0.000 A 
ATOM     28  C   UNL     1       0.540  14.330  19.039  0.00  0.00    +0.000 A 
ATOM     29  C   UNL     1      -0.306  15.383  18.398  0.00  0.00    +0.000 C 
ATOM     30  C   UNL     1       1.661  14.678  19.803  0.00  0.00    +0.000 A 
ATOM     31  C   UNL     1       2.452  13.686  20.397  0.00  0.00    +0.000 A 
ATOM     32  C   UNL     1       3.615  14.113  21.253  0.00  0.00    +0.000 C 
ATOM     33  N   UNL     1       2.247  12.344  20.265  0.00  0.00    +0.000 NA
ATOM     34  C   UNL     1       1.156  12.056  19.520  0.00  0.00    +0.000 A 
ATOM     35  N   UNL     1       0.663  10.813  19.175  0.00  0.00    +0.000 N 
BRANCH  25  37
ATOM     36  C   UNL     1      -2.022  10.048  16.777  0.00  0.00    +0.000 C 
ATOM     37  C   UNL     1      -1.587   9.981  18.228  0.00  0.00    +0.000 C 
ENDBRANCH  25  37
ENDBRANCH  24  35
ENDBRANCH   1  24
TORSDOF 5
ENDMDL
MODEL 5
REMARK VINA RESULT:      -7.7      2.047      3.915
REMARK  Name = 
REMARK  8 active torsions:
REMARK  status: ('A' for Active; 'I' for Inactive)
REMARK    1  A    between atoms: C_1  and  C_2
REMARK    2  A    between atoms: C_2  and  C_3
REMARK    3  A    between atoms: C_6  and  C_7
REMARK    4  A    between atoms: C_9  and  C_10
REMARK    5  A    between atoms: N_13  and  C_14
REMARK    6  A    between atoms: C_14  and  C_15
REMARK    7  A    between atoms: C_24  and  C_26
REMARK    8  A    between atoms: C_31  and  C_32
REMARK                            x       y       z     vdW  Elec       q    Type
REMARK                         _______ _______ _______ _____ _____    ______ ____
ROOT
ATOM      1  C   UNL     1       2.268   7.071  18.505  0.00  0.00    +0.000 A 
ATOM      2  C   UNL     1       1.883   8.194  17.732  0.00  0.00    +0.000 A 
ATOM      3  C   UNL     1       1.332   9.359  18.331  0.00  0.00    +0.000 A 
ATOM      4  C   UNL     1       1.188   9.391  19.713  0.00  0.00    +0.000 A 
ATOM      5  C   UNL     1       1.831   8.390  20.471  0.00  0.00    +0.000 A 
ATOM      6  C   UNL     1       2.356   7.231  19.888  0.00  0.00    +0.000 A 
ATOM      7  C   UNL     1       1.287   8.441  21.875  0.00  0.00    +0.000 C 
ATOM      8  C   UNL     1      -0.155   8.627  21.430  0.00  0.00    +0.000 C 
ATOM      9  N   UNL     1      -0.021   9.721  20.441  0.00  0.00    +0.000 N 
ATOM     10  C   UNL     1      -0.531  10.949  20.887  0.00  0.00    +0.000 C 
ATOM     11  O   UNL     1      -1.353  11.010  21.799  0.00  0.00    +0.000 OA
ENDROOT
BRANCH  10  12
ATOM     12  C   UNL     1      -0.092  12.211  20.300  0.00  0.00    +0.000 A 
ATOM     13  C   UNL     1       1.085  12.767  20.812  0.00  0.00    +0.000 A 
ATOM     14  C   UNL     1       1.472  14.047  20.433  0.00  0.00    +0.000 A 
ATOM     15  C   UNL     1       0.710  14.748  19.507  0.00  0.00    +0.000 A 
ATOM     16  C   UNL     1      -0.392  14.139  18.895  0.00  0.00    +0.000 A 
ATOM     17  C   UNL     1      -0.799  12.842  19.254  0.00  0.00    +0.000 A 
BRANCH  17  18
ATOM     18  C   UNL     1      -1.936  12.252  18.544  0.00  0.00    +0.000 A 
ATOM     19  N   UNL     1      -1.872  11.697  17.285  0.00  0.00    +0.000 NA
ATOM     20  N   UNL     1      -3.101  11.344  16.949  0.00  0.00    +0.000 NA
ATOM     21  N   UNL     1      -3.855  11.716  17.987  0.00  0.00    +0.000 N 
ATOM     22  N   UNL     1      -3.204  12.314  18.996  0.00  0.00    +0.000 NA
ATOM     23  H   UNL     1      -4.852  11.568  18.000  0.00  0.00    +0.000 HD
ENDBRANCH  17  18
ENDBRANCH  10  12
BRANCH   1  24
ATOM     24  C   UNL     1       2.226   5.663  17.911  0.00  0.00    +0.000 C 
BRANCH  24  35
ATOM     25  C   UNL     1       4.553   4.643  18.100  0.00  0.00    +0.000 A 
ATOM     26  N   UNL     1       5.144   3.684  18.785  0.00  0.00    +0.000 NA
ATOM     27  C   UNL     1       4.201   3.206  19.650  0.00  0.00    +0.000 A 
ATOM     28  C   UNL     1       4.303   2.216  20.636  0.00  0.00    +0.000 A 
ATOM     29  C   UNL     1       5.537   1.401  20.862  0.00  0.00    +0.000 C 
ATOM     30  C   UNL     1       3.165   2.028  21.430  0.00  0.00    +0.000 A 
ATOM     31  C   UNL     1       2.011   2.792  21.210  0.00  0.00    +0.000 A 
ATOM     32  C   UNL     1       0.833   2.590  22.126  0.00  0.00    +0.000 C 
ATOM     33  N   UNL     1       1.870   3.721  20.223  0.00  0.00    +0.000 NA
ATOM     34  C   UNL     1       2.991   3.868  19.481  0.00  0.00    +0.000 A 
ATOM     35  N   UNL     1       3.198   4.704  18.403  0.00  0.00    +0.000 N 
BRANCH  25  37
ATOM     36  C   UNL     1       5.278   5.021  15.732  0.00  0.00    +0.000 C 
ATOM     37  C   UNL     1       5.299   5.534  17.159  0.00  0.00    +0.000 C 
ENDBRANCH  25  37
ENDBRANCH  24  35
ENDBRANCH   1  24
TORSDOF 5
ENDMDL
MODEL 6
REMARK VINA RESULT:      -7.6      2.314      9.074
REMARK  Name = 
REMARK  8 active torsions:
REMARK  status: ('A' for Active; 'I' for Inactive)
REMARK    1  A    between atoms: C_1  and  C_2
REMARK    2  A    between atoms: C_2  and  C_3
REMARK    3  A    between atoms: C_6  and  C_7
REMARK    4  A    between atoms: C_9  and  C_10
REMARK    5  A    between atoms: N_13  and  C_14
REMARK    6  A    between atoms: C_14  and  C_15
REMARK    7  A    between atoms: C_24  and  C_26
REMARK    8  A    between atoms: C_31  and  C_32
REMARK                            x       y       z     vdW  Elec       q    Type
REMARK                         _______ _______ _______ _____ _____    ______ ____
ROOT
ATOM      1  C   UNL     1       1.130   9.765  18.603  0.00  0.00    +0.000 A 
ATOM      2  C   UNL     1       2.226   9.626  17.717  0.00  0.00    +0.000 A 
ATOM      3  C   UNL     1       2.979   8.422  17.647  0.00  0.00    +0.000 A 
ATOM      4  C   UNL     1       2.610   7.358  18.462  0.00  0.00    +0.000 A 
ATOM      5  C   UNL     1       1.362   7.425  19.116  0.00  0.00    +0.000 A 
ATOM      6  C   UNL     1       0.628   8.613  19.207  0.00  0.00    +0.000 A 
ATOM      7  C   UNL     1       1.321   6.341  20.161  0.00  0.00    +0.000 C 
ATOM      8  C   UNL     1       2.745   6.585  20.633  0.00  0.00    +0.000 C 
ATOM      9  N   UNL     1       3.482   6.617  19.350  0.00  0.00    +0.000 N 
ATOM     10  C   UNL     1       4.285   5.487  19.134  0.00  0.00    +0.000 C 
ATOM     11  O   UNL     1       4.654   4.773  20.065  0.00  0.00    +0.000 OA
ENDROOT
BRANCH  10  12
ATOM     12  C   UNL     1       4.702   5.098  17.791  0.00  0.00    +0.000 A 
ATOM     13  C   UNL     1       5.842   5.728  17.280  0.00  0.00    +0.000 A 
ATOM     14  C   UNL     1       6.199   5.547  15.948  0.00  0.00    +0.000 A 
ATOM     15  C   UNL     1       5.448   4.697  15.146  0.00  0.00    +0.000 A 
ATOM     16  C   UNL     1       4.387   3.964  15.695  0.00  0.00    +0.000 A 
ATOM     17  C   UNL     1       4.011   4.124  17.039  0.00  0.00    +0.000 A 
BRANCH  17  18
ATOM     18  C   UNL     1       2.920   3.295  17.556  0.00  0.00    +0.000 A 
ATOM     19  N   UNL     1       1.606   3.698  17.652  0.00  0.00    +0.000 NA
ATOM     20  N   UNL     1       0.937   2.717  18.233  0.00  0.00    +0.000 NA
ATOM     21  N   UNL     1       1.858   1.784  18.488  0.00  0.00    +0.000 N 
ATOM     22  N   UNL     1       3.113   2.089  18.126  0.00  0.00    +0.000 NA
ATOM     23  H   UNL     1       1.623   0.914  18.939  0.00  0.00    +0.000 HD
ENDBRANCH  17  18
ENDBRANCH  10  12
BRANCH   1  24
ATOM     24  C   UNL     1       0.751  11.136  19.166  0.00  0.00    +0.000 C 
BRANCH  24  35
ATOM     25  C   UNL     1      -1.212  12.059  20.502  0.00  0.00    +0.000 A 
ATOM     26  N   UNL     1      -2.519  12.161  20.369  0.00  0.00    +0.000 NA
ATOM     27  C   UNL     1      -2.808  11.678  19.124  0.00  0.00    +0.000 A 
ATOM     28  C   UNL     1      -4.035  11.595  18.453  0.00  0.00    +0.000 A 
ATOM     29  C   UNL     1      -5.342  11.973  19.074  0.00  0.00    +0.000 C 
ATOM     30  C   UNL     1      -3.976  11.135  17.132  0.00  0.00    +0.000 A 
ATOM     31  C   UNL     1      -2.749  10.778  16.558  0.00  0.00    +0.000 A 
ATOM     32  C   UNL     1      -2.731  10.342  15.117  0.00  0.00    +0.000 C 
ATOM     33  N   UNL     1      -1.550  10.799  17.208  0.00  0.00    +0.000 NA
ATOM     34  C   UNL     1      -1.656  11.246  18.479  0.00  0.00    +0.000 A 
ATOM     35  N   UNL     1      -0.656  11.386  19.420  0.00  0.00    +0.000 N 
BRANCH  25  37
ATOM     36  C   UNL     1      -1.258  12.524  22.963  0.00  0.00    +0.000 C 
ATOM     37  C   UNL     1      -0.476  12.636  21.669  0.00  0.00    +0.000 C 
ENDBRANCH  25  37
ENDBRANCH  24  35
ENDBRANCH   1  24
TORSDOF 5
ENDMDL
MODEL 7
REMARK VINA RESULT:      -7.6      1.513      2.373
REMARK  Name = 
REMARK  8 active torsions:
REMARK  status: ('A' for Active; 'I' for Inactive)
REMARK    1  A    between atoms: C_1  and  C_2
REMARK    2  A    between atoms: C_2  and  C_3
REMARK    3  A    between atoms: C_6  and  C_7
REMARK    4  A    between atoms: C_9  and  C_10
REMARK    5  A    between atoms: N_13  and  C_14
REMARK    6  A    between atoms: C_14  and  C_15
REMARK    7  A    between atoms: C_24  and  C_26
REMARK    8  A    between atoms: C_31  and  C_32
REMARK                            x       y       z     vdW  Elec       q    Type
REMARK                         _______ _______ _______ _____ _____    ______ ____
ROOT
ATOM      1  C   UNL     1       2.492   6.769  20.151  0.00  0.00    +0.000 A 
ATOM      2  C   UNL     1       2.207   7.563  19.012  0.00  0.00    +0.000 A 
ATOM      3  C   UNL     1       1.518   8.801  19.120  0.00  0.00    +0.000 A 
ATOM      4  C   UNL     1       1.133   9.241  20.381  0.00  0.00    +0.000 A 
ATOM      5  C   UNL     1       1.671   8.581  21.506  0.00  0.00    +0.000 A 
ATOM      6  C   UNL     1       2.331   7.351  21.408  0.00  0.00    +0.000 A 
ATOM      7  C   UNL     1       0.888   9.009  22.721  0.00  0.00    +0.000 C 
ATOM      8  C   UNL     1      -0.459   8.921  22.022  0.00  0.00    +0.000 C 
ATOM      9  N   UNL     1      -0.195   9.668  20.772  0.00  0.00    +0.000 N 
ATOM     10  C   UNL     1      -0.819  10.923  20.722  0.00  0.00    +0.000 C 
ATOM     11  O   UNL     1      -1.789  11.186  21.430  0.00  0.00    +0.000 OA
ENDROOT
BRANCH  10  12
ATOM     12  C   UNL     1      -0.331  11.979  19.841  0.00  0.00    +0.000 A 
ATOM     13  C   UNL     1       0.737  12.749  20.315  0.00  0.00    +0.000 A 
ATOM     14  C   UNL     1       1.142  13.882  19.618  0.00  0.00    +0.000 A 
ATOM     15  C   UNL     1       0.513  14.213  18.424  0.00  0.00    +0.000 A 
ATOM     16  C   UNL     1      -0.465  13.368  17.883  0.00  0.00    +0.000 A 
ATOM     17  C   UNL     1      -0.886  12.213  18.565  0.00  0.00    +0.000 A 
BRANCH  17  18
ATOM     18  C   UNL     1      -1.882  11.354  17.921  0.00  0.00    +0.000 A 
ATOM     19  N   UNL     1      -3.244  11.555  17.975  0.00  0.00    +0.000 NA
ATOM     20  N   UNL     1      -3.815  10.540  17.348  0.00  0.00    +0.000 NA
ATOM     21  N   UNL     1      -2.798   9.762  16.968  0.00  0.00    +0.000 N 
ATOM     22  N   UNL     1      -1.575  10.188  17.318  0.00  0.00    +0.000 NA
ATOM     23  H   UNL     1      -2.946   8.902  16.464  0.00  0.00    +0.000 HD
ENDBRANCH  17  18
ENDBRANCH  10  12
BRANCH   1  24
ATOM     24  C   UNL     1       2.606   5.249  20.033  0.00  0.00    +0.000 C 
BRANCH  24  35
ATOM     25  C   UNL     1       2.530   4.162  17.730  0.00  0.00    +0.000 A 
ATOM     26  N   UNL     1       3.379   3.850  16.771  0.00  0.00    +0.000 NA
ATOM     27  C   UNL     1       4.591   4.334  17.173  0.00  0.00    +0.000 A 
ATOM     28  C   UNL     1       5.829   4.320  16.515  0.00  0.00    +0.000 A 
ATOM     29  C   UNL     1       6.057   3.642  15.201  0.00  0.00    +0.000 C 
ATOM     30  C   UNL     1       6.869   4.997  17.163  0.00  0.00    +0.000 A 
ATOM     31  C   UNL     1       6.650   5.625  18.396  0.00  0.00    +0.000 A 
ATOM     32  C   UNL     1       7.786   6.386  19.024  0.00  0.00    +0.000 C 
ATOM     33  N   UNL     1       5.470   5.606  19.079  0.00  0.00    +0.000 NA
ATOM     34  C   UNL     1       4.496   4.941  18.419  0.00  0.00    +0.000 A 
ATOM     35  N   UNL     1       3.194   4.717  18.818  0.00  0.00    +0.000 N 
BRANCH  25  37
ATOM     36  C   UNL     1       0.535   2.875  18.531  0.00  0.00    +0.000 C 
ATOM     37  C   UNL     1       1.055   3.950  17.597  0.00  0.00    +0.000 C 
ENDBRANCH  25  37
ENDBRANCH  24  35
ENDBRANCH   1  24
TORSDOF 5
ENDMDL
MODEL 8
REMARK VINA RESULT:      -7.5      1.631      3.421
REMARK  Name = 
REMARK  8 active torsions:
REMARK  status: ('A' for Active; 'I' for Inactive)
REMARK    1  A    between atoms: C_1  and  C_2
REMARK    2  A    between atoms: C_2  and  C_3
REMARK    3  A    between atoms: C_6  and  C_7
REMARK    4  A    between atoms: C_9  and  C_10
REMARK    5  A    between atoms: N_13  and  C_14
REMARK    6  A    between atoms: C_14  and  C_15
REMARK    7  A    between atoms: C_24  and  C_26
REMARK    8  A    between atoms: C_31  and  C_32
REMARK                            x       y       z     vdW  Elec       q    Type
REMARK                         _______ _______ _______ _____ _____    ______ ____
ROOT
ATOM      1  C   UNL     1       1.553   8.272  20.194  0.00  0.00    +0.000 A 
ATOM      2  C   UNL     1       0.599   8.438  21.227  0.00  0.00    +0.000 A 
ATOM      3  C   UNL     1      -0.039   9.687  21.460  0.00  0.00    +0.000 A 
ATOM      4  C   UNL     1       0.279  10.760  20.636  0.00  0.00    +0.000 A 
ATOM      5  C   UNL     1       1.007  10.498  19.457  0.00  0.00    +0.000 A 
ATOM      6  C   UNL     1       1.655   9.278  19.233  0.00  0.00    +0.000 A 
ATOM      7  C   UNL     1       1.496  11.812  18.905  0.00  0.00    +0.000 C 
ATOM      8  C   UNL     1       1.900  12.361  20.263  0.00  0.00    +0.000 C 
ATOM      9  N   UNL     1       0.691  12.080  21.069  0.00  0.00    +0.000 N 
ATOM     10  C   UNL     1      -0.051  13.226  21.391  0.00  0.00    +0.000 C 
ATOM     11  O   UNL     1       0.455  14.346  21.368  0.00  0.00    +0.000 OA
ENDROOT
BRANCH  10  12
ATOM     12  C   UNL     1      -1.464  13.140  21.746  0.00  0.00    +0.000 A 
ATOM     13  C   UNL     1      -1.806  13.501  23.054  0.00  0.00    +0.000 A 
ATOM     14  C   UNL     1      -3.096  13.278  23.522  0.00  0.00    +0.000 A 
ATOM     15  C   UNL     1      -4.053  12.743  22.668  0.00  0.00    +0.000 A 
ATOM     16  C   UNL     1      -3.744  12.507  21.323  0.00  0.00    +0.000 A 
ATOM     17  C   UNL     1      -2.450  12.732  20.823  0.00  0.00    +0.000 A 
BRANCH  17  18
ATOM     18  C   UNL     1      -2.210  12.503  19.396  0.00  0.00    +0.000 A 
ATOM     19  N   UNL     1      -2.642  11.399  18.695  0.00  0.00    +0.000 NA
ATOM     20  N   UNL     1      -2.172  11.508  17.464  0.00  0.00    +0.000 NA
ATOM     21  N   UNL     1      -1.462  12.639  17.472  0.00  0.00    +0.000 N 
ATOM     22  N   UNL     1      -1.415  13.290  18.644  0.00  0.00    +0.000 NA
ATOM     23  H   UNL     1      -0.980  12.970  16.651  0.00  0.00    +0.000 HD
ENDBRANCH  17  18
ENDBRANCH  10  12
BRANCH   1  24
ATOM     24  C   UNL     1       2.672   7.239  20.324  0.00  0.00    +0.000 C 
BRANCH  24  35
ATOM     25  C   UNL     1       3.230   6.078  18.126  0.00  0.00    +0.000 A 
ATOM     26  N   UNL     1       3.089   4.880  17.593  0.00  0.00    +0.000 NA
ATOM     27  C   UNL     1       2.551   4.096  18.573  0.00  0.00    +0.000 A 
ATOM     28  C   UNL     1       2.238   2.730  18.562  0.00  0.00    +0.000 A 
ATOM     29  C   UNL     1       2.376   1.862  17.351  0.00  0.00    +0.000 C 
ATOM     30  C   UNL     1       1.786   2.200  19.776  0.00  0.00    +0.000 A 
ATOM     31  C   UNL     1       1.655   3.020  20.905  0.00  0.00    +0.000 A 
ATOM     32  C   UNL     1       1.218   2.390  22.201  0.00  0.00    +0.000 C 
ATOM     33  N   UNL     1       1.902   4.360  20.925  0.00  0.00    +0.000 NA
ATOM     34  C   UNL     1       2.333   4.828  19.732  0.00  0.00    +0.000 A 
ATOM     35  N   UNL     1       2.662   6.125  19.393  0.00  0.00    +0.000 N 
BRANCH  25  37
ATOM     36  C   UNL     1       4.984   6.686  16.443  0.00  0.00    +0.000 C 
ATOM     37  C   UNL     1       3.943   7.190  17.424  0.00  0.00    +0.000 C 
ENDBRANCH  25  37
ENDBRANCH  24  35
ENDBRANCH   1  24
TORSDOF 5
ENDMDL
MODEL 9
REMARK VINA RESULT:      -7.4      3.151      5.053
REMARK  Name = 
REMARK  8 active torsions:
REMARK  status: ('A' for Active; 'I' for Inactive)
REMARK    1  A    between atoms: C_1  and  C_2
REMARK    2  A    between atoms: C_2  and  C_3
REMARK    3  A    between atoms: C_6  and  C_7
REMARK    4  A    between atoms: C_9  and  C_10
REMARK    5  A    between atoms: N_13  and  C_14
REMARK    6  A    between atoms: C_14  and  C_15
REMARK    7  A    between atoms: C_24  and  C_26
REMARK    8  A    between atoms: C_31  and  C_32
REMARK                            x       y       z     vdW  Elec       q    Type
REMARK                         _______ _______ _______ _____ _____    ______ ____
ROOT
ATOM      1  C   UNL     1       0.520   8.805  21.236  0.00  0.00    +0.000 A 
ATOM      2  C   UNL     1       0.064   9.326  22.472  0.00  0.00    +0.000 A 
ATOM      3  C   UNL     1      -0.699  10.523  22.541  0.00  0.00    +0.000 A 
ATOM      4  C   UNL     1      -1.013  11.181  21.357  0.00  0.00    +0.000 A 
ATOM      5  C   UNL     1      -0.793  10.500  20.141  0.00  0.00    +0.000 A 
ATOM      6  C   UNL     1      -0.024   9.333  20.065  0.00  0.00    +0.000 A 
ATOM      7  C   UNL     1      -0.902  11.497  19.017  0.00  0.00    +0.000 C 
ATOM      8  C   UNL     1      -0.120  12.576  19.748  0.00  0.00    +0.000 C 
ATOM      9  N   UNL     1      -0.787  12.583  21.070  0.00  0.00    +0.000 N 
ATOM     10  C   UNL     1      -1.582  13.717  21.294  0.00  0.00    +0.000 C 
ATOM     11  O   UNL     1      -1.413  14.756  20.659  0.00  0.00    +0.000 OA
ENDROOT
BRANCH  10  12
ATOM     12  C   UNL     1      -2.660  13.705  22.278  0.00  0.00    +0.000 A 
ATOM     13  C   UNL     1      -3.681  12.770  22.081  0.00  0.00    +0.000 A 
ATOM     14  C   UNL     1      -4.827  12.814  22.868  0.00  0.00    +0.000 A 
ATOM     15  C   UNL     1      -4.926  13.758  23.881  0.00  0.00    +0.000 A 
ATOM     16  C   UNL     1      -3.847  14.606  24.164  0.00  0.00    +0.000 A 
ATOM     17  C   UNL     1      -2.676  14.576  23.389  0.00  0.00    +0.000 A 
BRANCH  17  18
ATOM     18  C   UNL     1      -1.572  15.462  23.767  0.00  0.00    +0.000 A 
ATOM     19  N   UNL     1      -0.580  15.138  24.666  0.00  0.00    +0.000 NA
ATOM     20  N   UNL     1       0.185  16.207  24.808  0.00  0.00    +0.000 NA
ATOM     21  N   UNL     1      -0.379  17.131  24.025  0.00  0.00    +0.000 N 
ATOM     22  N   UNL     1      -1.489  16.749  23.376  0.00  0.00    +0.000 NA
ATOM     23  H   UNL     1       0.000  18.062  23.942  0.00  0.00    +0.000 HD
ENDBRANCH  17  18
ENDBRANCH  10  12
BRANCH   1  24
ATOM     24  C   UNL     1       1.805   7.980  21.164  0.00  0.00    +0.000 C 
BRANCH  24  35
ATOM     25  C   UNL     1       2.449   7.449  18.757  0.00  0.00    +0.000 A 
ATOM     26  N   UNL     1       2.535   6.386  17.983  0.00  0.00    +0.000 NA
ATOM     27  C   UNL     1       2.247   5.316  18.782  0.00  0.00    +0.000 A 
ATOM     28  C   UNL     1       2.237   3.947  18.485  0.00  0.00    +0.000 A 
ATOM     29  C   UNL     1       2.476   3.399  17.114  0.00  0.00    +0.000 C 
ATOM     30  C   UNL     1       1.994   3.092  19.567  0.00  0.00    +0.000 A 
ATOM     31  C   UNL     1       1.767   3.612  20.848  0.00  0.00    +0.000 A 
ATOM     32  C   UNL     1       1.565   2.649  21.987  0.00  0.00    +0.000 C 
ATOM     33  N   UNL     1       1.718   4.941  21.150  0.00  0.00    +0.000 NA
ATOM     34  C   UNL     1       1.955   5.728  20.076  0.00  0.00    +0.000 A 
ATOM     35  N   UNL     1       1.972   7.107  20.017  0.00  0.00    +0.000 N 
BRANCH  25  37
ATOM     36  C   UNL     1       1.746   9.529  17.549  0.00  0.00    +0.000 C 
ATOM     37  C   UNL     1       2.855   8.813  18.296  0.00  0.00    +0.000 C 
ENDBRANCH  25  37
ENDBRANCH  24  35
ENDBRANCH   1  24
TORSDOF 5
ENDMDL
