MODEL 1
REMARK VINA RESULT:      -8.2      0.000      0.000
REMARK  Name = 
REMARK  7 active torsions:
REMARK  status: ('A' for Active; 'I' for Inactive)
REMARK    1  A    between atoms: C_1  and  C_2
REMARK    2  A    between atoms: C_2  and  C_3
REMARK    3  A    between atoms: C_3  and  N_4
REMARK    4  A    between atoms: C_5  and  C_7
REMARK    5  A    between atoms: C_12  and  N_13
REMARK    6  A    between atoms: C_14  and  C_16
REMARK    7  A    between atoms: C_20  and  N_21
REMARK                            x       y       z     vdW  Elec       q    Type
REMARK                         _______ _______ _______ _____ _____    ______ ____
ROOT
ATOM      1  N   UNL     1       2.197   5.743  18.129  0.00  0.00    +0.000 N 
ATOM      2  C   UNL     1       2.248   6.510  19.283  0.00  0.00    +0.000 C 
ATOM      3  O   UNL     1       2.631   6.083  20.370  0.00  0.00    +0.000 OA
ATOM      4  H   UNL     1       2.333   6.202  17.229  0.00  0.00    +0.000 HD
ENDROOT
BRANCH   1  10
ATOM      5  C   UNL     1       3.686   3.810  17.756  0.00  0.00    +0.000 A 
ATOM      6  C   UNL     1       3.903   2.422  17.807  0.00  0.00    +0.000 A 
ATOM      7  C   UNL     1       2.898   1.560  18.245  0.00  0.00    +0.000 A 
ATOM      8  C   UNL     1       1.663   2.078  18.620  0.00  0.00    +0.000 A 
ATOM      9  C   UNL     1       1.438   3.455  18.570  0.00  0.00    +0.000 A 
ATOM     10  C   UNL     1       2.443   4.342  18.150  0.00  0.00    +0.000 A 
BRANCH   5  12
ATOM     11  N   UNL     1       6.043   4.370  17.808  0.00  0.00    +0.000 N 
ATOM     12  C   UNL     1       4.796   4.701  17.324  0.00  0.00    +0.000 C 
ATOM     13  O   UNL     1       4.568   5.671  16.609  0.00  0.00    +0.000 OA
ATOM     14  H   UNL     1       6.097   3.762  18.617  0.00  0.00    +0.000 HD
BRANCH  11  15
ATOM     15  C   UNL     1       7.239   5.081  17.410  0.00  0.00    +0.000 C 
BRANCH  15  17
ATOM     16  C   UNL     1       7.773   7.552  17.742  0.00  0.00    +0.000 C 
ATOM     17  C   UNL     1       7.619   6.184  18.395  0.00  0.00    +0.000 C 
ENDBRANCH  15  17
ENDBRANCH  11  15
ENDBRANCH   5  12
ENDBRANCH   1  10
BRANCH   2  18
ATOM     18  C   UNL     1       1.869   7.950  19.198  0.00  0.00    +0.000 A 
ATOM     19  C   UNL     1       2.214   8.625  18.015  0.00  0.00    +0.000 A 
ATOM     20  C   UNL     1       1.985   9.990  17.876  0.00  0.00    +0.000 A 
ATOM     21  C   UNL     1       1.405  10.701  18.922  0.00  0.00    +0.000 A 
ATOM     22  C   UNL     1       1.052  10.046  20.115  0.00  0.00    +0.000 A 
ATOM     23  C   UNL     1       1.287   8.664  20.257  0.00  0.00    +0.000 A 
BRANCH  22  24
ATOM     24  N   UNL     1       0.471  10.809  21.159  0.00  0.00    +0.000 N 
ATOM     25  C   UNL     1      -0.341  10.415  22.189  0.00  0.00    +0.000 A 
ATOM     26  N   UNL     1      -0.656  11.456  22.924  0.00  0.00    +0.000 NA
ATOM     27  N   UNL     1      -0.028  12.525  22.339  0.00  0.00    +0.000 NA
ATOM     28  N   UNL     1       0.664  12.144  21.275  0.00  0.00    +0.000 NA
ENDBRANCH  22  24
ENDBRANCH   2  18
TORSDOF 6
ENDMDL
MODEL 2
REMARK VINA RESULT:      -8.1      2.272      3.901
REMARK  Name = 
REMARK  7 active torsions:
REMARK  status: ('A' for Active; 'I' for Inactive)
REMARK    1  A    between atoms: C_1  and  C_2
REMARK    2  A    between atoms: C_2  and  C_3
REMARK    3  A    between atoms: C_3  and  N_4
REMARK    4  A    between atoms: C_5  and  C_7
REMARK    5  A    between atoms: C_12  and  N_13
REMARK    6  A    between atoms: C_14  and  C_16
REMARK    7  A    between atoms: C_20  and  N_21
REMARK                            x       y       z     vdW  Elec       q    Type
REMARK                         _______ _______ _______ _____ _____    ______ ____
ROOT
ATOM      1  N   UNL     1       4.191   6.674  17.826  0.00  0.00    +0.000 N 
ATOM      2  C   UNL     1       2.834   6.582  18.093  0.00  0.00    +0.000 C 
ATOM      3  O   UNL     1       2.119   5.668  17.689  0.00  0.00    +0.000 OA
ATOM      4  H   UNL     1       4.797   7.126  18.511  0.00  0.00    +0.000 HD
ENDROOT
BRANCH   1  10
ATOM      5  C   UNL     1       5.210   4.485  17.316  0.00  0.00    +0.000 A 
ATOM      6  C   UNL     1       5.831   3.624  16.394  0.00  0.00    +0.000 A 
ATOM      7  C   UNL     1       6.084   4.043  15.088  0.00  0.00    +0.000 A 
ATOM      8  C   UNL     1       5.733   5.331  14.699  0.00  0.00    +0.000 A 
ATOM      9  C   UNL     1       5.119   6.194  15.609  0.00  0.00    +0.000 A 
ATOM     10  C   UNL     1       4.839   5.785  16.923  0.00  0.00    +0.000 A 
BRANCH   5  12
ATOM     11  N   UNL     1       3.750   3.269  18.820  0.00  0.00    +0.000 N 
ATOM     12  C   UNL     1       4.919   3.988  18.687  0.00  0.00    +0.000 C 
ATOM     13  O   UNL     1       5.678   4.249  19.614  0.00  0.00    +0.000 OA
ATOM     14  H   UNL     1       3.046   3.363  18.097  0.00  0.00    +0.000 HD
BRANCH  11  15
ATOM     15  C   UNL     1       3.368   2.640  20.066  0.00  0.00    +0.000 C 
BRANCH  15  17
ATOM     16  C   UNL     1       1.035   3.626  20.358  0.00  0.00    +0.000 C 
ATOM     17  C   UNL     1       2.451   3.524  20.909  0.00  0.00    +0.000 C 
ENDBRANCH  15  17
ENDBRANCH  11  15
ENDBRANCH   5  12
ENDBRANCH   1  10
BRANCH   2  18
ATOM     18  C   UNL     1       2.208   7.620  18.963  0.00  0.00    +0.000 A 
ATOM     19  C   UNL     1       1.923   7.246  20.288  0.00  0.00    +0.000 A 
ATOM     20  C   UNL     1       1.258   8.111  21.149  0.00  0.00    +0.000 A 
ATOM     21  C   UNL     1       0.867   9.368  20.697  0.00  0.00    +0.000 A 
ATOM     22  C   UNL     1       1.142   9.763  19.375  0.00  0.00    +0.000 A 
ATOM     23  C   UNL     1       1.812   8.885  18.502  0.00  0.00    +0.000 A 
BRANCH  22  24
ATOM     24  N   UNL     1       0.719  11.048  18.953  0.00  0.00    +0.000 N 
ATOM     25  C   UNL     1       1.445  12.194  18.762  0.00  0.00    +0.000 A 
ATOM     26  N   UNL     1       0.647  13.161  18.373  0.00  0.00    +0.000 NA
ATOM     27  N   UNL     1      -0.606  12.608  18.320  0.00  0.00    +0.000 NA
ATOM     28  N   UNL     1      -0.574  11.328  18.662  0.00  0.00    +0.000 NA
ENDBRANCH  22  24
ENDBRANCH   2  18
TORSDOF 6
ENDMDL
MODEL 3
REMARK VINA RESULT:      -8.0      2.063      3.515
REMARK  Name = 
REMARK  7 active torsions:
REMARK  status: ('A' for Active; 'I' for Inactive)
REMARK    1  A    between atoms: C_1  and  C_2
REMARK    2  A    between atoms: C_2  and  C_3
REMARK    3  A    between atoms: C_3  and  N_4
REMARK    4  A    between atoms: C_5  and  C_7
REMARK    5  A    between atoms: C_12  and  N_13
REMARK    6  A    between atoms: C_14  and  C_16
REMARK    7  A    between atoms: C_20  and  N_21
REMARK                            x       y       z     vdW  Elec       q    Type
REMARK                         _______ _______ _______ _____ _____    ______ ____
ROOT
ATOM      1  N   UNL     1       4.097   7.045  17.574  0.00  0.00    +0.000 N 
ATOM      2  C   UNL     1       2.746   6.968  17.875  0.00  0.00    +0.000 C 
ATOM      3  O   UNL     1       2.065   5.960  17.701  0.00  0.00    +0.000 OA
ATOM      4  H   UNL     1       4.689   7.664  18.128  0.00  0.00    +0.000 HD
ENDROOT
BRANCH   1  10
ATOM      5  C   UNL     1       5.038   4.764  17.517  0.00  0.00    +0.000 A 
ATOM      6  C   UNL     1       5.690   3.742  16.806  0.00  0.00    +0.000 A 
ATOM      7  C   UNL     1       6.081   3.933  15.481  0.00  0.00    +0.000 A 
ATOM      8  C   UNL     1       5.837   5.154  14.862  0.00  0.00    +0.000 A 
ATOM      9  C   UNL     1       5.191   6.176  15.561  0.00  0.00    +0.000 A 
ATOM     10  C   UNL     1       4.773   5.997  16.890  0.00  0.00    +0.000 A 
BRANCH   5  12
ATOM     11  N   UNL     1       3.706   3.470  19.073  0.00  0.00    +0.000 N 
ATOM     12  C   UNL     1       4.599   4.508  18.914  0.00  0.00    +0.000 C 
ATOM     13  O   UNL     1       5.005   5.216  19.830  0.00  0.00    +0.000 OA
ATOM     14  H   UNL     1       3.196   3.149  18.259  0.00  0.00    +0.000 HD
BRANCH  11  15
ATOM     15  C   UNL     1       3.253   3.035  20.377  0.00  0.00    +0.000 C 
BRANCH  15  17
ATOM     16  C   UNL     1       1.171   4.488  20.614  0.00  0.00    +0.000 C 
ATOM     17  C   UNL     1       1.732   3.075  20.510  0.00  0.00    +0.000 C 
ENDBRANCH  15  17
ENDBRANCH  11  15
ENDBRANCH   5  12
ENDBRANCH   1  10
BRANCH   2  18
ATOM     18  C   UNL     1       2.086   8.154  18.493  0.00  0.00    +0.000 A 
ATOM     19  C   UNL     1       1.959   9.298  17.687  0.00  0.00    +0.000 A 
ATOM     20  C   UNL     1       1.441  10.483  18.200  0.00  0.00    +0.000 A 
ATOM     21  C   UNL     1       1.040  10.539  19.532  0.00  0.00    +0.000 A 
ATOM     22  C   UNL     1       1.158   9.406  20.357  0.00  0.00    +0.000 A 
ATOM     23  C   UNL     1       1.686   8.208  19.838  0.00  0.00    +0.000 A 
BRANCH  22  24
ATOM     24  N   UNL     1       0.745   9.509  21.709  0.00  0.00    +0.000 N 
ATOM     25  C   UNL     1      -0.491   9.780  22.232  0.00  0.00    +0.000 A 
ATOM     26  N   UNL     1      -0.421   9.788  23.543  0.00  0.00    +0.000 NA
ATOM     27  N   UNL     1       0.889   9.518  23.846  0.00  0.00    +0.000 NA
ATOM     28  N   UNL     1       1.602   9.339  22.744  0.00  0.00    +0.000 NA
ENDBRANCH  22  24
ENDBRANCH   2  18
TORSDOF 6
ENDMDL
MODEL 4
REMARK VINA RESULT:      -7.8      2.538      8.049
REMARK  Name = 
REMARK  7 active torsions:
REMARK  status: ('A' for Active; 'I' for Inactive)
REMARK    1  A    between atoms: C_1  and  C_2
REMARK    2  A    between atoms: C_2  and  C_3
REMARK    3  A    between atoms: C_3  and  N_4
REMARK    4  A    between atoms: C_5  and  C_7
REMARK    5  A    between atoms: C_12  and  N_13
REMARK    6  A    between atoms: C_14  and  C_16
REMARK    7  A    between atoms: C_20  and  N_21
REMARK                            x       y       z     vdW  Elec       q    Type
REMARK                         _______ _______ _______ _____ _____    ______ ____
ROOT
ATOM      1  N   UNL     1       1.608   7.997  19.591  0.00  0.00    +0.000 N 
ATOM      2  C   UNL     1       1.818   6.645  19.817  0.00  0.00    +0.000 C 
ATOM      3  O   UNL     1       1.394   6.044  20.801  0.00  0.00    +0.000 OA
ATOM      4  H   UNL     1       1.550   8.331  18.629  0.00  0.00    +0.000 HD
ENDROOT
BRANCH   1  10
ATOM      5  C   UNL     1       0.138   9.882  20.206  0.00  0.00    +0.000 A 
ATOM      6  C   UNL     1      -0.455  10.680  21.201  0.00  0.00    +0.000 A 
ATOM      7  C   UNL     1      -0.194  10.446  22.551  0.00  0.00    +0.000 A 
ATOM      8  C   UNL     1       0.675   9.424  22.916  0.00  0.00    +0.000 A 
ATOM      9  C   UNL     1       1.271   8.628  21.935  0.00  0.00    +0.000 A 
ATOM     10  C   UNL     1       1.006   8.836  20.571  0.00  0.00    +0.000 A 
BRANCH   5  12
ATOM     11  N   UNL     1      -1.493  10.538  18.539  0.00  0.00    +0.000 N 
ATOM     12  C   UNL     1      -0.197  10.135  18.780  0.00  0.00    +0.000 C 
ATOM     13  O   UNL     1       0.644   9.955  17.905  0.00  0.00    +0.000 OA
ATOM     14  H   UNL     1      -2.189  10.365  19.255  0.00  0.00    +0.000 HD
BRANCH  11  15
ATOM     15  C   UNL     1      -1.952  10.911  17.219  0.00  0.00    +0.000 C 
BRANCH  15  17
ATOM     16  C   UNL     1      -2.993  10.013  15.071  0.00  0.00    +0.000 C 
ATOM     17  C   UNL     1      -2.817   9.830  16.573  0.00  0.00    +0.000 C 
ENDBRANCH  15  17
ENDBRANCH  11  15
ENDBRANCH   5  12
ENDBRANCH   1  10
BRANCH   2  18
ATOM     18  C   UNL     1       2.556   5.858  18.786  0.00  0.00    +0.000 A 
ATOM     19  C   UNL     1       1.994   4.626  18.412  0.00  0.00    +0.000 A 
ATOM     20  C   UNL     1       2.653   3.778  17.527  0.00  0.00    +0.000 A 
ATOM     21  C   UNL     1       3.886   4.153  17.002  0.00  0.00    +0.000 A 
ATOM     22  C   UNL     1       4.466   5.382  17.364  0.00  0.00    +0.000 A 
ATOM     23  C   UNL     1       3.801   6.239  18.262  0.00  0.00    +0.000 A 
BRANCH  22  24
ATOM     24  N   UNL     1       5.727   5.722  16.813  0.00  0.00    +0.000 N 
ATOM     25  C   UNL     1       6.454   5.100  15.833  0.00  0.00    +0.000 A 
ATOM     26  N   UNL     1       7.577   5.752  15.638  0.00  0.00    +0.000 NA
ATOM     27  N   UNL     1       7.552   6.804  16.516  0.00  0.00    +0.000 NA
ATOM     28  N   UNL     1       6.433   6.800  17.227  0.00  0.00    +0.000 NA
ENDBRANCH  22  24
ENDBRANCH   2  18
TORSDOF 6
ENDMDL
MODEL 5
REMARK VINA RESULT:      -7.8      2.080      3.959
REMARK  Name = 
REMARK  7 active torsions:
REMARK  status: ('A' for Active; 'I' for Inactive)
REMARK    1  A    between atoms: C_1  and  C_2
REMARK    2  A    between atoms: C_2  and  C_3
REMARK    3  A    between atoms: C_3  and  N_4
REMARK    4  A    between atoms: C_5  and  C_7
REMARK    5  A    between atoms: C_12  and  N_13
REMARK    6  A    between atoms: C_14  and  C_16
REMARK    7  A    between atoms: C_20  and  N_21
REMARK                            x       y       z     vdW  Elec       q    Type
REMARK                         _______ _______ _______ _____ _____    ______ ____
ROOT
ATOM      1  N   UNL     1       3.088   6.717  18.665  0.00  0.00    +0.000 N 
ATOM      2  C   UNL     1       2.454   7.909  18.349  0.00  0.00    +0.000 C 
ATOM      3  O   UNL     1       2.457   8.408  17.226  0.00  0.00    +0.000 OA
ATOM      4  H   UNL     1       2.697   6.134  19.405  0.00  0.00    +0.000 HD
ENDROOT
BRANCH   1  10
ATOM      5  C   UNL     1       3.648   4.738  17.300  0.00  0.00    +0.000 A 
ATOM      6  C   UNL     1       4.490   4.112  16.364  0.00  0.00    +0.000 A 
ATOM      7  C   UNL     1       5.606   4.776  15.855  0.00  0.00    +0.000 A 
ATOM      8  C   UNL     1       5.899   6.063  16.291  0.00  0.00    +0.000 A 
ATOM      9  C   UNL     1       5.069   6.691  17.223  0.00  0.00    +0.000 A 
ATOM     10  C   UNL     1       3.930   6.048  17.733  0.00  0.00    +0.000 A 
BRANCH   5  12
ATOM     11  N   UNL     1       2.686   3.011  18.702  0.00  0.00    +0.000 N 
ATOM     12  C   UNL     1       2.443   4.015  17.788  0.00  0.00    +0.000 C 
ATOM     13  O   UNL     1       1.332   4.304  17.358  0.00  0.00    +0.000 OA
ATOM     14  H   UNL     1       3.626   2.639  18.765  0.00  0.00    +0.000 HD
BRANCH  11  15
ATOM     15  C   UNL     1       1.617   2.275  19.341  0.00  0.00    +0.000 C 
BRANCH  15  17
ATOM     16  C   UNL     1       2.067   3.136  21.698  0.00  0.00    +0.000 C 
ATOM     17  C   UNL     1       1.059   3.000  20.564  0.00  0.00    +0.000 C 
ENDBRANCH  15  17
ENDBRANCH  11  15
ENDBRANCH   5  12
ENDBRANCH   1  10
BRANCH   2  18
ATOM     18  C   UNL     1       1.679   8.606  19.416  0.00  0.00    +0.000 A 
ATOM     19  C   UNL     1       1.588   7.955  20.659  0.00  0.00    +0.000 A 
ATOM     20  C   UNL     1       0.811   8.480  21.687  0.00  0.00    +0.000 A 
ATOM     21  C   UNL     1       0.114   9.668  21.487  0.00  0.00    +0.000 A 
ATOM     22  C   UNL     1       0.191  10.335  20.252  0.00  0.00    +0.000 A 
ATOM     23  C   UNL     1       0.974   9.802  19.209  0.00  0.00    +0.000 A 
BRANCH  22  24
ATOM     24  N   UNL     1      -0.542  11.537  20.087  0.00  0.00    +0.000 N 
ATOM     25  C   UNL     1      -0.189  12.828  20.379  0.00  0.00    +0.000 A 
ATOM     26  N   UNL     1      -1.180  13.634  20.073  0.00  0.00    +0.000 NA
ATOM     27  N   UNL     1      -2.174  12.829  19.581  0.00  0.00    +0.000 NA
ATOM     28  N   UNL     1      -1.796  11.559  19.577  0.00  0.00    +0.000 NA
ENDBRANCH  22  24
ENDBRANCH   2  18
TORSDOF 6
ENDMDL
MODEL 6
REMARK VINA RESULT:      -7.8      0.985      1.392
REMARK  Name = 
REMARK  7 active torsions:
REMARK  status: ('A' for Active; 'I' for Inactive)
REMARK    1  A    between atoms: C_1  and  C_2
REMARK    2  A    between atoms: C_2  and  C_3
REMARK    3  A    between atoms: C_3  and  N_4
REMARK    4  A    between atoms: C_5  and  C_7
REMARK    5  A    between atoms: C_12  and  N_13
REMARK    6  A    between atoms: C_14  and  C_16
REMARK    7  A    between atoms: C_20  and  N_21
REMARK                            x       y       z     vdW  Elec       q    Type
REMARK                         _______ _______ _______ _____ _____    ______ ____
ROOT
ATOM      1  N   UNL     1       2.322   5.667  18.229  0.00  0.00    +0.000 N 
ATOM      2  C   UNL     1       2.216   6.423  19.387  0.00  0.00    +0.000 C 
ATOM      3  O   UNL     1       2.441   5.983  20.512  0.00  0.00    +0.000 OA
ATOM      4  H   UNL     1       2.585   6.134  17.361  0.00  0.00    +0.000 HD
ENDROOT
BRANCH   1  10
ATOM      5  C   UNL     1       3.818   3.722  17.961  0.00  0.00    +0.000 A 
ATOM      6  C   UNL     1       4.020   2.333  18.029  0.00  0.00    +0.000 A 
ATOM      7  C   UNL     1       2.981   1.479  18.401  0.00  0.00    +0.000 A 
ATOM      8  C   UNL     1       1.728   2.008  18.691  0.00  0.00    +0.000 A 
ATOM      9  C   UNL     1       1.517   3.387  18.624  0.00  0.00    +0.000 A 
ATOM     10  C   UNL     1       2.555   4.264  18.269  0.00  0.00    +0.000 A 
BRANCH   5  12
ATOM     11  N   UNL     1       5.897   4.044  16.759  0.00  0.00    +0.000 N 
ATOM     12  C   UNL     1       4.960   4.604  17.602  0.00  0.00    +0.000 C 
ATOM     13  O   UNL     1       5.041   5.734  18.070  0.00  0.00    +0.000 OA
ATOM     14  H   UNL     1       5.919   3.035  16.671  0.00  0.00    +0.000 HD
BRANCH  11  15
ATOM     15  C   UNL     1       7.018   4.798  16.242  0.00  0.00    +0.000 C 
BRANCH  15  17
ATOM     16  C   UNL     1       5.856   4.129  14.074  0.00  0.00    +0.000 C 
ATOM     17  C   UNL     1       7.040   4.841  14.716  0.00  0.00    +0.000 C 
ENDBRANCH  15  17
ENDBRANCH  11  15
ENDBRANCH   5  12
ENDBRANCH   1  10
BRANCH   2  18
ATOM     18  C   UNL     1       1.860   7.866  19.265  0.00  0.00    +0.000 A 
ATOM     19  C   UNL     1       2.244   8.513  18.077  0.00  0.00    +0.000 A 
ATOM     20  C   UNL     1       2.039   9.878  17.907  0.00  0.00    +0.000 A 
ATOM     21  C   UNL     1       1.443  10.618  18.924  0.00  0.00    +0.000 A 
ATOM     22  C   UNL     1       1.052   9.991  20.121  0.00  0.00    +0.000 A 
ATOM     23  C   UNL     1       1.263   8.609  20.295  0.00  0.00    +0.000 A 
BRANCH  22  24
ATOM     24  N   UNL     1       0.457  10.783  21.135  0.00  0.00    +0.000 N 
ATOM     25  C   UNL     1      -0.163  10.404  22.296  0.00  0.00    +0.000 A 
ATOM     26  N   UNL     1      -0.578  11.470  22.940  0.00  0.00    +0.000 NA
ATOM     27  N   UNL     1      -0.211  12.539  22.164  0.00  0.00    +0.000 NA
ATOM     28  N   UNL     1       0.424  12.135  21.073  0.00  0.00    +0.000 NA
ENDBRANCH  22  24
ENDBRANCH   2  18
TORSDOF 6
ENDMDL
MODEL 7
REMARK VINA RESULT:      -7.8      1.780      3.513
REMARK  Name = 
REMARK  7 active torsions:
REMARK  status: ('A' for Active; 'I' for Inactive)
REMARK    1  A    between atoms: C_1  and  C_2
REMARK    2  A    between atoms: C_2  and  C_3
REMARK    3  A    between atoms: C_3  and  N_4
REMARK    4  A    between atoms: C_5  and  C_7
REMARK    5  A    between atoms: C_12  and  N_13
REMARK    6  A    between atoms: C_14  and  C_16
REMARK    7  A    between atoms: C_20  and  N_21
REMARK                            x       y       z     vdW  Elec       q    Type
REMARK                         _______ _______ _______ _____ _____    ______ ____
ROOT
ATOM      1  N   UNL     1       3.328   6.559  17.263  0.00  0.00    +0.000 N 
ATOM      2  C   UNL     1       3.152   6.930  18.588  0.00  0.00    +0.000 C 
ATOM      3  O   UNL     1       3.832   6.494  19.515  0.00  0.00    +0.000 OA
ATOM      4  H   UNL     1       3.106   7.234  16.532  0.00  0.00    +0.000 HD
ENDROOT
BRANCH   1  10
ATOM      5  C   UNL     1       3.865   4.162  17.026  0.00  0.00    +0.000 A 
ATOM      6  C   UNL     1       4.764   3.157  16.629  0.00  0.00    +0.000 A 
ATOM      7  C   UNL     1       6.011   3.486  16.098  0.00  0.00    +0.000 A 
ATOM      8  C   UNL     1       6.375   4.822  15.976  0.00  0.00    +0.000 A 
ATOM      9  C   UNL     1       5.489   5.827  16.370  0.00  0.00    +0.000 A 
ATOM     10  C   UNL     1       4.222   5.517  16.890  0.00  0.00    +0.000 A 
BRANCH   5  12
ATOM     11  N   UNL     1       2.538   2.838  18.561  0.00  0.00    +0.000 N 
ATOM     12  C   UNL     1       2.528   3.773  17.548  0.00  0.00    +0.000 C 
ATOM     13  O   UNL     1       1.510   4.254  17.063  0.00  0.00    +0.000 OA
ATOM     14  H   UNL     1       3.372   2.277  18.686  0.00  0.00    +0.000 HD
BRANCH  11  15
ATOM     15  C   UNL     1       1.329   2.422  19.239  0.00  0.00    +0.000 C 
BRANCH  15  17
ATOM     16  C   UNL     1       1.350   4.475  20.751  0.00  0.00    +0.000 C 
ATOM     17  C   UNL     1       1.246   2.957  20.667  0.00  0.00    +0.000 C 
ENDBRANCH  15  17
ENDBRANCH  11  15
ENDBRANCH   5  12
ENDBRANCH   1  10
BRANCH   2  18
ATOM     18  C   UNL     1       2.115   7.953  18.909  0.00  0.00    +0.000 A 
ATOM     19  C   UNL     1       1.612   8.702  17.831  0.00  0.00    +0.000 A 
ATOM     20  C   UNL     1       0.711   9.741  18.040  0.00  0.00    +0.000 A 
ATOM     21  C   UNL     1       0.297  10.045  19.333  0.00  0.00    +0.000 A 
ATOM     22  C   UNL     1       0.789   9.309  20.426  0.00  0.00    +0.000 A 
ATOM     23  C   UNL     1       1.704   8.259  20.216  0.00  0.00    +0.000 A 
BRANCH  22  24
ATOM     24  N   UNL     1       0.349   9.658  21.728  0.00  0.00    +0.000 N 
ATOM     25  C   UNL     1      -0.727  10.409  22.120  0.00  0.00    +0.000 A 
ATOM     26  N   UNL     1      -0.754  10.487  23.430  0.00  0.00    +0.000 NA
ATOM     27  N   UNL     1       0.329   9.769  23.867  0.00  0.00    +0.000 NA
ATOM     28  N   UNL     1       0.999   9.256  22.845  0.00  0.00    +0.000 NA
ENDBRANCH  22  24
ENDBRANCH   2  18
TORSDOF 6
ENDMDL
MODEL 8
REMARK VINA RESULT:      -7.6      2.210      4.050
REMARK  Name = 
REMARK  7 active torsions:
REMARK  status: ('A' for Active; 'I' for Inactive)
REMARK    1  A    between atoms: C_1  and  C_2
REMARK    2  A    between atoms: C_2  and  C_3
REMARK    3  A    between atoms: C_3  and  N_4
REMARK    4  A    between atoms: C_5  and  C_7
REMARK    5  A    between atoms: C_12  and  N_13
REMARK    6  A    between atoms: C_14  and  C_16
REMARK    7  A    between atoms: C_20  and  N_21
REMARK                            x       y       z     vdW  Elec       q    Type
REMARK                         _______ _______ _______ _____ _____    ______ ____
ROOT
ATOM      1  N   UNL     1       2.975   6.936  17.963  0.00  0.00    +0.000 N 
ATOM      2  C   UNL     1       2.727   6.945  19.327  0.00  0.00    +0.000 C 
ATOM      3  O   UNL     1       3.292   6.205  20.130  0.00  0.00    +0.000 OA
ATOM      4  H   UNL     1       2.870   7.804  17.439  0.00  0.00    +0.000 HD
ENDROOT
BRANCH   1  10
ATOM      5  C   UNL     1       3.404   4.601  17.287  0.00  0.00    +0.000 A 
ATOM      6  C   UNL     1       4.238   3.654  16.667  0.00  0.00    +0.000 A 
ATOM      7  C   UNL     1       5.463   4.035  16.120  0.00  0.00    +0.000 A 
ATOM      8  C   UNL     1       5.871   5.362  16.203  0.00  0.00    +0.000 A 
ATOM      9  C   UNL     1       5.050   6.308  16.819  0.00  0.00    +0.000 A 
ATOM     10  C   UNL     1       3.805   5.949  17.360  0.00  0.00    +0.000 A 
BRANCH   5  12
ATOM     11  N   UNL     1       2.130   3.492  19.024  0.00  0.00    +0.000 N 
ATOM     12  C   UNL     1       2.087   4.165  17.822  0.00  0.00    +0.000 C 
ATOM     13  O   UNL     1       1.059   4.385  17.190  0.00  0.00    +0.000 OA
ATOM     14  H   UNL     1       3.013   3.089  19.316  0.00  0.00    +0.000 HD
BRANCH  11  15
ATOM     15  C   UNL     1       0.931   3.082  19.723  0.00  0.00    +0.000 C 
BRANCH  15  17
ATOM     16  C   UNL     1       2.648   2.777  21.583  0.00  0.00    +0.000 C 
ATOM     17  C   UNL     1       1.172   2.854  21.214  0.00  0.00    +0.000 C 
ENDBRANCH  15  17
ENDBRANCH  11  15
ENDBRANCH   5  12
ENDBRANCH   1  10
BRANCH   2  18
ATOM     18  C   UNL     1       1.758   7.943  19.867  0.00  0.00    +0.000 A 
ATOM     19  C   UNL     1       1.236   7.689  21.147  0.00  0.00    +0.000 A 
ATOM     20  C   UNL     1       0.258   8.511  21.698  0.00  0.00    +0.000 A 
ATOM     21  C   UNL     1      -0.211   9.604  20.975  0.00  0.00    +0.000 A 
ATOM     22  C   UNL     1       0.298   9.877  19.692  0.00  0.00    +0.000 A 
ATOM     23  C   UNL     1       1.285   9.042  19.132  0.00  0.00    +0.000 A 
BRANCH  22  24
ATOM     24  N   UNL     1      -0.214  10.994  18.986  0.00  0.00    +0.000 N 
ATOM     25  C   UNL     1       0.249  12.282  18.925  0.00  0.00    +0.000 A 
ATOM     26  N   UNL     1      -0.540  12.996  18.155  0.00  0.00    +0.000 NA
ATOM     27  N   UNL     1      -1.518  12.136  17.728  0.00  0.00    +0.000 NA
ATOM     28  N   UNL     1      -1.326  10.920  18.218  0.00  0.00    +0.000 NA
ENDBRANCH  22  24
ENDBRANCH   2  18
TORSDOF 6
ENDMDL
MODEL 9
REMARK VINA RESULT:      -7.6      1.752      3.737
REMARK  Name = 
REMARK  7 active torsions:
REMARK  status: ('A' for Active; 'I' for Inactive)
REMARK    1  A    between atoms: C_1  and  C_2
REMARK    2  A    between atoms: C_2  and  C_3
REMARK    3  A    between atoms: C_3  and  N_4
REMARK    4  A    between atoms: C_5  and  C_7
REMARK    5  A    between atoms: C_12  and  N_13
REMARK    6  A    between atoms: C_14  and  C_16
REMARK    7  A    between atoms: C_20  and  N_21
REMARK                            x       y       z     vdW  Elec       q    Type
REMARK                         _______ _______ _______ _____ _____    ______ ____
ROOT
ATOM      1  N   UNL     1       3.628   6.690  18.464  0.00  0.00    +0.000 N 
ATOM      2  C   UNL     1       3.011   7.703  17.745  0.00  0.00    +0.000 C 
ATOM      3  O   UNL     1       3.280   7.972  16.576  0.00  0.00    +0.000 OA
ATOM      4  H   UNL     1       3.098   6.212  19.192  0.00  0.00    +0.000 HD
ENDROOT
BRANCH   1  10
ATOM      5  C   UNL     1       4.665   4.597  17.665  0.00  0.00    +0.000 A 
ATOM      6  C   UNL     1       5.779   3.925  17.134  0.00  0.00    +0.000 A 
ATOM      7  C   UNL     1       6.968   4.609  16.877  0.00  0.00    +0.000 A 
ATOM      8  C   UNL     1       7.056   5.966  17.165  0.00  0.00    +0.000 A 
ATOM      9  C   UNL     1       5.955   6.642  17.695  0.00  0.00    +0.000 A 
ATOM     10  C   UNL     1       4.743   5.975  17.944  0.00  0.00    +0.000 A 
BRANCH   5  12
ATOM     11  N   UNL     1       3.468   2.843  18.832  0.00  0.00    +0.000 N 
ATOM     12  C   UNL     1       3.402   3.844  17.886  0.00  0.00    +0.000 C 
ATOM     13  O   UNL     1       2.401   4.108  17.229  0.00  0.00    +0.000 OA
ATOM     14  H   UNL     1       4.382   2.493  19.096  0.00  0.00    +0.000 HD
BRANCH  11  15
ATOM     15  C   UNL     1       2.305   2.080  19.230  0.00  0.00    +0.000 C 
BRANCH  15  17
ATOM     16  C   UNL     1       0.945   3.850  20.461  0.00  0.00    +0.000 C 
ATOM     17  C   UNL     1       1.728   2.547  20.565  0.00  0.00    +0.000 C 
ENDBRANCH  15  17
ENDBRANCH  11  15
ENDBRANCH   5  12
ENDBRANCH   1  10
BRANCH   2  18
ATOM     18  C   UNL     1       1.920   8.479  18.403  0.00  0.00    +0.000 A 
ATOM     19  C   UNL     1       1.066   9.209  17.559  0.00  0.00    +0.000 A 
ATOM     20  C   UNL     1       0.077  10.036  18.081  0.00  0.00    +0.000 A 
ATOM     21  C   UNL     1      -0.072  10.144  19.461  0.00  0.00    +0.000 A 
ATOM     22  C   UNL     1       0.772   9.423  20.324  0.00  0.00    +0.000 A 
ATOM     23  C   UNL     1       1.776   8.589  19.795  0.00  0.00    +0.000 A 
BRANCH  22  24
ATOM     24  N   UNL     1       0.592   9.569  21.722  0.00  0.00    +0.000 N 
ATOM     25  C   UNL     1      -0.495  10.016  22.426  0.00  0.00    +0.000 A 
ATOM     26  N   UNL     1      -0.225   9.996  23.711  0.00  0.00    +0.000 NA
ATOM     27  N   UNL     1       1.060   9.528  23.812  0.00  0.00    +0.000 NA
ATOM     28  N   UNL     1       1.561   9.259  22.615  0.00  0.00    +0.000 NA
ENDBRANCH  22  24
ENDBRANCH   2  18
TORSDOF 6
ENDMDL
