MODEL 1
REMARK VINA RESULT:      -7.4      0.000      0.000
REMARK  Name = 
REMARK  8 active torsions:
REMARK  status: ('A' for Active; 'I' for Inactive)
REMARK    1  A    between atoms: C_1  and  O_2
REMARK    2  A    between atoms: O_2  and  C_3
REMARK    3  A    between atoms: C_5  and  C_6
REMARK    4  A    between atoms: C_9  and  C_10
REMARK    5  A    between atoms: C_10  and  C_11
REMARK    6  A    between atoms: C_10  and  C_12
REMARK    7  A    between atoms: C_16  and  C_17
REMARK    8  A    between atoms: C_19  and  O_20
REMARK                            x       y       z     vdW  Elec       q    Type
REMARK                         _______ _______ _______ _____ _____    ______ ____
ROOT
ATOM      1  C   UNL     1       3.350   3.825  20.142  0.00  0.00    +0.000 A 
ATOM      2  C   UNL     1       2.648   5.043  20.052  0.00  0.00    +0.000 A 
ATOM      3  C   UNL     1       3.088   6.122  19.265  0.00  0.00    +0.000 A 
ATOM      4  C   UNL     1       4.290   5.943  18.562  0.00  0.00    +0.000 A 
ATOM      5  C   UNL     1       4.991   4.730  18.622  0.00  0.00    +0.000 A 
ATOM      6  C   UNL     1       4.531   3.667  19.411  0.00  0.00    +0.000 A 
ENDROOT
BRANCH   3   7
ATOM      7  C   UNL     1       2.320   7.389  19.166  0.00  0.00    +0.000 A 
ATOM      8  C   UNL     1       2.204   8.099  17.959  0.00  0.00    +0.000 A 
ATOM      9  C   UNL     1       1.461   9.285  17.872  0.00  0.00    +0.000 A 
ATOM     10  C   UNL     1       0.795   9.799  18.989  0.00  0.00    +0.000 A 
ATOM     11  C   UNL     1       0.917   9.114  20.202  0.00  0.00    +0.000 A 
ATOM     12  C   UNL     1       1.670   7.937  20.287  0.00  0.00    +0.000 A 
BRANCH  10  13
ATOM     13  C   UNL     1      -0.057  11.050  18.866  0.00  0.00    +0.000 C 
ATOM     14  C   UNL     1      -1.343  10.765  18.083  0.00  0.00    +0.000 C 
ATOM     15  C   UNL     1      -0.378  11.662  20.231  0.00  0.00    +0.000 C 
ENDBRANCH  10  13
ENDBRANCH   3   7
BRANCH   1  17
ATOM     16  C   UNL     1       1.314   2.904  21.014  0.00  0.00    +0.000 C 
ATOM     17  O   UNL     1       2.733   2.926  20.972  0.00  0.00    +0.000 OA
ENDBRANCH   1  17
BRANCH   5  18
ATOM     18  C   UNL     1       6.223   4.617  17.812  0.00  0.00    +0.000 C 
ATOM     19  O   UNL     1       7.303   4.367  18.337  0.00  0.00    +0.000 OA
ENDBRANCH   5  18
BRANCH   6  20
ATOM     20  O   UNL     1       5.228   2.488  19.460  0.00  0.00    +0.000 OA
ATOM     21  H   UNL     1       4.829   1.909  20.147  0.00  0.00    +0.000 HD
ENDBRANCH   6  20
TORSDOF 5
ENDMDL
MODEL 2
REMARK VINA RESULT:      -7.4      1.857      2.246
REMARK  Name = 
REMARK  8 active torsions:
REMARK  status: ('A' for Active; 'I' for Inactive)
REMARK    1  A    between atoms: C_1  and  O_2
REMARK    2  A    between atoms: O_2  and  C_3
REMARK    3  A    between atoms: C_5  and  C_6
REMARK    4  A    between atoms: C_9  and  C_10
REMARK    5  A    between atoms: C_10  and  C_11
REMARK    6  A    between atoms: C_10  and  C_12
REMARK    7  A    between atoms: C_16  and  C_17
REMARK    8  A    between atoms: C_19  and  O_20
REMARK                            x       y       z     vdW  Elec       q    Type
REMARK                         _______ _______ _______ _____ _____    ______ ____
ROOT
ATOM      1  C   UNL     1       3.646   3.812  17.403  0.00  0.00    +0.000 A 
ATOM      2  C   UNL     1       2.891   4.863  17.960  0.00  0.00    +0.000 A 
ATOM      3  C   UNL     1       3.355   6.189  18.018  0.00  0.00    +0.000 A 
ATOM      4  C   UNL     1       4.636   6.434  17.497  0.00  0.00    +0.000 A 
ATOM      5  C   UNL     1       5.392   5.404  16.918  0.00  0.00    +0.000 A 
ATOM      6  C   UNL     1       4.907   4.091  16.869  0.00  0.00    +0.000 A 
ENDROOT
BRANCH   3   7
ATOM      7  C   UNL     1       2.534   7.286  18.588  0.00  0.00    +0.000 A 
ATOM      8  C   UNL     1       2.128   7.292  19.934  0.00  0.00    +0.000 A 
ATOM      9  C   UNL     1       1.368   8.343  20.468  0.00  0.00    +0.000 A 
ATOM     10  C   UNL     1       0.995   9.434  19.678  0.00  0.00    +0.000 A 
ATOM     11  C   UNL     1       1.375   9.433  18.331  0.00  0.00    +0.000 A 
ATOM     12  C   UNL     1       2.123   8.376  17.800  0.00  0.00    +0.000 A 
BRANCH  10  13
ATOM     13  C   UNL     1       0.225  10.594  20.284  0.00  0.00    +0.000 C 
ATOM     14  C   UNL     1      -1.055  10.878  19.494  0.00  0.00    +0.000 C 
ATOM     15  C   UNL     1      -0.091  10.362  21.763  0.00  0.00    +0.000 C 
ENDBRANCH  10  13
ENDBRANCH   3   7
BRANCH   1  17
ATOM     16  C   UNL     1       3.403   1.661  18.437  0.00  0.00    +0.000 C 
ATOM     17  O   UNL     1       2.991   2.609  17.463  0.00  0.00    +0.000 OA
ENDBRANCH   1  17
BRANCH   5  18
ATOM     18  C   UNL     1       6.710   5.765  16.354  0.00  0.00    +0.000 C 
ATOM     19  O   UNL     1       7.668   5.006  16.453  0.00  0.00    +0.000 OA
ENDBRANCH   5  18
BRANCH   6  20
ATOM     20  O   UNL     1       5.659   3.095  16.301  0.00  0.00    +0.000 OA
ATOM     21  H   UNL     1       6.584   3.168  16.629  0.00  0.00    +0.000 HD
ENDBRANCH   6  20
TORSDOF 5
ENDMDL
MODEL 3
REMARK VINA RESULT:      -7.3      0.740      2.936
REMARK  Name = 
REMARK  8 active torsions:
REMARK  status: ('A' for Active; 'I' for Inactive)
REMARK    1  A    between atoms: C_1  and  O_2
REMARK    2  A    between atoms: O_2  and  C_3
REMARK    3  A    between atoms: C_5  and  C_6
REMARK    4  A    between atoms: C_9  and  C_10
REMARK    5  A    between atoms: C_10  and  C_11
REMARK    6  A    between atoms: C_10  and  C_12
REMARK    7  A    between atoms: C_16  and  C_17
REMARK    8  A    between atoms: C_19  and  O_20
REMARK                            x       y       z     vdW  Elec       q    Type
REMARK                         _______ _______ _______ _____ _____    ______ ____
ROOT
ATOM      1  C   UNL     1       5.047   4.375  19.076  0.00  0.00    +0.000 A 
ATOM      2  C   UNL     1       4.403   5.619  18.932  0.00  0.00    +0.000 A 
ATOM      3  C   UNL     1       3.097   5.862  19.394  0.00  0.00    +0.000 A 
ATOM      4  C   UNL     1       2.434   4.787  20.008  0.00  0.00    +0.000 A 
ATOM      5  C   UNL     1       3.067   3.548  20.179  0.00  0.00    +0.000 A 
ATOM      6  C   UNL     1       4.371   3.331  19.714  0.00  0.00    +0.000 A 
ENDROOT
BRANCH   3   7
ATOM      7  C   UNL     1       2.446   7.189  19.253  0.00  0.00    +0.000 A 
ATOM      8  C   UNL     1       2.500   7.924  18.057  0.00  0.00    +0.000 A 
ATOM      9  C   UNL     1       1.866   9.168  17.929  0.00  0.00    +0.000 A 
ATOM     10  C   UNL     1       1.143   9.719  18.991  0.00  0.00    +0.000 A 
ATOM     11  C   UNL     1       1.097   9.008  20.195  0.00  0.00    +0.000 A 
ATOM     12  C   UNL     1       1.742   7.772  20.321  0.00  0.00    +0.000 A 
BRANCH  10  13
ATOM     13  C   UNL     1       0.409  11.037  18.819  0.00  0.00    +0.000 C 
ATOM     14  C   UNL     1      -0.737  11.164  19.826  0.00  0.00    +0.000 C 
ATOM     15  C   UNL     1       1.354  12.236  18.919  0.00  0.00    +0.000 C 
ENDBRANCH  10  13
ENDBRANCH   3   7
BRANCH   1  17
ATOM     16  C   UNL     1       6.461   4.586  17.149  0.00  0.00    +0.000 C 
ATOM     17  O   UNL     1       6.311   4.375  18.546  0.00  0.00    +0.000 OA
ENDBRANCH   1  17
BRANCH   5  18
ATOM     18  C   UNL     1       2.308   2.488  20.878  0.00  0.00    +0.000 C 
ATOM     19  O   UNL     1       2.071   2.569  22.079  0.00  0.00    +0.000 OA
ENDBRANCH   5  18
BRANCH   6  20
ATOM     20  O   UNL     1       4.975   2.113  19.888  0.00  0.00    +0.000 OA
ATOM     21  H   UNL     1       4.290   1.447  20.121  0.00  0.00    +0.000 HD
ENDBRANCH   6  20
TORSDOF 5
ENDMDL
MODEL 4
REMARK VINA RESULT:      -7.3      1.897      3.421
REMARK  Name = 
REMARK  8 active torsions:
REMARK  status: ('A' for Active; 'I' for Inactive)
REMARK    1  A    between atoms: C_1  and  O_2
REMARK    2  A    between atoms: O_2  and  C_3
REMARK    3  A    between atoms: C_5  and  C_6
REMARK    4  A    between atoms: C_9  and  C_10
REMARK    5  A    between atoms: C_10  and  C_11
REMARK    6  A    between atoms: C_10  and  C_12
REMARK    7  A    between atoms: C_16  and  C_17
REMARK    8  A    between atoms: C_19  and  O_20
REMARK                            x       y       z     vdW  Elec       q    Type
REMARK                         _______ _______ _______ _____ _____    ______ ____
ROOT
ATOM      1  C   UNL     1       5.226   5.719  16.858  0.00  0.00    +0.000 A 
ATOM      2  C   UNL     1       4.424   6.732  17.418  0.00  0.00    +0.000 A 
ATOM      3  C   UNL     1       3.170   6.480  18.002  0.00  0.00    +0.000 A 
ATOM      4  C   UNL     1       2.728   5.147  17.997  0.00  0.00    +0.000 A 
ATOM      5  C   UNL     1       3.522   4.121  17.464  0.00  0.00    +0.000 A 
ATOM      6  C   UNL     1       4.770   4.398  16.890  0.00  0.00    +0.000 A 
ENDROOT
BRANCH   3   7
ATOM      7  C   UNL     1       2.352   7.560  18.608  0.00  0.00    +0.000 A 
ATOM      8  C   UNL     1       2.008   7.560  19.971  0.00  0.00    +0.000 A 
ATOM      9  C   UNL     1       1.249   8.595  20.537  0.00  0.00    +0.000 A 
ATOM     10  C   UNL     1       0.817   9.676  19.763  0.00  0.00    +0.000 A 
ATOM     11  C   UNL     1       1.136   9.680  18.401  0.00  0.00    +0.000 A 
ATOM     12  C   UNL     1       1.883   8.638  17.838  0.00  0.00    +0.000 A 
BRANCH  10  13
ATOM     13  C   UNL     1       0.051  10.820  20.403  0.00  0.00    +0.000 C 
ATOM     14  C   UNL     1      -1.201  11.165  19.591  0.00  0.00    +0.000 C 
ATOM     15  C   UNL     1      -0.312  10.524  21.859  0.00  0.00    +0.000 C 
ENDBRANCH  10  13
ENDBRANCH   3   7
BRANCH   1  17
ATOM     16  C   UNL     1       7.369   6.727  17.241  0.00  0.00    +0.000 C 
ATOM     17  O   UNL     1       6.400   6.204  16.344  0.00  0.00    +0.000 OA
ENDBRANCH   1  17
BRANCH   5  18
ATOM     18  C   UNL     1       2.995   2.742  17.544  0.00  0.00    +0.000 C 
ATOM     19  O   UNL     1       3.661   1.839  18.038  0.00  0.00    +0.000 OA
ENDBRANCH   5  18
BRANCH   6  20
ATOM     20  O   UNL     1       5.534   3.384  16.371  0.00  0.00    +0.000 OA
ATOM     21  H   UNL     1       6.220   3.771  15.781  0.00  0.00    +0.000 HD
ENDBRANCH   6  20
TORSDOF 5
ENDMDL
MODEL 5
REMARK VINA RESULT:      -7.3      1.866      2.129
REMARK  Name = 
REMARK  8 active torsions:
REMARK  status: ('A' for Active; 'I' for Inactive)
REMARK    1  A    between atoms: C_1  and  O_2
REMARK    2  A    between atoms: O_2  and  C_3
REMARK    3  A    between atoms: C_5  and  C_6
REMARK    4  A    between atoms: C_9  and  C_10
REMARK    5  A    between atoms: C_10  and  C_11
REMARK    6  A    between atoms: C_10  and  C_12
REMARK    7  A    between atoms: C_16  and  C_17
REMARK    8  A    between atoms: C_19  and  O_20
REMARK                            x       y       z     vdW  Elec       q    Type
REMARK                         _______ _______ _______ _____ _____    ______ ____
ROOT
ATOM      1  C   UNL     1       3.691   3.991  17.348  0.00  0.00    +0.000 A 
ATOM      2  C   UNL     1       2.919   5.049  17.867  0.00  0.00    +0.000 A 
ATOM      3  C   UNL     1       3.405   6.363  17.986  0.00  0.00    +0.000 A 
ATOM      4  C   UNL     1       4.727   6.588  17.570  0.00  0.00    +0.000 A 
ATOM      5  C   UNL     1       5.504   5.552  17.031  0.00  0.00    +0.000 A 
ATOM      6  C   UNL     1       4.996   4.251  16.918  0.00  0.00    +0.000 A 
ENDROOT
BRANCH   3   7
ATOM      7  C   UNL     1       2.566   7.468  18.514  0.00  0.00    +0.000 A 
ATOM      8  C   UNL     1       2.168   8.551  17.712  0.00  0.00    +0.000 A 
ATOM      9  C   UNL     1       1.360   9.581  18.215  0.00  0.00    +0.000 A 
ATOM     10  C   UNL     1       0.908   9.558  19.538  0.00  0.00    +0.000 A 
ATOM     11  C   UNL     1       1.311   8.496  20.353  0.00  0.00    +0.000 A 
ATOM     12  C   UNL     1       2.128   7.477  19.850  0.00  0.00    +0.000 A 
BRANCH  10  13
ATOM     13  C   UNL     1      -0.018  10.647  20.051  0.00  0.00    +0.000 C 
ATOM     14  C   UNL     1       0.780  11.821  20.627  0.00  0.00    +0.000 C 
ATOM     15  C   UNL     1      -0.991  11.129  18.973  0.00  0.00    +0.000 C 
ENDBRANCH  10  13
ENDBRANCH   3   7
BRANCH   1  17
ATOM     16  C   UNL     1       1.802   2.705  18.075  0.00  0.00    +0.000 C 
ATOM     17  O   UNL     1       3.009   2.803  17.334  0.00  0.00    +0.000 OA
ENDBRANCH   1  17
BRANCH   5  18
ATOM     18  C   UNL     1       6.869   5.892  16.578  0.00  0.00    +0.000 C 
ATOM     19  O   UNL     1       7.264   5.567  15.463  0.00  0.00    +0.000 OA
ENDBRANCH   5  18
BRANCH   6  20
ATOM     20  O   UNL     1       5.768   3.249  16.391  0.00  0.00    +0.000 OA
ATOM     21  H   UNL     1       6.235   3.591  15.595  0.00  0.00    +0.000 HD
ENDBRANCH   6  20
TORSDOF 5
ENDMDL
MODEL 6
REMARK VINA RESULT:      -7.3      0.647      3.009
REMARK  Name = 
REMARK  8 active torsions:
REMARK  status: ('A' for Active; 'I' for Inactive)
REMARK    1  A    between atoms: C_1  and  O_2
REMARK    2  A    between atoms: O_2  and  C_3
REMARK    3  A    between atoms: C_5  and  C_6
REMARK    4  A    between atoms: C_9  and  C_10
REMARK    5  A    between atoms: C_10  and  C_11
REMARK    6  A    between atoms: C_10  and  C_12
REMARK    7  A    between atoms: C_16  and  C_17
REMARK    8  A    between atoms: C_19  and  O_20
REMARK                            x       y       z     vdW  Elec       q    Type
REMARK                         _______ _______ _______ _____ _____    ______ ____
ROOT
ATOM      1  C   UNL     1       4.921   4.536  18.803  0.00  0.00    +0.000 A 
ATOM      2  C   UNL     1       4.261   5.776  18.690  0.00  0.00    +0.000 A 
ATOM      3  C   UNL     1       3.013   6.034  19.284  0.00  0.00    +0.000 A 
ATOM      4  C   UNL     1       2.425   4.980  20.002  0.00  0.00    +0.000 A 
ATOM      5  C   UNL     1       3.077   3.746  20.144  0.00  0.00    +0.000 A 
ATOM      6  C   UNL     1       4.323   3.514  19.546  0.00  0.00    +0.000 A 
ENDROOT
BRANCH   3   7
ATOM      7  C   UNL     1       2.346   7.355  19.172  0.00  0.00    +0.000 A 
ATOM      8  C   UNL     1       1.678   7.947  20.258  0.00  0.00    +0.000 A 
ATOM      9  C   UNL     1       1.066   9.205  20.147  0.00  0.00    +0.000 A 
ATOM     10  C   UNL     1       1.112   9.923  18.949  0.00  0.00    +0.000 A 
ATOM     11  C   UNL     1       1.757   9.338  17.854  0.00  0.00    +0.000 A 
ATOM     12  C   UNL     1       2.355   8.077  17.966  0.00  0.00    +0.000 A 
BRANCH  10  13
ATOM     13  C   UNL     1       0.500  11.310  18.861  0.00  0.00    +0.000 C 
ATOM     14  C   UNL     1      -0.982  11.235  18.483  0.00  0.00    +0.000 C 
ATOM     15  C   UNL     1       0.690  12.103  20.156  0.00  0.00    +0.000 C 
ENDBRANCH  10  13
ENDBRANCH   3   7
BRANCH   1  17
ATOM     16  C   UNL     1       6.120   4.738  16.734  0.00  0.00    +0.000 C 
ATOM     17  O   UNL     1       6.119   4.519  18.137  0.00  0.00    +0.000 OA
ENDBRANCH   1  17
BRANCH   5  18
ATOM     18  C   UNL     1       2.404   2.711  20.956  0.00  0.00    +0.000 C 
ATOM     19  O   UNL     1       2.878   2.338  22.023  0.00  0.00    +0.000 OA
ENDBRANCH   5  18
BRANCH   6  20
ATOM     20  O   UNL     1       4.947   2.302  19.692  0.00  0.00    +0.000 OA
ATOM     21  H   UNL     1       4.892   1.810  18.841  0.00  0.00    +0.000 HD
ENDBRANCH   6  20
TORSDOF 5
ENDMDL
MODEL 7
REMARK VINA RESULT:      -7.3      0.250      1.100
REMARK  Name = 
REMARK  8 active torsions:
REMARK  status: ('A' for Active; 'I' for Inactive)
REMARK    1  A    between atoms: C_1  and  O_2
REMARK    2  A    between atoms: O_2  and  C_3
REMARK    3  A    between atoms: C_5  and  C_6
REMARK    4  A    between atoms: C_9  and  C_10
REMARK    5  A    between atoms: C_10  and  C_11
REMARK    6  A    between atoms: C_10  and  C_12
REMARK    7  A    between atoms: C_16  and  C_17
REMARK    8  A    between atoms: C_19  and  O_20
REMARK                            x       y       z     vdW  Elec       q    Type
REMARK                         _______ _______ _______ _____ _____    ______ ____
ROOT
ATOM      1  C   UNL     1       3.290   3.852  20.212  0.00  0.00    +0.000 A 
ATOM      2  C   UNL     1       2.601   5.077  20.121  0.00  0.00    +0.000 A 
ATOM      3  C   UNL     1       3.045   6.147  19.323  0.00  0.00    +0.000 A 
ATOM      4  C   UNL     1       4.240   5.950  18.611  0.00  0.00    +0.000 A 
ATOM      5  C   UNL     1       4.927   4.729  18.673  0.00  0.00    +0.000 A 
ATOM      6  C   UNL     1       4.462   3.676  19.472  0.00  0.00    +0.000 A 
ENDROOT
BRANCH   3   7
ATOM      7  C   UNL     1       2.291   7.421  19.223  0.00  0.00    +0.000 A 
ATOM      8  C   UNL     1       1.651   7.999  20.333  0.00  0.00    +0.000 A 
ATOM      9  C   UNL     1       0.956   9.213  20.232  0.00  0.00    +0.000 A 
ATOM     10  C   UNL     1       0.886   9.902  19.018  0.00  0.00    +0.000 A 
ATOM     11  C   UNL     1       1.502   9.330  17.900  0.00  0.00    +0.000 A 
ATOM     12  C   UNL     1       2.184   8.111  18.003  0.00  0.00    +0.000 A 
BRANCH  10  13
ATOM     13  C   UNL     1       0.184  11.246  18.937  0.00  0.00    +0.000 C 
ATOM     14  C   UNL     1      -1.281  11.077  18.526  0.00  0.00    +0.000 C 
ATOM     15  C   UNL     1       0.294  12.030  20.246  0.00  0.00    +0.000 C 
ENDBRANCH  10  13
ENDBRANCH   3   7
BRANCH   1  17
ATOM     16  C   UNL     1       1.320   2.611  20.791  0.00  0.00    +0.000 C 
ATOM     17  O   UNL     1       2.670   2.965  21.053  0.00  0.00    +0.000 OA
ENDBRANCH   1  17
BRANCH   5  18
ATOM     18  C   UNL     1       6.151   4.597  17.853  0.00  0.00    +0.000 C 
ATOM     19  O   UNL     1       7.241   4.389  18.375  0.00  0.00    +0.000 OA
ENDBRANCH   5  18
BRANCH   6  20
ATOM     20  O   UNL     1       5.147   2.490  19.522  0.00  0.00    +0.000 OA
ATOM     21  H   UNL     1       5.713   2.482  20.327  0.00  0.00    +0.000 HD
ENDBRANCH   6  20
TORSDOF 5
ENDMDL
MODEL 8
REMARK VINA RESULT:      -7.1      1.891      3.236
REMARK  Name = 
REMARK  8 active torsions:
REMARK  status: ('A' for Active; 'I' for Inactive)
REMARK    1  A    between atoms: C_1  and  O_2
REMARK    2  A    between atoms: O_2  and  C_3
REMARK    3  A    between atoms: C_5  and  C_6
REMARK    4  A    between atoms: C_9  and  C_10
REMARK    5  A    between atoms: C_10  and  C_11
REMARK    6  A    between atoms: C_10  and  C_12
REMARK    7  A    between atoms: C_16  and  C_17
REMARK    8  A    between atoms: C_19  and  O_20
REMARK                            x       y       z     vdW  Elec       q    Type
REMARK                         _______ _______ _______ _____ _____    ______ ____
ROOT
ATOM      1  C   UNL     1       5.119   5.649  16.882  0.00  0.00    +0.000 A 
ATOM      2  C   UNL     1       4.359   6.710  17.412  0.00  0.00    +0.000 A 
ATOM      3  C   UNL     1       3.091   6.526  17.991  0.00  0.00    +0.000 A 
ATOM      4  C   UNL     1       2.589   5.215  18.011  0.00  0.00    +0.000 A 
ATOM      5  C   UNL     1       3.341   4.143  17.507  0.00  0.00    +0.000 A 
ATOM      6  C   UNL     1       4.605   4.351  16.939  0.00  0.00    +0.000 A 
ENDROOT
BRANCH   3   7
ATOM      7  C   UNL     1       2.316   7.655  18.566  0.00  0.00    +0.000 A 
ATOM      8  C   UNL     1       1.827   8.705  17.771  0.00  0.00    +0.000 A 
ATOM      9  C   UNL     1       1.081   9.758  18.322  0.00  0.00    +0.000 A 
ATOM     10  C   UNL     1       0.785   9.792  19.687  0.00  0.00    +0.000 A 
ATOM     11  C   UNL     1       1.282   8.763  20.494  0.00  0.00    +0.000 A 
ATOM     12  C   UNL     1       2.037   7.721  19.942  0.00  0.00    +0.000 A 
BRANCH  10  13
ATOM     13  C   UNL     1      -0.076  10.904  20.259  0.00  0.00    +0.000 C 
ATOM     14  C   UNL     1      -1.356  11.086  19.437  0.00  0.00    +0.000 C 
ATOM     15  C   UNL     1      -0.408  10.671  21.735  0.00  0.00    +0.000 C 
ENDBRANCH  10  13
ENDBRANCH   3   7
BRANCH   1  17
ATOM     16  C   UNL     1       7.378   6.358  17.267  0.00  0.00    +0.000 C 
ATOM     17  O   UNL     1       6.318   6.071  16.368  0.00  0.00    +0.000 OA
ENDBRANCH   1  17
BRANCH   5  18
ATOM     18  C   UNL     1       2.752   2.791  17.613  0.00  0.00    +0.000 C 
ATOM     19  O   UNL     1       3.427   1.835  17.977  0.00  0.00    +0.000 OA
ENDBRANCH   5  18
BRANCH   6  20
ATOM     20  O   UNL     1       5.326   3.293  16.449  0.00  0.00    +0.000 OA
ATOM     21  H   UNL     1       4.739   2.738  15.888  0.00  0.00    +0.000 HD
ENDBRANCH   6  20
TORSDOF 5
ENDMDL
MODEL 9
REMARK VINA RESULT:      -7.1      1.234      2.970
REMARK  Name = 
REMARK  8 active torsions:
REMARK  status: ('A' for Active; 'I' for Inactive)
REMARK    1  A    between atoms: C_1  and  O_2
REMARK    2  A    between atoms: O_2  and  C_3
REMARK    3  A    between atoms: C_5  and  C_6
REMARK    4  A    between atoms: C_9  and  C_10
REMARK    5  A    between atoms: C_10  and  C_11
REMARK    6  A    between atoms: C_10  and  C_12
REMARK    7  A    between atoms: C_16  and  C_17
REMARK    8  A    between atoms: C_19  and  O_20
REMARK                            x       y       z     vdW  Elec       q    Type
REMARK                         _______ _______ _______ _____ _____    ______ ____
ROOT
ATOM      1  C   UNL     1       4.941   4.282  19.056  0.00  0.00    +0.000 A 
ATOM      2  C   UNL     1       4.384   5.575  19.025  0.00  0.00    +0.000 A 
ATOM      3  C   UNL     1       2.998   5.808  18.960  0.00  0.00    +0.000 A 
ATOM      4  C   UNL     1       2.169   4.676  18.914  0.00  0.00    +0.000 A 
ATOM      5  C   UNL     1       2.705   3.381  18.966  0.00  0.00    +0.000 A 
ATOM      6  C   UNL     1       4.089   3.174  19.035  0.00  0.00    +0.000 A 
ENDROOT
BRANCH   3   7
ATOM      7  C   UNL     1       2.430   7.179  18.952  0.00  0.00    +0.000 A 
ATOM      8  C   UNL     1       2.519   8.017  17.827  0.00  0.00    +0.000 A 
ATOM      9  C   UNL     1       1.962   9.305  17.823  0.00  0.00    +0.000 A 
ATOM     10  C   UNL     1       1.284   9.797  18.942  0.00  0.00    +0.000 A 
ATOM     11  C   UNL     1       1.204   8.982  20.076  0.00  0.00    +0.000 A 
ATOM     12  C   UNL     1       1.772   7.702  20.079  0.00  0.00    +0.000 A 
BRANCH  10  13
ATOM     13  C   UNL     1       0.632  11.168  18.902  0.00  0.00    +0.000 C 
ATOM     14  C   UNL     1      -0.183  11.427  20.172  0.00  0.00    +0.000 C 
ATOM     15  C   UNL     1       1.656  12.284  18.679  0.00  0.00    +0.000 C 
ENDBRANCH  10  13
ENDBRANCH   3   7
BRANCH   1  17
ATOM     16  C   UNL     1       7.031   4.746  17.972  0.00  0.00    +0.000 C 
ATOM     17  O   UNL     1       6.311   4.304  19.114  0.00  0.00    +0.000 OA
ENDBRANCH   1  17
BRANCH   5  18
ATOM     18  C   UNL     1       1.753   2.250  18.959  0.00  0.00    +0.000 C 
ATOM     19  O   UNL     1       0.663   2.346  18.404  0.00  0.00    +0.000 OA
ENDBRANCH   5  18
BRANCH   6  20
ATOM     20  O   UNL     1       4.598   1.902  19.083  0.00  0.00    +0.000 OA
ATOM     21  H   UNL     1       3.909   1.296  19.438  0.00  0.00    +0.000 HD
ENDBRANCH   6  20
TORSDOF 5
ENDMDL
