MODEL 1
REMARK VINA RESULT:      -6.7      0.000      0.000
REMARK  Name = 
REMARK  8 active torsions:
REMARK  status: ('A' for Active; 'I' for Inactive)
REMARK    1  A    between atoms: C_1  and  O_2
REMARK    2  A    between atoms: O_2  and  C_3
REMARK    3  A    between atoms: C_8  and  C_9
REMARK    4  A    between atoms: C_9  and  N_10
REMARK    5  A    between atoms: C_11  and  C_13
REMARK    6  A    between atoms: C_13  and  N_14
REMARK    7  A    between atoms: N_14  and  C_15
REMARK    8  A    between atoms: C_15  and  C_16
REMARK                            x       y       z     vdW  Elec       q    Type
REMARK                         _______ _______ _______ _____ _____    ______ ____
ROOT
ATOM      1  N   UNL     1       5.122   4.817  18.457  0.00  0.00    +0.000 N 
ATOM      2  C   UNL     1       6.286   5.537  18.491  0.00  0.00    +0.000 C 
ATOM      3  O   UNL     1       7.194   5.333  19.295  0.00  0.00    +0.000 OA
ATOM      4  H   UNL     1       4.427   4.995  17.743  0.00  0.00    +0.000 HD
ENDROOT
BRANCH   1   5
ATOM      5  C   UNL     1       4.843   3.728  19.376  0.00  0.00    +0.000 C 
BRANCH   5  11
ATOM      6  C   UNL     1       2.418   4.342  19.903  0.00  0.00    +0.000 A 
ATOM      7  C   UNL     1       1.053   4.029  19.857  0.00  0.00    +0.000 A 
ATOM      8  C   UNL     1       0.632   2.765  19.445  0.00  0.00    +0.000 A 
ATOM      9  C   UNL     1       1.568   1.823  19.033  0.00  0.00    +0.000 A 
ATOM     10  C   UNL     1       2.922   2.155  19.000  0.00  0.00    +0.000 A 
ATOM     11  C   UNL     1       3.368   3.417  19.433  0.00  0.00    +0.000 A 
BRANCH   6  13
ATOM     12  C   UNL     1       2.378   6.696  19.708  0.00  0.00    +0.000 C 
ATOM     13  O   UNL     1       2.882   5.540  20.380  0.00  0.00    +0.000 OA
ENDBRANCH   6  13
ENDBRANCH   5  11
ENDBRANCH   1   5
BRANCH   2  14
ATOM     14  C   UNL     1       6.407   6.607  17.392  0.00  0.00    +0.000 C 
BRANCH  14  15
ATOM     15  N   UNL     1       7.479   6.271  16.435  0.00  0.00    +0.000 NA
ATOM     16  H   UNL     1       8.364   6.284  16.948  0.00  0.00    +0.000 HD
BRANCH  15  17
ATOM     17  C   UNL     1       7.290   4.931  15.862  0.00  0.00    +0.000 C 
BRANCH  17  18
ATOM     18  C   UNL     1       6.584   4.970  14.499  0.00  0.00    +0.000 C 
ATOM     19  C   UNL     1       5.957   3.645  14.086  0.00  0.00    +0.000 C 
ATOM     20  C   UNL     1       6.028   3.722  12.582  0.00  0.00    +0.000 C 
ATOM     21  C   UNL     1       7.357   4.410  12.369  0.00  0.00    +0.000 C 
ATOM     22  O   UNL     1       7.539   5.308  13.470  0.00  0.00    +0.000 OA
ENDBRANCH  17  18
ENDBRANCH  15  17
ENDBRANCH  14  15
ENDBRANCH   2  14
TORSDOF 7
ENDMDL
MODEL 2
REMARK VINA RESULT:      -6.6      1.812      2.301
REMARK  Name = 
REMARK  8 active torsions:
REMARK  status: ('A' for Active; 'I' for Inactive)
REMARK    1  A    between atoms: C_1  and  O_2
REMARK    2  A    between atoms: O_2  and  C_3
REMARK    3  A    between atoms: C_8  and  C_9
REMARK    4  A    between atoms: C_9  and  N_10
REMARK    5  A    between atoms: C_11  and  C_13
REMARK    6  A    between atoms: C_13  and  N_14
REMARK    7  A    between atoms: N_14  and  C_15
REMARK    8  A    between atoms: C_15  and  C_16
REMARK                            x       y       z     vdW  Elec       q    Type
REMARK                         _______ _______ _______ _____ _____    ______ ____
ROOT
ATOM      1  N   UNL     1       5.417   3.552  18.754  0.00  0.00    +0.000 N 
ATOM      2  C   UNL     1       5.414   4.903  18.983  0.00  0.00    +0.000 C 
ATOM      3  O   UNL     1       4.424   5.618  18.842  0.00  0.00    +0.000 OA
ATOM      4  H   UNL     1       6.247   3.003  18.932  0.00  0.00    +0.000 HD
ENDROOT
BRANCH   1   5
ATOM      5  C   UNL     1       4.237   2.825  18.321  0.00  0.00    +0.000 C 
BRANCH   5  11
ATOM      6  C   UNL     1       1.812   3.102  19.077  0.00  0.00    +0.000 A 
ATOM      7  C   UNL     1       0.842   3.022  20.085  0.00  0.00    +0.000 A 
ATOM      8  C   UNL     1       1.216   2.787  21.408  0.00  0.00    +0.000 A 
ATOM      9  C   UNL     1       2.555   2.585  21.724  0.00  0.00    +0.000 A 
ATOM     10  C   UNL     1       3.516   2.583  20.713  0.00  0.00    +0.000 A 
ATOM     11  C   UNL     1       3.160   2.840  19.377  0.00  0.00    +0.000 A 
BRANCH   6  13
ATOM     12  C   UNL     1       1.347   4.809  17.512  0.00  0.00    +0.000 C 
ATOM     13  O   UNL     1       1.499   3.413  17.779  0.00  0.00    +0.000 OA
ENDBRANCH   6  13
ENDBRANCH   5  11
ENDBRANCH   1   5
BRANCH   2  14
ATOM     14  C   UNL     1       6.751   5.466  19.495  0.00  0.00    +0.000 C 
BRANCH  14  15
ATOM     15  N   UNL     1       7.693   5.699  18.382  0.00  0.00    +0.000 NA
ATOM     16  H   UNL     1       7.877   4.794  17.942  0.00  0.00    +0.000 HD
BRANCH  15  17
ATOM     17  C   UNL     1       7.124   6.603  17.374  0.00  0.00    +0.000 C 
BRANCH  17  18
ATOM     18  C   UNL     1       6.961   5.928  16.004  0.00  0.00    +0.000 C 
ATOM     19  C   UNL     1       5.526   5.889  15.497  0.00  0.00    +0.000 C 
ATOM     20  C   UNL     1       5.529   4.642  14.649  0.00  0.00    +0.000 C 
ATOM     21  C   UNL     1       6.426   3.725  15.448  0.00  0.00    +0.000 C 
ATOM     22  O   UNL     1       7.403   4.556  16.087  0.00  0.00    +0.000 OA
ENDBRANCH  17  18
ENDBRANCH  15  17
ENDBRANCH  14  15
ENDBRANCH   2  14
TORSDOF 7
ENDMDL
MODEL 3
REMARK VINA RESULT:      -6.6      1.339      1.556
REMARK  Name = 
REMARK  8 active torsions:
REMARK  status: ('A' for Active; 'I' for Inactive)
REMARK    1  A    between atoms: C_1  and  O_2
REMARK    2  A    between atoms: O_2  and  C_3
REMARK    3  A    between atoms: C_8  and  C_9
REMARK    4  A    between atoms: C_9  and  N_10
REMARK    5  A    between atoms: C_11  and  C_13
REMARK    6  A    between atoms: C_13  and  N_14
REMARK    7  A    between atoms: N_14  and  C_15
REMARK    8  A    between atoms: C_15  and  C_16
REMARK                            x       y       z     vdW  Elec       q    Type
REMARK                         _______ _______ _______ _____ _____    ______ ____
ROOT
ATOM      1  N   UNL     1       5.717   4.040  18.050  0.00  0.00    +0.000 N 
ATOM      2  C   UNL     1       6.973   4.584  17.998  0.00  0.00    +0.000 C 
ATOM      3  O   UNL     1       7.595   4.967  18.987  0.00  0.00    +0.000 OA
ATOM      4  H   UNL     1       5.270   3.697  17.210  0.00  0.00    +0.000 HD
ENDROOT
BRANCH   1   5
ATOM      5  C   UNL     1       4.991   3.856  19.293  0.00  0.00    +0.000 C 
BRANCH   5  11
ATOM      6  C   UNL     1       2.708   4.404  18.281  0.00  0.00    +0.000 A 
ATOM      7  C   UNL     1       1.384   4.035  18.012  0.00  0.00    +0.000 A 
ATOM      8  C   UNL     1       0.842   2.883  18.582  0.00  0.00    +0.000 A 
ATOM      9  C   UNL     1       1.634   2.069  19.384  0.00  0.00    +0.000 A 
ATOM     10  C   UNL     1       2.976   2.388  19.590  0.00  0.00    +0.000 A 
ATOM     11  C   UNL     1       3.534   3.557  19.042  0.00  0.00    +0.000 A 
BRANCH   6  13
ATOM     12  C   UNL     1       2.651   6.766  18.308  0.00  0.00    +0.000 C 
ATOM     13  O   UNL     1       3.257   5.570  17.812  0.00  0.00    +0.000 OA
ENDBRANCH   6  13
ENDBRANCH   5  11
ENDBRANCH   1   5
BRANCH   2  14
ATOM     14  C   UNL     1       7.588   4.633  16.589  0.00  0.00    +0.000 C 
BRANCH  14  15
ATOM     15  N   UNL     1       7.161   5.845  15.861  0.00  0.00    +0.000 NA
ATOM     16  H   UNL     1       7.973   6.197  15.348  0.00  0.00    +0.000 HD
BRANCH  15  17
ATOM     17  C   UNL     1       6.093   5.545  14.897  0.00  0.00    +0.000 C 
BRANCH  17  18
ATOM     18  C   UNL     1       6.383   4.281  14.074  0.00  0.00    +0.000 C 
ATOM     19  C   UNL     1       7.247   4.525  12.844  0.00  0.00    +0.000 C 
ATOM     20  C   UNL     1       6.774   3.440  11.910  0.00  0.00    +0.000 C 
ATOM     21  C   UNL     1       5.293   3.397  12.209  0.00  0.00    +0.000 C 
ATOM     22  O   UNL     1       5.141   3.721  13.596  0.00  0.00    +0.000 OA
ENDBRANCH  17  18
ENDBRANCH  15  17
ENDBRANCH  14  15
ENDBRANCH   2  14
TORSDOF 7
ENDMDL
MODEL 4
REMARK VINA RESULT:      -6.6      2.232      5.842
REMARK  Name = 
REMARK  8 active torsions:
REMARK  status: ('A' for Active; 'I' for Inactive)
REMARK    1  A    between atoms: C_1  and  O_2
REMARK    2  A    between atoms: O_2  and  C_3
REMARK    3  A    between atoms: C_8  and  C_9
REMARK    4  A    between atoms: C_9  and  N_10
REMARK    5  A    between atoms: C_11  and  C_13
REMARK    6  A    between atoms: C_13  and  N_14
REMARK    7  A    between atoms: N_14  and  C_15
REMARK    8  A    between atoms: C_15  and  C_16
REMARK                            x       y       z     vdW  Elec       q    Type
REMARK                         _______ _______ _______ _____ _____    ______ ____
ROOT
ATOM      1  N   UNL     1       3.592   6.461  18.624  0.00  0.00    +0.000 N 
ATOM      2  C   UNL     1       2.458   6.967  19.202  0.00  0.00    +0.000 C 
ATOM      3  O   UNL     1       1.879   7.976  18.805  0.00  0.00    +0.000 OA
ATOM      4  H   UNL     1       4.001   5.600  18.962  0.00  0.00    +0.000 HD
ENDROOT
BRANCH   1   5
ATOM      5  C   UNL     1       4.227   7.073  17.471  0.00  0.00    +0.000 C 
BRANCH   5  11
ATOM      6  C   UNL     1       6.204   5.454  17.527  0.00  0.00    +0.000 A 
ATOM      7  C   UNL     1       7.027   4.526  16.876  0.00  0.00    +0.000 A 
ATOM      8  C   UNL     1       6.929   4.341  15.497  0.00  0.00    +0.000 A 
ATOM      9  C   UNL     1       5.978   5.047  14.769  0.00  0.00    +0.000 A 
ATOM     10  C   UNL     1       5.101   5.913  15.424  0.00  0.00    +0.000 A 
ATOM     11  C   UNL     1       5.199   6.129  16.810  0.00  0.00    +0.000 A 
BRANCH   6  13
ATOM     12  C   UNL     1       7.643   5.604  19.395  0.00  0.00    +0.000 C 
ATOM     13  O   UNL     1       6.322   5.730  18.865  0.00  0.00    +0.000 OA
ENDBRANCH   6  13
ENDBRANCH   5  11
ENDBRANCH   1   5
BRANCH   2  14
ATOM     14  C   UNL     1       1.914   6.134  20.376  0.00  0.00    +0.000 C 
BRANCH  14  15
ATOM     15  N   UNL     1       2.832   5.029  20.717  0.00  0.00    +0.000 NA
ATOM     16  H   UNL     1       3.234   5.236  21.635  0.00  0.00    +0.000 HD
BRANCH  15  17
ATOM     17  C   UNL     1       2.123   3.744  20.796  0.00  0.00    +0.000 C 
BRANCH  17  18
ATOM     18  C   UNL     1       2.461   2.813  19.623  0.00  0.00    +0.000 C 
ATOM     19  C   UNL     1       3.948   2.721  19.311  0.00  0.00    +0.000 C 
ATOM     20  C   UNL     1       3.939   2.432  17.832  0.00  0.00    +0.000 C 
ATOM     21  C   UNL     1       2.778   3.275  17.357  0.00  0.00    +0.000 C 
ATOM     22  O   UNL     1       1.821   3.298  18.423  0.00  0.00    +0.000 OA
ENDBRANCH  17  18
ENDBRANCH  15  17
ENDBRANCH  14  15
ENDBRANCH   2  14
TORSDOF 7
ENDMDL
MODEL 5
REMARK VINA RESULT:      -6.5      2.318      6.200
REMARK  Name = 
REMARK  8 active torsions:
REMARK  status: ('A' for Active; 'I' for Inactive)
REMARK    1  A    between atoms: C_1  and  O_2
REMARK    2  A    between atoms: O_2  and  C_3
REMARK    3  A    between atoms: C_8  and  C_9
REMARK    4  A    between atoms: C_9  and  N_10
REMARK    5  A    between atoms: C_11  and  C_13
REMARK    6  A    between atoms: C_13  and  N_14
REMARK    7  A    between atoms: N_14  and  C_15
REMARK    8  A    between atoms: C_15  and  C_16
REMARK                            x       y       z     vdW  Elec       q    Type
REMARK                         _______ _______ _______ _____ _____    ______ ____
ROOT
ATOM      1  N   UNL     1       3.381   6.096  18.871  0.00  0.00    +0.000 N 
ATOM      2  C   UNL     1       2.390   6.694  19.603  0.00  0.00    +0.000 C 
ATOM      3  O   UNL     1       2.078   7.878  19.492  0.00  0.00    +0.000 OA
ATOM      4  H   UNL     1       3.565   5.106  18.968  0.00  0.00    +0.000 HD
ENDROOT
BRANCH   1   5
ATOM      5  C   UNL     1       4.166   6.808  17.880  0.00  0.00    +0.000 C 
BRANCH   5  11
ATOM      6  C   UNL     1       6.251   6.188  16.537  0.00  0.00    +0.000 A 
ATOM      7  C   UNL     1       6.992   5.238  15.822  0.00  0.00    +0.000 A 
ATOM      8  C   UNL     1       6.433   3.999  15.505  0.00  0.00    +0.000 A 
ATOM      9  C   UNL     1       5.150   3.687  15.940  0.00  0.00    +0.000 A 
ATOM     10  C   UNL     1       4.438   4.598  16.720  0.00  0.00    +0.000 A 
ATOM     11  C   UNL     1       4.976   5.860  17.031  0.00  0.00    +0.000 A 
BRANCH   6  13
ATOM     12  C   UNL     1       7.746   7.513  17.799  0.00  0.00    +0.000 C 
ATOM     13  O   UNL     1       6.728   7.447  16.798  0.00  0.00    +0.000 OA
ENDBRANCH   6  13
ENDBRANCH   5  11
ENDBRANCH   1   5
BRANCH   2  14
ATOM     14  C   UNL     1       1.640   5.747  20.555  0.00  0.00    +0.000 C 
BRANCH  14  15
ATOM     15  N   UNL     1       2.557   4.763  21.163  0.00  0.00    +0.000 NA
ATOM     16  H   UNL     1       2.940   5.185  22.013  0.00  0.00    +0.000 HD
BRANCH  15  17
ATOM     17  C   UNL     1       1.854   3.527  21.530  0.00  0.00    +0.000 C 
BRANCH  17  18
ATOM     18  C   UNL     1       2.109   2.388  20.531  0.00  0.00    +0.000 C 
ATOM     19  C   UNL     1       3.501   2.401  19.915  0.00  0.00    +0.000 C 
ATOM     20  C   UNL     1       3.252   1.767  18.570  0.00  0.00    +0.000 C 
ATOM     21  C   UNL     1       1.895   2.327  18.207  0.00  0.00    +0.000 C 
ATOM     22  O   UNL     1       1.175   2.491  19.435  0.00  0.00    +0.000 OA
ENDBRANCH  17  18
ENDBRANCH  15  17
ENDBRANCH  14  15
ENDBRANCH   2  14
TORSDOF 7
ENDMDL
MODEL 6
REMARK VINA RESULT:      -6.5      1.706      2.350
REMARK  Name = 
REMARK  8 active torsions:
REMARK  status: ('A' for Active; 'I' for Inactive)
REMARK    1  A    between atoms: C_1  and  O_2
REMARK    2  A    between atoms: O_2  and  C_3
REMARK    3  A    between atoms: C_8  and  C_9
REMARK    4  A    between atoms: C_9  and  N_10
REMARK    5  A    between atoms: C_11  and  C_13
REMARK    6  A    between atoms: C_13  and  N_14
REMARK    7  A    between atoms: N_14  and  C_15
REMARK    8  A    between atoms: C_15  and  C_16
REMARK                            x       y       z     vdW  Elec       q    Type
REMARK                         _______ _______ _______ _____ _____    ______ ____
ROOT
ATOM      1  N   UNL     1       4.777   3.448  17.540  0.00  0.00    +0.000 N 
ATOM      2  C   UNL     1       5.381   4.670  17.675  0.00  0.00    +0.000 C 
ATOM      3  O   UNL     1       4.768   5.733  17.742  0.00  0.00    +0.000 OA
ATOM      4  H   UNL     1       5.328   2.599  17.538  0.00  0.00    +0.000 HD
ENDROOT
BRANCH   1   5
ATOM      5  C   UNL     1       3.336   3.287  17.465  0.00  0.00    +0.000 C 
BRANCH   5  11
ATOM      6  C   UNL     1       3.262   2.594  19.925  0.00  0.00    +0.000 A 
ATOM      7  C   UNL     1       2.680   2.700  21.195  0.00  0.00    +0.000 A 
ATOM      8  C   UNL     1       1.493   3.411  21.370  0.00  0.00    +0.000 A 
ATOM      9  C   UNL     1       0.906   4.057  20.289  0.00  0.00    +0.000 A 
ATOM     10  C   UNL     1       1.522   4.022  19.038  0.00  0.00    +0.000 A 
ATOM     11  C   UNL     1       2.708   3.292  18.837  0.00  0.00    +0.000 A 
BRANCH   6  13
ATOM     12  C   UNL     1       5.071   1.397  20.860  0.00  0.00    +0.000 C 
ATOM     13  O   UNL     1       4.381   1.837  19.689  0.00  0.00    +0.000 OA
ENDBRANCH   6  13
ENDBRANCH   5  11
ENDBRANCH   1   5
BRANCH   2  14
ATOM     14  C   UNL     1       6.914   4.613  17.796  0.00  0.00    +0.000 C 
BRANCH  14  15
ATOM     15  N   UNL     1       7.533   4.148  16.538  0.00  0.00    +0.000 NA
ATOM     16  H   UNL     1       6.916   3.437  16.138  0.00  0.00    +0.000 HD
BRANCH  15  17
ATOM     17  C   UNL     1       7.674   5.245  15.571  0.00  0.00    +0.000 C 
BRANCH  17  18
ATOM     18  C   UNL     1       6.773   5.063  14.341  0.00  0.00    +0.000 C 
ATOM     19  C   UNL     1       6.171   3.670  14.211  0.00  0.00    +0.000 C 
ATOM     20  C   UNL     1       6.015   3.536  12.717  0.00  0.00    +0.000 C 
ATOM     21  C   UNL     1       7.253   4.239  12.210  0.00  0.00    +0.000 C 
ATOM     22  O   UNL     1       7.543   5.289  13.140  0.00  0.00    +0.000 OA
ENDBRANCH  17  18
ENDBRANCH  15  17
ENDBRANCH  14  15
ENDBRANCH   2  14
TORSDOF 7
ENDMDL
MODEL 7
REMARK VINA RESULT:      -6.5      0.961      1.160
REMARK  Name = 
REMARK  8 active torsions:
REMARK  status: ('A' for Active; 'I' for Inactive)
REMARK    1  A    between atoms: C_1  and  O_2
REMARK    2  A    between atoms: O_2  and  C_3
REMARK    3  A    between atoms: C_8  and  C_9
REMARK    4  A    between atoms: C_9  and  N_10
REMARK    5  A    between atoms: C_11  and  C_13
REMARK    6  A    between atoms: C_13  and  N_14
REMARK    7  A    between atoms: N_14  and  C_15
REMARK    8  A    between atoms: C_15  and  C_16
REMARK                            x       y       z     vdW  Elec       q    Type
REMARK                         _______ _______ _______ _____ _____    ______ ____
ROOT
ATOM      1  N   UNL     1       5.563   5.146  18.684  0.00  0.00    +0.000 N 
ATOM      2  C   UNL     1       6.828   5.249  18.171  0.00  0.00    +0.000 C 
ATOM      3  O   UNL     1       7.718   4.424  18.372  0.00  0.00    +0.000 OA
ATOM      4  H   UNL     1       4.855   5.829  18.448  0.00  0.00    +0.000 HD
ENDROOT
BRANCH   1   5
ATOM      5  C   UNL     1       5.141   4.038  19.522  0.00  0.00    +0.000 C 
BRANCH   5  11
ATOM      6  C   UNL     1       2.608   4.378  19.548  0.00  0.00    +0.000 A 
ATOM      7  C   UNL     1       1.328   3.969  19.152  0.00  0.00    +0.000 A 
ATOM      8  C   UNL     1       1.146   2.746  18.505  0.00  0.00    +0.000 A 
ATOM      9  C   UNL     1       2.246   1.949  18.209  0.00  0.00    +0.000 A 
ATOM     10  C   UNL     1       3.531   2.388  18.528  0.00  0.00    +0.000 A 
ATOM     11  C   UNL     1       3.732   3.608  19.200  0.00  0.00    +0.000 A 
BRANCH   6  13
ATOM     12  C   UNL     1       2.444   6.735  19.592  0.00  0.00    +0.000 C 
ATOM     13  O   UNL     1       2.824   5.530  20.260  0.00  0.00    +0.000 OA
ENDBRANCH   6  13
ENDBRANCH   5  11
ENDBRANCH   1   5
BRANCH   2  14
ATOM     14  C   UNL     1       7.050   6.468  17.259  0.00  0.00    +0.000 C 
BRANCH  14  15
ATOM     15  N   UNL     1       7.432   6.053  15.895  0.00  0.00    +0.000 NA
ATOM     16  H   UNL     1       8.214   5.399  15.981  0.00  0.00    +0.000 HD
BRANCH  15  17
ATOM     17  C   UNL     1       6.325   5.372  15.209  0.00  0.00    +0.000 C 
BRANCH  17  18
ATOM     18  C   UNL     1       6.816   4.340  14.183  0.00  0.00    +0.000 C 
ATOM     19  C   UNL     1       7.424   4.952  12.929  0.00  0.00    +0.000 C 
ATOM     20  C   UNL     1       7.123   3.899  11.892  0.00  0.00    +0.000 C 
ATOM     21  C   UNL     1       5.752   3.426  12.318  0.00  0.00    +0.000 C 
ATOM     22  O   UNL     1       5.704   3.530  13.746  0.00  0.00    +0.000 OA
ENDBRANCH  17  18
ENDBRANCH  15  17
ENDBRANCH  14  15
ENDBRANCH   2  14
TORSDOF 7
ENDMDL
MODEL 8
REMARK VINA RESULT:      -6.5      4.169      6.069
REMARK  Name = 
REMARK  8 active torsions:
REMARK  status: ('A' for Active; 'I' for Inactive)
REMARK    1  A    between atoms: C_1  and  O_2
REMARK    2  A    between atoms: O_2  and  C_3
REMARK    3  A    between atoms: C_8  and  C_9
REMARK    4  A    between atoms: C_9  and  N_10
REMARK    5  A    between atoms: C_11  and  C_13
REMARK    6  A    between atoms: C_13  and  N_14
REMARK    7  A    between atoms: N_14  and  C_15
REMARK    8  A    between atoms: C_15  and  C_16
REMARK                            x       y       z     vdW  Elec       q    Type
REMARK                         _______ _______ _______ _____ _____    ______ ____
ROOT
ATOM      1  N   UNL     1       7.554   6.452  18.603  0.00  0.00    +0.000 N 
ATOM      2  C   UNL     1       7.756   7.304  17.550  0.00  0.00    +0.000 C 
ATOM      3  O   UNL     1       7.733   6.954  16.372  0.00  0.00    +0.000 OA
ATOM      4  H   UNL     1       7.536   6.802  19.552  0.00  0.00    +0.000 HD
ENDROOT
BRANCH   1   5
ATOM      5  C   UNL     1       7.288   5.035  18.428  0.00  0.00    +0.000 C 
BRANCH   5  11
ATOM      6  C   UNL     1       5.333   4.200  17.010  0.00  0.00    +0.000 A 
ATOM      7  C   UNL     1       3.969   3.905  16.883  0.00  0.00    +0.000 A 
ATOM      8  C   UNL     1       3.071   4.271  17.887  0.00  0.00    +0.000 A 
ATOM      9  C   UNL     1       3.536   4.891  19.040  0.00  0.00    +0.000 A 
ATOM     10  C   UNL     1       4.903   5.115  19.208  0.00  0.00    +0.000 A 
ATOM     11  C   UNL     1       5.821   4.773  18.198  0.00  0.00    +0.000 A 
BRANCH   6  13
ATOM     12  C   UNL     1       5.909   4.483  14.737  0.00  0.00    +0.000 C 
ATOM     13  O   UNL     1       6.238   3.936  16.015  0.00  0.00    +0.000 OA
ENDBRANCH   6  13
ENDBRANCH   5  11
ENDBRANCH   1   5
BRANCH   2  14
ATOM     14  C   UNL     1       7.962   8.775  17.951  0.00  0.00    +0.000 C 
BRANCH  14  15
ATOM     15  N   UNL     1       8.955   8.899  19.037  0.00  0.00    +0.000 NA
ATOM     16  H   UNL     1       9.810   8.434  18.725  0.00  0.00    +0.000 HD
BRANCH  15  17
ATOM     17  C   UNL     1       9.265  10.307  19.323  0.00  0.00    +0.000 C 
BRANCH  17  18
ATOM     18  C   UNL     1       9.712  11.076  18.072  0.00  0.00    +0.000 C 
ATOM     19  C   UNL     1      11.131  11.624  18.152  0.00  0.00    +0.000 C 
ATOM     20  C   UNL     1      11.044  12.844  17.271  0.00  0.00    +0.000 C 
ATOM     21  C   UNL     1       9.658  13.359  17.589  0.00  0.00    +0.000 C 
ATOM     22  O   UNL     1       8.846  12.213  17.869  0.00  0.00    +0.000 OA
ENDBRANCH  17  18
ENDBRANCH  15  17
ENDBRANCH  14  15
ENDBRANCH   2  14
TORSDOF 7
ENDMDL
MODEL 9
REMARK VINA RESULT:      -6.4      1.346      1.920
REMARK  Name = 
REMARK  8 active torsions:
REMARK  status: ('A' for Active; 'I' for Inactive)
REMARK    1  A    between atoms: C_1  and  O_2
REMARK    2  A    between atoms: O_2  and  C_3
REMARK    3  A    between atoms: C_8  and  C_9
REMARK    4  A    between atoms: C_9  and  N_10
REMARK    5  A    between atoms: C_11  and  C_13
REMARK    6  A    between atoms: C_13  and  N_14
REMARK    7  A    between atoms: N_14  and  C_15
REMARK    8  A    between atoms: C_15  and  C_16
REMARK                            x       y       z     vdW  Elec       q    Type
REMARK                         _______ _______ _______ _____ _____    ______ ____
ROOT
ATOM      1  N   UNL     1       4.939   5.843  18.645  0.00  0.00    +0.000 N 
ATOM      2  C   UNL     1       6.250   5.452  18.586  0.00  0.00    +0.000 C 
ATOM      3  O   UNL     1       6.789   4.735  19.428  0.00  0.00    +0.000 OA
ATOM      4  H   UNL     1       4.533   6.394  17.900  0.00  0.00    +0.000 HD
ENDROOT
BRANCH   1   5
ATOM      5  C   UNL     1       4.047   5.444  19.718  0.00  0.00    +0.000 C 
BRANCH   5  11
ATOM      6  C   UNL     1       2.896   3.163  19.817  0.00  0.00    +0.000 A 
ATOM      7  C   UNL     1       1.877   2.302  19.389  0.00  0.00    +0.000 A 
ATOM      8  C   UNL     1       1.052   2.660  18.323  0.00  0.00    +0.000 A 
ATOM      9  C   UNL     1       1.210   3.897  17.709  0.00  0.00    +0.000 A 
ATOM     10  C   UNL     1       2.170   4.792  18.182  0.00  0.00    +0.000 A 
ATOM     11  C   UNL     1       3.026   4.440  19.242  0.00  0.00    +0.000 A 
BRANCH   6  13
ATOM     12  C   UNL     1       4.775   1.864  20.420  0.00  0.00    +0.000 C 
ATOM     13  O   UNL     1       3.784   2.819  20.804  0.00  0.00    +0.000 OA
ENDBRANCH   6  13
ENDBRANCH   5  11
ENDBRANCH   1   5
BRANCH   2  14
ATOM     14  C   UNL     1       7.005   5.935  17.336  0.00  0.00    +0.000 C 
BRANCH  14  15
ATOM     15  N   UNL     1       7.469   4.797  16.517  0.00  0.00    +0.000 NA
ATOM     16  H   UNL     1       7.872   4.106  17.154  0.00  0.00    +0.000 HD
BRANCH  15  17
ATOM     17  C   UNL     1       6.358   4.170  15.789  0.00  0.00    +0.000 C 
BRANCH  17  18
ATOM     18  C   UNL     1       6.255   4.662  14.337  0.00  0.00    +0.000 C 
ATOM     19  C   UNL     1       6.245   3.546  13.302  0.00  0.00    +0.000 C 
ATOM     20  C   UNL     1       6.868   4.223  12.108  0.00  0.00    +0.000 C 
ATOM     21  C   UNL     1       7.917   5.096  12.757  0.00  0.00    +0.000 C 
ATOM     22  O   UNL     1       7.393   5.496  14.029  0.00  0.00    +0.000 OA
ENDBRANCH  17  18
ENDBRANCH  15  17
ENDBRANCH  14  15
ENDBRANCH   2  14
TORSDOF 7
ENDMDL
