MODEL 1
REMARK VINA RESULT:      -9.0      0.000      0.000
REMARK  Name = 
REMARK  5 active torsions:
REMARK  status: ('A' for Active; 'I' for Inactive)
REMARK    1  A    between atoms: C_1  and  C_2
REMARK    2  A    between atoms: C_5  and  C_6
REMARK    3  A    between atoms: C_7  and  C_8
REMARK    4  A    between atoms: C_8  and  C_10
REMARK    5  A    between atoms: C_13  and  N_14
REMARK                            x       y       z     vdW  Elec       q    Type
REMARK                         _______ _______ _______ _____ _____    ______ ____
ROOT
ATOM      1  C   UNL     1       5.922   6.428  17.736  0.00  0.00    +0.000 A 
ATOM      2  C   UNL     1       5.907   5.415  18.697  0.00  0.00    +0.000 A 
ATOM      3  C   UNL     1       4.690   4.913  19.178  0.00  0.00    +0.000 A 
ATOM      4  C   UNL     1       3.453   5.412  18.739  0.00  0.00    +0.000 A 
ATOM      5  C   UNL     1       3.493   6.456  17.805  0.00  0.00    +0.000 A 
ATOM      6  C   UNL     1       4.705   6.958  17.301  0.00  0.00    +0.000 A 
ENDROOT
BRANCH   4   7
ATOM      7  N   UNL     1       2.270   4.902  19.232  0.00  0.00    +0.000 N 
ATOM      8  C   UNL     1       1.479   3.881  18.527  0.00  0.00    +0.000 C 
ATOM      9  C   UNL     1       1.435   2.563  19.329  0.00  0.00    +0.000 C 
ATOM     10  N   UNL     1       0.974   2.739  20.720  0.00  0.00    +0.000 NA
ATOM     11  C   UNL     1       1.828   3.741  21.388  0.00  0.00    +0.000 C 
ATOM     12  C   UNL     1       1.896   5.099  20.645  0.00  0.00    +0.000 C 
ATOM     13  H   UNL     1       1.053   1.851  21.214  0.00  0.00    +0.000 HD
ENDBRANCH   4   7
BRANCH   1  14
ATOM     14  C   UNL     1       7.241   6.920  17.244  0.00  0.00    +0.000 C 
ATOM     15  O   UNL     1       7.701   6.509  16.184  0.00  0.00    +0.000 OA
BRANCH  14  17
ATOM     16  C   UNL     1       8.031   9.220  17.638  0.00  0.00    +0.000 C 
ATOM     17  C   UNL     1       7.949   7.949  18.059  0.00  0.00    +0.000 C 
BRANCH  16  22
ATOM     18  C   UNL     1      10.764  13.524  20.411  0.00  0.00    +0.000 C 
ATOM     19  C   UNL     1      10.070  12.410  19.685  0.00  0.00    +0.000 A 
ATOM     20  C   UNL     1       9.417  12.630  18.469  0.00  0.00    +0.000 A 
ATOM     21  C   UNL     1       8.758  11.581  17.815  0.00  0.00    +0.000 A 
ATOM     22  C   UNL     1       8.748  10.289  18.357  0.00  0.00    +0.000 A 
ATOM     23  C   UNL     1       9.396  10.080  19.581  0.00  0.00    +0.000 A 
ATOM     24  C   UNL     1      10.054  11.126  20.235  0.00  0.00    +0.000 A 
ENDBRANCH  16  22
ENDBRANCH  14  17
ENDBRANCH   1  14
TORSDOF 4
ENDMDL
MODEL 2
REMARK VINA RESULT:      -9.0      0.138      1.421
REMARK  Name = 
REMARK  5 active torsions:
REMARK  status: ('A' for Active; 'I' for Inactive)
REMARK    1  A    between atoms: C_1  and  C_2
REMARK    2  A    between atoms: C_5  and  C_6
REMARK    3  A    between atoms: C_7  and  C_8
REMARK    4  A    between atoms: C_8  and  C_10
REMARK    5  A    between atoms: C_13  and  N_14
REMARK                            x       y       z     vdW  Elec       q    Type
REMARK                         _______ _______ _______ _____ _____    ______ ____
ROOT
ATOM      1  C   UNL     1       6.017   6.371  17.796  0.00  0.00    +0.000 A 
ATOM      2  C   UNL     1       4.828   6.908  17.296  0.00  0.00    +0.000 A 
ATOM      3  C   UNL     1       3.590   6.431  17.748  0.00  0.00    +0.000 A 
ATOM      4  C   UNL     1       3.491   5.395  18.690  0.00  0.00    +0.000 A 
ATOM      5  C   UNL     1       4.696   4.844  19.147  0.00  0.00    +0.000 A 
ATOM      6  C   UNL     1       5.944   5.323  18.716  0.00  0.00    +0.000 A 
ENDROOT
BRANCH   4   7
ATOM      7  N   UNL     1       2.259   4.942  19.115  0.00  0.00    +0.000 N 
ATOM      8  C   UNL     1       1.446   3.985  18.349  0.00  0.00    +0.000 C 
ATOM      9  C   UNL     1       1.291   2.652  19.111  0.00  0.00    +0.000 C 
ATOM     10  N   UNL     1       0.778   2.819  20.484  0.00  0.00    +0.000 NA
ATOM     11  C   UNL     1       1.654   3.754  21.217  0.00  0.00    +0.000 C 
ATOM     12  C   UNL     1       1.833   5.124  20.516  0.00  0.00    +0.000 C 
ATOM     13  H   UNL     1       0.784   1.916  20.957  0.00  0.00    +0.000 HD
ENDBRANCH   4   7
BRANCH   1  14
ATOM     14  C   UNL     1       7.310   6.920  17.295  0.00  0.00    +0.000 C 
ATOM     15  O   UNL     1       7.787   6.520  16.239  0.00  0.00    +0.000 OA
BRANCH  14  17
ATOM     16  C   UNL     1       8.049   9.246  17.629  0.00  0.00    +0.000 C 
ATOM     17  C   UNL     1       7.969   7.992  18.096  0.00  0.00    +0.000 C 
BRANCH  16  22
ATOM     18  C   UNL     1      10.774  13.514  20.467  0.00  0.00    +0.000 C 
ATOM     19  C   UNL     1      10.057  12.413  19.742  0.00  0.00    +0.000 A 
ATOM     20  C   UNL     1       9.990  11.120  20.268  0.00  0.00    +0.000 A 
ATOM     21  C   UNL     1       9.333  10.100  19.568  0.00  0.00    +0.000 A 
ATOM     22  C   UNL     1       8.719  10.354  18.334  0.00  0.00    +0.000 A 
ATOM     23  C   UNL     1       8.800  11.651  17.810  0.00  0.00    +0.000 A 
ATOM     24  C   UNL     1       9.456  12.670  18.508  0.00  0.00    +0.000 A 
ENDBRANCH  16  22
ENDBRANCH  14  17
ENDBRANCH   1  14
TORSDOF 4
ENDMDL
MODEL 3
REMARK VINA RESULT:      -8.9      0.230      1.028
REMARK  Name = 
REMARK  5 active torsions:
REMARK  status: ('A' for Active; 'I' for Inactive)
REMARK    1  A    between atoms: C_1  and  C_2
REMARK    2  A    between atoms: C_5  and  C_6
REMARK    3  A    between atoms: C_7  and  C_8
REMARK    4  A    between atoms: C_8  and  C_10
REMARK    5  A    between atoms: C_13  and  N_14
REMARK                            x       y       z     vdW  Elec       q    Type
REMARK                         _______ _______ _______ _____ _____    ______ ____
ROOT
ATOM      1  C   UNL     1       5.992   6.272  17.787  0.00  0.00    +0.000 A 
ATOM      2  C   UNL     1       5.994   5.450  18.916  0.00  0.00    +0.000 A 
ATOM      3  C   UNL     1       4.790   4.946  19.428  0.00  0.00    +0.000 A 
ATOM      4  C   UNL     1       3.548   5.259  18.852  0.00  0.00    +0.000 A 
ATOM      5  C   UNL     1       3.568   6.118  17.745  0.00  0.00    +0.000 A 
ATOM      6  C   UNL     1       4.768   6.617  17.211  0.00  0.00    +0.000 A 
ENDROOT
BRANCH   4   7
ATOM      7  N   UNL     1       2.377   4.753  19.378  0.00  0.00    +0.000 N 
ATOM      8  C   UNL     1       1.506   3.818  18.648  0.00  0.00    +0.000 C 
ATOM      9  C   UNL     1       1.458   2.443  19.347  0.00  0.00    +0.000 C 
ATOM     10  N   UNL     1       1.090   2.524  20.774  0.00  0.00    +0.000 NA
ATOM     11  C   UNL     1       2.021   3.440  21.462  0.00  0.00    +0.000 C 
ATOM     12  C   UNL     1       2.098   4.850  20.823  0.00  0.00    +0.000 C 
ATOM     13  H   UNL     1       1.163   1.597  21.192  0.00  0.00    +0.000 HD
ENDBRANCH   4   7
BRANCH   1  14
ATOM     14  C   UNL     1       7.299   6.771  17.271  0.00  0.00    +0.000 C 
ATOM     15  O   UNL     1       7.774   6.313  16.238  0.00  0.00    +0.000 OA
BRANCH  14  17
ATOM     16  C   UNL     1       7.930   9.131  17.589  0.00  0.00    +0.000 C 
ATOM     17  C   UNL     1       7.975   7.865  18.027  0.00  0.00    +0.000 C 
BRANCH  16  22
ATOM     18  C   UNL     1      10.684  13.499  20.239  0.00  0.00    +0.000 C 
ATOM     19  C   UNL     1       9.961  12.372  19.564  0.00  0.00    +0.000 A 
ATOM     20  C   UNL     1      10.002  11.072  20.075  0.00  0.00    +0.000 A 
ATOM     21  C   UNL     1       9.337  10.028  19.420  0.00  0.00    +0.000 A 
ATOM     22  C   UNL     1       8.605  10.264  18.248  0.00  0.00    +0.000 A 
ATOM     23  C   UNL     1       8.577  11.568  17.738  0.00  0.00    +0.000 A 
ATOM     24  C   UNL     1       9.241  12.612  18.391  0.00  0.00    +0.000 A 
ENDBRANCH  16  22
ENDBRANCH  14  17
ENDBRANCH   1  14
TORSDOF 4
ENDMDL
MODEL 4
REMARK VINA RESULT:      -8.8      0.360      1.021
REMARK  Name = 
REMARK  5 active torsions:
REMARK  status: ('A' for Active; 'I' for Inactive)
REMARK    1  A    between atoms: C_1  and  C_2
REMARK    2  A    between atoms: C_5  and  C_6
REMARK    3  A    between atoms: C_7  and  C_8
REMARK    4  A    between atoms: C_8  and  C_10
REMARK    5  A    between atoms: C_13  and  N_14
REMARK                            x       y       z     vdW  Elec       q    Type
REMARK                         _______ _______ _______ _____ _____    ______ ____
ROOT
ATOM      1  C   UNL     1       6.004   6.177  17.621  0.00  0.00    +0.000 A 
ATOM      2  C   UNL     1       4.882   7.000  17.509  0.00  0.00    +0.000 A 
ATOM      3  C   UNL     1       3.629   6.553  17.951  0.00  0.00    +0.000 A 
ATOM      4  C   UNL     1       3.445   5.272  18.495  0.00  0.00    +0.000 A 
ATOM      5  C   UNL     1       4.578   4.449  18.560  0.00  0.00    +0.000 A 
ATOM      6  C   UNL     1       5.843   4.890  18.137  0.00  0.00    +0.000 A 
ENDROOT
BRANCH   4   7
ATOM      7  N   UNL     1       2.200   4.855  18.919  0.00  0.00    +0.000 N 
ATOM      8  C   UNL     1       1.398   3.856  18.196  0.00  0.00    +0.000 C 
ATOM      9  C   UNL     1       1.215   2.576  19.039  0.00  0.00    +0.000 C 
ATOM     10  N   UNL     1       0.670   2.835  20.386  0.00  0.00    +0.000 NA
ATOM     11  C   UNL     1       1.536   3.811  21.078  0.00  0.00    +0.000 C 
ATOM     12  C   UNL     1       1.742   5.131  20.293  0.00  0.00    +0.000 C 
ATOM     13  H   UNL     1       0.658   1.965  20.916  0.00  0.00    +0.000 HD
ENDBRANCH   4   7
BRANCH   1  14
ATOM     14  C   UNL     1       7.319   6.703  17.150  0.00  0.00    +0.000 C 
ATOM     15  O   UNL     1       7.804   6.307  16.096  0.00  0.00    +0.000 OA
BRANCH  14  17
ATOM     16  C   UNL     1       7.972   9.033  17.609  0.00  0.00    +0.000 C 
ATOM     17  C   UNL     1       7.991   7.744  17.980  0.00  0.00    +0.000 C 
BRANCH  16  22
ATOM     18  C   UNL     1      10.542  13.403  20.435  0.00  0.00    +0.000 C 
ATOM     19  C   UNL     1       9.891  12.271  19.697  0.00  0.00    +0.000 A 
ATOM     20  C   UNL     1       9.347  12.452  18.422  0.00  0.00    +0.000 A 
ATOM     21  C   UNL     1       8.725  11.388  17.756  0.00  0.00    +0.000 A 
ATOM     22  C   UNL     1       8.645  10.119  18.345  0.00  0.00    +0.000 A 
ATOM     23  C   UNL     1       9.184   9.949  19.626  0.00  0.00    +0.000 A 
ATOM     24  C   UNL     1       9.805  11.011  20.293  0.00  0.00    +0.000 A 
ENDBRANCH  16  22
ENDBRANCH  14  17
ENDBRANCH   1  14
TORSDOF 4
ENDMDL
MODEL 5
REMARK VINA RESULT:      -8.6      1.058      1.807
REMARK  Name = 
REMARK  5 active torsions:
REMARK  status: ('A' for Active; 'I' for Inactive)
REMARK    1  A    between atoms: C_1  and  C_2
REMARK    2  A    between atoms: C_5  and  C_6
REMARK    3  A    between atoms: C_7  and  C_8
REMARK    4  A    between atoms: C_8  and  C_10
REMARK    5  A    between atoms: C_13  and  N_14
REMARK                            x       y       z     vdW  Elec       q    Type
REMARK                         _______ _______ _______ _____ _____    ______ ____
ROOT
ATOM      1  C   UNL     1       6.226   5.650  17.689  0.00  0.00    +0.000 A 
ATOM      2  C   UNL     1       6.173   5.484  19.075  0.00  0.00    +0.000 A 
ATOM      3  C   UNL     1       5.175   4.689  19.655  0.00  0.00    +0.000 A 
ATOM      4  C   UNL     1       4.188   4.053  18.885  0.00  0.00    +0.000 A 
ATOM      5  C   UNL     1       4.237   4.267  17.501  0.00  0.00    +0.000 A 
ATOM      6  C   UNL     1       5.241   5.048  16.904  0.00  0.00    +0.000 A 
ENDROOT
BRANCH   4   7
ATOM      7  N   UNL     1       3.215   3.279  19.482  0.00  0.00    +0.000 N 
ATOM      8  C   UNL     1       2.606   3.613  20.779  0.00  0.00    +0.000 C 
ATOM      9  C   UNL     1       1.104   3.933  20.622  0.00  0.00    +0.000 C 
ATOM     10  N   UNL     1       0.349   2.873  19.926  0.00  0.00    +0.000 NA
ATOM     11  C   UNL     1       0.979   2.610  18.617  0.00  0.00    +0.000 C 
ATOM     12  C   UNL     1       2.486   2.258  18.707  0.00  0.00    +0.000 C 
ATOM     13  H   UNL     1      -0.609   3.186  19.779  0.00  0.00    +0.000 HD
ENDBRANCH   4   7
BRANCH   1  14
ATOM     14  C   UNL     1       7.315   6.494  17.117  0.00  0.00    +0.000 C 
ATOM     15  O   UNL     1       7.697   6.316  15.965  0.00  0.00    +0.000 OA
BRANCH  14  17
ATOM     16  C   UNL     1       7.984   8.831  17.514  0.00  0.00    +0.000 C 
ATOM     17  C   UNL     1       7.882   7.575  17.973  0.00  0.00    +0.000 C 
BRANCH  16  22
ATOM     18  C   UNL     1      10.378  13.138  20.581  0.00  0.00    +0.000 C 
ATOM     19  C   UNL     1       9.746  12.027  19.796  0.00  0.00    +0.000 A 
ATOM     20  C   UNL     1       9.650  10.733  20.316  0.00  0.00    +0.000 A 
ATOM     21  C   UNL     1       9.075   9.703  19.560  0.00  0.00    +0.000 A 
ATOM     22  C   UNL     1       8.571   9.948  18.276  0.00  0.00    +0.000 A 
ATOM     23  C   UNL     1       8.680  11.246  17.759  0.00  0.00    +0.000 A 
ATOM     24  C   UNL     1       9.255  12.275  18.512  0.00  0.00    +0.000 A 
ENDBRANCH  16  22
ENDBRANCH  14  17
ENDBRANCH   1  14
TORSDOF 4
ENDMDL
MODEL 6
REMARK VINA RESULT:      -8.5      1.032      1.498
REMARK  Name = 
REMARK  5 active torsions:
REMARK  status: ('A' for Active; 'I' for Inactive)
REMARK    1  A    between atoms: C_1  and  C_2
REMARK    2  A    between atoms: C_5  and  C_6
REMARK    3  A    between atoms: C_7  and  C_8
REMARK    4  A    between atoms: C_8  and  C_10
REMARK    5  A    between atoms: C_13  and  N_14
REMARK                            x       y       z     vdW  Elec       q    Type
REMARK                         _______ _______ _______ _____ _____    ______ ____
ROOT
ATOM      1  C   UNL     1       6.235   5.663  17.674  0.00  0.00    +0.000 A 
ATOM      2  C   UNL     1       6.267   5.296  19.021  0.00  0.00    +0.000 A 
ATOM      3  C   UNL     1       5.276   4.458  19.550  0.00  0.00    +0.000 A 
ATOM      4  C   UNL     1       4.213   3.977  18.769  0.00  0.00    +0.000 A 
ATOM      5  C   UNL     1       4.179   4.392  17.431  0.00  0.00    +0.000 A 
ATOM      6  C   UNL     1       5.175   5.217  16.882  0.00  0.00    +0.000 A 
ENDROOT
BRANCH   4   7
ATOM      7  N   UNL     1       3.248   3.156  19.316  0.00  0.00    +0.000 N 
ATOM      8  C   UNL     1       2.834   3.231  20.725  0.00  0.00    +0.000 C 
ATOM      9  C   UNL     1       1.362   3.680  20.848  0.00  0.00    +0.000 C 
ATOM     10  N   UNL     1       0.430   2.855  20.053  0.00  0.00    +0.000 NA
ATOM     11  C   UNL     1       0.871   2.851  18.644  0.00  0.00    +0.000 C 
ATOM     12  C   UNL     1       2.336   2.386  18.449  0.00  0.00    +0.000 C 
ATOM     13  H   UNL     1      -0.504   3.257  20.110  0.00  0.00    +0.000 HD
ENDBRANCH   4   7
BRANCH   1  14
ATOM     14  C   UNL     1       7.320   6.545  17.153  0.00  0.00    +0.000 C 
ATOM     15  O   UNL     1       7.767   6.378  16.024  0.00  0.00    +0.000 OA
BRANCH  14  17
ATOM     16  C   UNL     1       8.115   8.848  17.518  0.00  0.00    +0.000 C 
ATOM     17  C   UNL     1       7.803   7.649  18.032  0.00  0.00    +0.000 C 
BRANCH  16  22
ATOM     18  C   UNL     1      10.091  13.386  20.549  0.00  0.00    +0.000 C 
ATOM     19  C   UNL     1       9.593  12.212  19.758  0.00  0.00    +0.000 A 
ATOM     20  C   UNL     1       9.053  12.374  18.479  0.00  0.00    +0.000 A 
ATOM     21  C   UNL     1       8.576  11.269  17.763  0.00  0.00    +0.000 A 
ATOM     22  C   UNL     1       8.640   9.978  18.305  0.00  0.00    +0.000 A 
ATOM     23  C   UNL     1       9.173   9.826  19.591  0.00  0.00    +0.000 A 
ATOM     24  C   UNL     1       9.650  10.929  20.308  0.00  0.00    +0.000 A 
ENDBRANCH  16  22
ENDBRANCH  14  17
ENDBRANCH   1  14
TORSDOF 4
ENDMDL
MODEL 7
REMARK VINA RESULT:      -8.5      0.815      1.774
REMARK  Name = 
REMARK  5 active torsions:
REMARK  status: ('A' for Active; 'I' for Inactive)
REMARK    1  A    between atoms: C_1  and  C_2
REMARK    2  A    between atoms: C_5  and  C_6
REMARK    3  A    between atoms: C_7  and  C_8
REMARK    4  A    between atoms: C_8  and  C_10
REMARK    5  A    between atoms: C_13  and  N_14
REMARK                            x       y       z     vdW  Elec       q    Type
REMARK                         _______ _______ _______ _____ _____    ______ ____
ROOT
ATOM      1  C   UNL     1       6.232   5.875  17.707  0.00  0.00    +0.000 A 
ATOM      2  C   UNL     1       4.920   6.306  17.497  0.00  0.00    +0.000 A 
ATOM      3  C   UNL     1       3.841   5.552  17.980  0.00  0.00    +0.000 A 
ATOM      4  C   UNL     1       4.027   4.341  18.664  0.00  0.00    +0.000 A 
ATOM      5  C   UNL     1       5.350   3.908  18.827  0.00  0.00    +0.000 A 
ATOM      6  C   UNL     1       6.442   4.661  18.363  0.00  0.00    +0.000 A 
ENDROOT
BRANCH   4   7
ATOM      7  N   UNL     1       2.948   3.616  19.125  0.00  0.00    +0.000 N 
ATOM      8  C   UNL     1       3.083   2.447  20.009  0.00  0.00    +0.000 C 
ATOM      9  C   UNL     1       2.453   2.721  21.391  0.00  0.00    +0.000 C 
ATOM     10  N   UNL     1       1.053   3.184  21.316  0.00  0.00    +0.000 NA
ATOM     11  C   UNL     1       0.985   4.379  20.452  0.00  0.00    +0.000 C 
ATOM     12  C   UNL     1       1.581   4.164  19.038  0.00  0.00    +0.000 C 
ATOM     13  H   UNL     1       0.730   3.428  22.251  0.00  0.00    +0.000 HD
ENDBRANCH   4   7
BRANCH   1  14
ATOM     14  C   UNL     1       7.347   6.719  17.187  0.00  0.00    +0.000 C 
ATOM     15  O   UNL     1       7.792   6.534  16.059  0.00  0.00    +0.000 OA
BRANCH  14  17
ATOM     16  C   UNL     1       8.130   9.024  17.563  0.00  0.00    +0.000 C 
ATOM     17  C   UNL     1       7.864   7.809  18.064  0.00  0.00    +0.000 C 
BRANCH  16  22
ATOM     18  C   UNL     1      10.387  13.337  20.724  0.00  0.00    +0.000 C 
ATOM     19  C   UNL     1       9.790  12.224  19.914  0.00  0.00    +0.000 A 
ATOM     20  C   UNL     1       9.684  10.928  20.426  0.00  0.00    +0.000 A 
ATOM     21  C   UNL     1       9.142   9.897  19.649  0.00  0.00    +0.000 A 
ATOM     22  C   UNL     1       8.683  10.143  18.348  0.00  0.00    +0.000 A 
ATOM     23  C   UNL     1       8.802  11.442  17.839  0.00  0.00    +0.000 A 
ATOM     24  C   UNL     1       9.344  12.473  18.614  0.00  0.00    +0.000 A 
ENDBRANCH  16  22
ENDBRANCH  14  17
ENDBRANCH   1  14
TORSDOF 4
ENDMDL
MODEL 8
REMARK VINA RESULT:      -8.3      0.949      1.514
REMARK  Name = 
REMARK  5 active torsions:
REMARK  status: ('A' for Active; 'I' for Inactive)
REMARK    1  A    between atoms: C_1  and  C_2
REMARK    2  A    between atoms: C_5  and  C_6
REMARK    3  A    between atoms: C_7  and  C_8
REMARK    4  A    between atoms: C_8  and  C_10
REMARK    5  A    between atoms: C_13  and  N_14
REMARK                            x       y       z     vdW  Elec       q    Type
REMARK                         _______ _______ _______ _____ _____    ______ ____
ROOT
ATOM      1  C   UNL     1       6.448   6.280  17.894  0.00  0.00    +0.000 A 
ATOM      2  C   UNL     1       5.190   6.384  17.296  0.00  0.00    +0.000 A 
ATOM      3  C   UNL     1       4.100   5.670  17.811  0.00  0.00    +0.000 A 
ATOM      4  C   UNL     1       4.226   4.815  18.917  0.00  0.00    +0.000 A 
ATOM      5  C   UNL     1       5.505   4.695  19.476  0.00  0.00    +0.000 A 
ATOM      6  C   UNL     1       6.604   5.418  18.981  0.00  0.00    +0.000 A 
ENDROOT
BRANCH   4   7
ATOM      7  N   UNL     1       3.137   4.121  19.402  0.00  0.00    +0.000 N 
ATOM      8  C   UNL     1       1.748   4.456  19.050  0.00  0.00    +0.000 C 
ATOM      9  C   UNL     1       1.089   3.316  18.245  0.00  0.00    +0.000 C 
ATOM     10  N   UNL     1       1.176   2.002  18.912  0.00  0.00    +0.000 NA
ATOM     11  C   UNL     1       2.592   1.701  19.202  0.00  0.00    +0.000 C 
ATOM     12  C   UNL     1       3.308   2.797  20.031  0.00  0.00    +0.000 C 
ATOM     13  H   UNL     1       0.803   1.285  18.290  0.00  0.00    +0.000 HD
ENDBRANCH   4   7
BRANCH   1  14
ATOM     14  C   UNL     1       7.575   7.071  17.319  0.00  0.00    +0.000 C 
ATOM     15  O   UNL     1       7.942   6.879  16.165  0.00  0.00    +0.000 OA
BRANCH  14  17
ATOM     16  C   UNL     1       8.235   9.398  17.780  0.00  0.00    +0.000 C 
ATOM     17  C   UNL     1       8.201   8.118  18.177  0.00  0.00    +0.000 C 
BRANCH  16  22
ATOM     18  C   UNL     1      10.663  13.782  20.710  0.00  0.00    +0.000 C 
ATOM     19  C   UNL     1      10.049  12.646  19.946  0.00  0.00    +0.000 A 
ATOM     20  C   UNL     1       9.592  12.814  18.636  0.00  0.00    +0.000 A 
ATOM     21  C   UNL     1       9.004  11.747  17.945  0.00  0.00    +0.000 A 
ATOM     22  C   UNL     1       8.871  10.488  18.544  0.00  0.00    +0.000 A 
ATOM     23  C   UNL     1       9.322  10.331  19.861  0.00  0.00    +0.000 A 
ATOM     24  C   UNL     1       9.909  11.395  20.552  0.00  0.00    +0.000 A 
ENDBRANCH  16  22
ENDBRANCH  14  17
ENDBRANCH   1  14
TORSDOF 4
ENDMDL
MODEL 9
REMARK VINA RESULT:      -8.3      0.830      1.934
REMARK  Name = 
REMARK  5 active torsions:
REMARK  status: ('A' for Active; 'I' for Inactive)
REMARK    1  A    between atoms: C_1  and  C_2
REMARK    2  A    between atoms: C_5  and  C_6
REMARK    3  A    between atoms: C_7  and  C_8
REMARK    4  A    between atoms: C_8  and  C_10
REMARK    5  A    between atoms: C_13  and  N_14
REMARK                            x       y       z     vdW  Elec       q    Type
REMARK                         _______ _______ _______ _____ _____    ______ ____
ROOT
ATOM      1  C   UNL     1       6.202   6.146  17.880  0.00  0.00    +0.000 A 
ATOM      2  C   UNL     1       4.899   6.094  17.380  0.00  0.00    +0.000 A 
ATOM      3  C   UNL     1       3.927   5.310  18.016  0.00  0.00    +0.000 A 
ATOM      4  C   UNL     1       4.220   4.538  19.152  0.00  0.00    +0.000 A 
ATOM      5  C   UNL     1       5.543   4.575  19.612  0.00  0.00    +0.000 A 
ATOM      6  C   UNL     1       6.524   5.369  18.995  0.00  0.00    +0.000 A 
ENDROOT
BRANCH   4   7
ATOM      7  N   UNL     1       3.245   3.772  19.757  0.00  0.00    +0.000 N 
ATOM      8  C   UNL     1       2.395   4.269  20.850  0.00  0.00    +0.000 C 
ATOM      9  C   UNL     1       0.917   4.345  20.414  0.00  0.00    +0.000 C 
ATOM     10  N   UNL     1       0.403   3.075  19.864  0.00  0.00    +0.000 NA
ATOM     11  C   UNL     1       1.268   2.648  18.746  0.00  0.00    +0.000 C 
ATOM     12  C   UNL     1       2.766   2.528  19.124  0.00  0.00    +0.000 C 
ATOM     13  H   UNL     1      -0.544   3.220  19.517  0.00  0.00    +0.000 HD
ENDBRANCH   4   7
BRANCH   1  14
ATOM     14  C   UNL     1       7.198   7.006  17.178  0.00  0.00    +0.000 C 
ATOM     15  O   UNL     1       7.804   6.582  16.200  0.00  0.00    +0.000 OA
BRANCH  14  17
ATOM     16  C   UNL     1       8.608   8.826  18.054  0.00  0.00    +0.000 C 
ATOM     17  C   UNL     1       7.394   8.397  17.678  0.00  0.00    +0.000 C 
BRANCH  16  22
ATOM     18  C   UNL     1       9.786  14.050  20.293  0.00  0.00    +0.000 C 
ATOM     19  C   UNL     1       9.468  12.700  19.721  0.00  0.00    +0.000 A 
ATOM     20  C   UNL     1       9.625  11.535  20.476  0.00  0.00    +0.000 A 
ATOM     21  C   UNL     1       9.342  10.282  19.919  0.00  0.00    +0.000 A 
ATOM     22  C   UNL     1       8.883  10.168  18.600  0.00  0.00    +0.000 A 
ATOM     23  C   UNL     1       8.737  11.340  17.847  0.00  0.00    +0.000 A 
ATOM     24  C   UNL     1       9.020  12.592  18.402  0.00  0.00    +0.000 A 
ENDBRANCH  16  22
ENDBRANCH  14  17
ENDBRANCH   1  14
TORSDOF 4
ENDMDL
