MODEL 1
REMARK VINA RESULT:      -5.2      0.000      0.000
REMARK  Name = 
REMARK  2 active torsions:
REMARK  status: ('A' for Active; 'I' for Inactive)
REMARK    1  A    between atoms: C_2  and  O_4
REMARK    2  A    between atoms: O_4  and  C_5
REMARK                            x       y       z     vdW  Elec       q    Type
REMARK                         _______ _______ _______ _____ _____    ______ ____
ROOT
ATOM      1  O   UNL     1       5.794   4.136  15.904  0.00  0.00    +0.000 OA
ENDROOT
BRANCH   1   3
ATOM      2  N   UNL     1       7.820   4.240  17.102  0.00  0.00    +0.000 NA
ATOM      3  C   UNL     1       7.105   4.554  16.084  0.00  0.00    +0.000 C 
ATOM      4  N   UNL     1       7.520   5.352  15.076  0.00  0.00    +0.000 N 
ATOM      5  H   UNL     1       8.747   4.655  17.000  0.00  0.00    +0.000 HD
ATOM      6  H   UNL     1       8.281   5.984  15.276  0.00  0.00    +0.000 HD
ATOM      7  H   UNL     1       6.770   5.760  14.534  0.00  0.00    +0.000 HD
ENDBRANCH   1   3
BRANCH   1   8
ATOM      8  C   UNL     1       4.744   4.611  16.720  0.00  0.00    +0.000 A 
ATOM      9  C   UNL     1       4.746   5.971  17.026  0.00  0.00    +0.000 A 
ATOM     10  C   UNL     1       3.677   6.515  17.741  0.00  0.00    +0.000 A 
ATOM     11  C   UNL     1       2.613   5.701  18.135  0.00  0.00    +0.000 A 
ATOM     12  C   UNL     1       2.616   4.342  17.815  0.00  0.00    +0.000 A 
ATOM     13  C   UNL     1       3.679   3.796  17.097  0.00  0.00    +0.000 A 
ENDBRANCH   1   8
TORSDOF 2
ENDMDL
MODEL 2
REMARK VINA RESULT:      -5.2      1.469      1.910
REMARK  Name = 
REMARK  2 active torsions:
REMARK  status: ('A' for Active; 'I' for Inactive)
REMARK    1  A    between atoms: C_2  and  O_4
REMARK    2  A    between atoms: O_4  and  C_5
REMARK                            x       y       z     vdW  Elec       q    Type
REMARK                         _______ _______ _______ _____ _____    ______ ____
ROOT
ATOM      1  O   UNL     1       5.821   5.365  17.443  0.00  0.00    +0.000 OA
ENDROOT
BRANCH   1   3
ATOM      2  N   UNL     1       6.779   5.229  19.591  0.00  0.00    +0.000 NA
ATOM      3  C   UNL     1       6.813   4.979  18.333  0.00  0.00    +0.000 C 
ATOM      4  N   UNL     1       7.825   4.338  17.709  0.00  0.00    +0.000 N 
ATOM      5  H   UNL     1       7.611   4.834  20.032  0.00  0.00    +0.000 HD
ATOM      6  H   UNL     1       8.723   4.344  18.168  0.00  0.00    +0.000 HD
ATOM      7  H   UNL     1       7.864   4.499  16.710  0.00  0.00    +0.000 HD
ENDBRANCH   1   3
BRANCH   1   8
ATOM      8  C   UNL     1       4.483   4.938  17.591  0.00  0.00    +0.000 A 
ATOM      9  C   UNL     1       3.560   5.888  18.027  0.00  0.00    +0.000 A 
ATOM     10  C   UNL     1       2.206   5.551  18.091  0.00  0.00    +0.000 A 
ATOM     11  C   UNL     1       1.785   4.275  17.709  0.00  0.00    +0.000 A 
ATOM     12  C   UNL     1       2.716   3.335  17.264  0.00  0.00    +0.000 A 
ATOM     13  C   UNL     1       4.067   3.668  17.194  0.00  0.00    +0.000 A 
ENDBRANCH   1   8
TORSDOF 2
ENDMDL
MODEL 3
REMARK VINA RESULT:      -5.2      1.775      1.989
REMARK  Name = 
REMARK  2 active torsions:
REMARK  status: ('A' for Active; 'I' for Inactive)
REMARK    1  A    between atoms: C_2  and  O_4
REMARK    2  A    between atoms: O_4  and  C_5
REMARK                            x       y       z     vdW  Elec       q    Type
REMARK                         _______ _______ _______ _____ _____    ______ ____
ROOT
ATOM      1  O   UNL     1       6.381   4.448  18.931  0.00  0.00    +0.000 OA
ENDROOT
BRANCH   1   3
ATOM      2  N   UNL     1       7.973   4.190  17.213  0.00  0.00    +0.000 NA
ATOM      3  C   UNL     1       7.312   4.933  18.024  0.00  0.00    +0.000 C 
ATOM      4  N   UNL     1       7.457   6.273  18.122  0.00  0.00    +0.000 N 
ATOM      5  H   UNL     1       8.582   4.778  16.642  0.00  0.00    +0.000 HD
ATOM      6  H   UNL     1       8.328   6.664  17.795  0.00  0.00    +0.000 HD
ATOM      7  H   UNL     1       7.125   6.663  18.995  0.00  0.00    +0.000 HD
ENDBRANCH   1   3
BRANCH   1   8
ATOM      8  C   UNL     1       4.995   4.483  18.663  0.00  0.00    +0.000 A 
ATOM      9  C   UNL     1       4.232   5.395  19.391  0.00  0.00    +0.000 A 
ATOM     10  C   UNL     1       2.877   5.547  19.095  0.00  0.00    +0.000 A 
ATOM     11  C   UNL     1       2.296   4.798  18.069  0.00  0.00    +0.000 A 
ATOM     12  C   UNL     1       3.071   3.895  17.339  0.00  0.00    +0.000 A 
ATOM     13  C   UNL     1       4.426   3.742  17.628  0.00  0.00    +0.000 A 
ENDBRANCH   1   8
TORSDOF 2
ENDMDL
MODEL 4
REMARK VINA RESULT:      -5.1      1.852      2.300
REMARK  Name = 
REMARK  2 active torsions:
REMARK  status: ('A' for Active; 'I' for Inactive)
REMARK    1  A    between atoms: C_2  and  O_4
REMARK    2  A    between atoms: O_4  and  C_5
REMARK                            x       y       z     vdW  Elec       q    Type
REMARK                         _______ _______ _______ _____ _____    ______ ____
ROOT
ATOM      1  O   UNL     1       6.220   4.493  18.991  0.00  0.00    +0.000 OA
ENDROOT
BRANCH   1   3
ATOM      2  N   UNL     1       8.093   4.130  17.609  0.00  0.00    +0.000 NA
ATOM      3  C   UNL     1       7.239   4.919  18.149  0.00  0.00    +0.000 C 
ATOM      4  N   UNL     1       7.235   6.261  17.996  0.00  0.00    +0.000 N 
ATOM      5  H   UNL     1       8.730   4.675  17.026  0.00  0.00    +0.000 HD
ATOM      6  H   UNL     1       8.106   6.693  17.727  0.00  0.00    +0.000 HD
ATOM      7  H   UNL     1       6.726   6.759  18.715  0.00  0.00    +0.000 HD
ENDBRANCH   1   3
BRANCH   1   8
ATOM      8  C   UNL     1       4.861   4.614  18.631  0.00  0.00    +0.000 A 
ATOM      9  C   UNL     1       4.399   3.779  17.614  0.00  0.00    +0.000 A 
ATOM     10  C   UNL     1       3.041   3.781  17.289  0.00  0.00    +0.000 A 
ATOM     11  C   UNL     1       2.155   4.605  17.987  0.00  0.00    +0.000 A 
ATOM     12  C   UNL     1       2.626   5.429  19.010  0.00  0.00    +0.000 A 
ATOM     13  C   UNL     1       3.980   5.428  19.342  0.00  0.00    +0.000 A 
ENDBRANCH   1   8
TORSDOF 2
ENDMDL
MODEL 5
REMARK VINA RESULT:      -5.1      2.848      3.509
REMARK  Name = 
REMARK  2 active torsions:
REMARK  status: ('A' for Active; 'I' for Inactive)
REMARK    1  A    between atoms: C_2  and  O_4
REMARK    2  A    between atoms: O_4  and  C_5
REMARK                            x       y       z     vdW  Elec       q    Type
REMARK                         _______ _______ _______ _____ _____    ______ ____
ROOT
ATOM      1  O   UNL     1       4.401   5.421  19.253  0.00  0.00    +0.000 OA
ENDROOT
BRANCH   1   3
ATOM      2  N   UNL     1       6.714   5.392  19.704  0.00  0.00    +0.000 NA
ATOM      3  C   UNL     1       5.652   4.820  19.266  0.00  0.00    +0.000 C 
ATOM      4  N   UNL     1       5.618   3.578  18.737  0.00  0.00    +0.000 N 
ATOM      5  H   UNL     1       7.500   4.746  19.621  0.00  0.00    +0.000 HD
ATOM      6  H   UNL     1       6.483   3.212  18.369  0.00  0.00    +0.000 HD
ATOM      7  H   UNL     1       4.808   3.396  18.157  0.00  0.00    +0.000 HD
ENDBRANCH   1   3
BRANCH   1   8
ATOM      8  C   UNL     1       3.213   4.664  19.349  0.00  0.00    +0.000 A 
ATOM      9  C   UNL     1       2.684   4.475  20.626  0.00  0.00    +0.000 A 
ATOM     10  C   UNL     1       1.457   3.826  20.771  0.00  0.00    +0.000 A 
ATOM     11  C   UNL     1       0.764   3.380  19.643  0.00  0.00    +0.000 A 
ATOM     12  C   UNL     1       1.297   3.583  18.369  0.00  0.00    +0.000 A 
ATOM     13  C   UNL     1       2.520   4.235  18.219  0.00  0.00    +0.000 A 
ENDBRANCH   1   8
TORSDOF 2
ENDMDL
MODEL 6
REMARK VINA RESULT:      -5.1      0.642      1.941
REMARK  Name = 
REMARK  2 active torsions:
REMARK  status: ('A' for Active; 'I' for Inactive)
REMARK    1  A    between atoms: C_2  and  O_4
REMARK    2  A    between atoms: O_4  and  C_5
REMARK                            x       y       z     vdW  Elec       q    Type
REMARK                         _______ _______ _______ _____ _____    ______ ____
ROOT
ATOM      1  O   UNL     1       5.791   4.188  16.342  0.00  0.00    +0.000 OA
ENDROOT
BRANCH   1   3
ATOM      2  N   UNL     1       7.494   5.785  16.023  0.00  0.00    +0.000 NA
ATOM      3  C   UNL     1       6.968   4.831  16.700  0.00  0.00    +0.000 C 
ATOM      4  N   UNL     1       7.500   4.310  17.827  0.00  0.00    +0.000 N 
ATOM      5  H   UNL     1       8.343   6.100  16.494  0.00  0.00    +0.000 HD
ATOM      6  H   UNL     1       8.492   4.437  17.966  0.00  0.00    +0.000 HD
ATOM      7  H   UNL     1       7.162   3.385  18.057  0.00  0.00    +0.000 HD
ENDBRANCH   1   3
BRANCH   1   8
ATOM      8  C   UNL     1       4.542   4.574  16.875  0.00  0.00    +0.000 A 
ATOM      9  C   UNL     1       3.589   3.570  17.043  0.00  0.00    +0.000 A 
ATOM     10  C   UNL     1       2.375   3.874  17.662  0.00  0.00    +0.000 A 
ATOM     11  C   UNL     1       2.126   5.171  18.116  0.00  0.00    +0.000 A 
ATOM     12  C   UNL     1       3.091   6.166  17.951  0.00  0.00    +0.000 A 
ATOM     13  C   UNL     1       4.307   5.867  17.339  0.00  0.00    +0.000 A 
ENDBRANCH   1   8
TORSDOF 2
ENDMDL
MODEL 7
REMARK VINA RESULT:      -5.1      2.215      3.212
REMARK  Name = 
REMARK  2 active torsions:
REMARK  status: ('A' for Active; 'I' for Inactive)
REMARK    1  A    between atoms: C_2  and  O_4
REMARK    2  A    between atoms: O_4  and  C_5
REMARK                            x       y       z     vdW  Elec       q    Type
REMARK                         _______ _______ _______ _____ _____    ______ ____
ROOT
ATOM      1  O   UNL     1       3.937   4.805  17.658  0.00  0.00    +0.000 OA
ENDROOT
BRANCH   1   3
ATOM      2  N   UNL     1       5.813   3.899  18.760  0.00  0.00    +0.000 NA
ATOM      3  C   UNL     1       5.116   4.072  17.697  0.00  0.00    +0.000 C 
ATOM      4  N   UNL     1       5.449   3.594  16.479  0.00  0.00    +0.000 N 
ATOM      5  H   UNL     1       6.622   3.317  18.537  0.00  0.00    +0.000 HD
ATOM      6  H   UNL     1       6.422   3.379  16.321  0.00  0.00    +0.000 HD
ATOM      7  H   UNL     1       4.996   4.068  15.708  0.00  0.00    +0.000 HD
ENDBRANCH   1   3
BRANCH   1   8
ATOM      8  C   UNL     1       2.852   4.511  18.511  0.00  0.00    +0.000 A 
ATOM      9  C   UNL     1       2.100   3.375  18.211  0.00  0.00    +0.000 A 
ATOM     10  C   UNL     1       1.081   2.977  19.078  0.00  0.00    +0.000 A 
ATOM     11  C   UNL     1       0.827   3.708  20.241  0.00  0.00    +0.000 A 
ATOM     12  C   UNL     1       1.592   4.837  20.538  0.00  0.00    +0.000 A 
ATOM     13  C   UNL     1       2.614   5.236  19.678  0.00  0.00    +0.000 A 
ENDBRANCH   1   8
TORSDOF 2
ENDMDL
MODEL 8
REMARK VINA RESULT:      -5.1      0.546      1.172
REMARK  Name = 
REMARK  2 active torsions:
REMARK  status: ('A' for Active; 'I' for Inactive)
REMARK    1  A    between atoms: C_2  and  O_4
REMARK    2  A    between atoms: O_4  and  C_5
REMARK                            x       y       z     vdW  Elec       q    Type
REMARK                         _______ _______ _______ _____ _____    ______ ____
ROOT
ATOM      1  O   UNL     1       5.791   4.048  16.377  0.00  0.00    +0.000 OA
ENDROOT
BRANCH   1   3
ATOM      2  N   UNL     1       7.504   5.571  15.834  0.00  0.00    +0.000 NA
ATOM      3  C   UNL     1       6.992   4.698  16.622  0.00  0.00    +0.000 C 
ATOM      4  N   UNL     1       7.563   4.278  17.772  0.00  0.00    +0.000 N 
ATOM      5  H   UNL     1       8.378   5.913  16.237  0.00  0.00    +0.000 HD
ATOM      6  H   UNL     1       8.562   4.397  17.857  0.00  0.00    +0.000 HD
ATOM      7  H   UNL     1       7.220   3.387  18.105  0.00  0.00    +0.000 HD
ENDBRANCH   1   3
BRANCH   1   8
ATOM      8  C   UNL     1       4.595   4.427  17.024  0.00  0.00    +0.000 A 
ATOM      9  C   UNL     1       4.454   5.774  17.356  0.00  0.00    +0.000 A 
ATOM     10  C   UNL     1       3.251   6.225  17.902  0.00  0.00    +0.000 A 
ATOM     11  C   UNL     1       2.196   5.331  18.103  0.00  0.00    +0.000 A 
ATOM     12  C   UNL     1       2.343   3.987  17.758  0.00  0.00    +0.000 A 
ATOM     13  C   UNL     1       3.541   3.533  17.208  0.00  0.00    +0.000 A 
ENDBRANCH   1   8
TORSDOF 2
ENDMDL
MODEL 9
REMARK VINA RESULT:      -5.1      2.186      3.283
REMARK  Name = 
REMARK  2 active torsions:
REMARK  status: ('A' for Active; 'I' for Inactive)
REMARK    1  A    between atoms: C_2  and  O_4
REMARK    2  A    between atoms: O_4  and  C_5
REMARK                            x       y       z     vdW  Elec       q    Type
REMARK                         _______ _______ _______ _____ _____    ______ ____
ROOT
ATOM      1  O   UNL     1       4.102   5.007  17.783  0.00  0.00    +0.000 OA
ENDROOT
BRANCH   1   3
ATOM      2  N   UNL     1       5.450   3.562  16.499  0.00  0.00    +0.000 NA
ATOM      3  C   UNL     1       5.158   4.122  17.616  0.00  0.00    +0.000 C 
ATOM      4  N   UNL     1       5.817   3.902  18.775  0.00  0.00    +0.000 N 
ATOM      5  H   UNL     1       6.270   2.968  16.627  0.00  0.00    +0.000 HD
ATOM      6  H   UNL     1       6.335   3.040  18.851  0.00  0.00    +0.000 HD
ATOM      7  H   UNL     1       5.291   4.148  19.604  0.00  0.00    +0.000 HD
ENDBRANCH   1   3
BRANCH   1   8
ATOM      8  C   UNL     1       2.986   4.688  18.586  0.00  0.00    +0.000 A 
ATOM      9  C   UNL     1       2.193   3.618  18.172  0.00  0.00    +0.000 A 
ATOM     10  C   UNL     1       1.139   3.191  18.982  0.00  0.00    +0.000 A 
ATOM     11  C   UNL     1       0.890   3.828  20.200  0.00  0.00    +0.000 A 
ATOM     12  C   UNL     1       1.696   4.891  20.610  0.00  0.00    +0.000 A 
ATOM     13  C   UNL     1       2.753   5.318  19.808  0.00  0.00    +0.000 A 
ENDBRANCH   1   8
TORSDOF 2
ENDMDL
