MODEL 1
REMARK VINA RESULT:      -8.3      0.000      0.000
REMARK  Name = 
REMARK  16 active torsions:
REMARK  status: ('A' for Active; 'I' for Inactive)
REMARK    1  A    between atoms: C_1  and  C_2
REMARK    2  A    between atoms: C_5  and  C_6
REMARK    3  A    between atoms: C_6  and  C_7
REMARK    4  A    between atoms: C_7  and  N_8
REMARK    5  A    between atoms: C_7  and  C_21
REMARK    6  A    between atoms: N_8  and  CA_9
REMARK    7  A    between atoms: CA_9  and  C_10
REMARK    8  A    between atoms: CA_9  and  C_18
REMARK    9  A    between atoms: C_10  and  C_11
REMARK   10  A    between atoms: C_11  and  C_12
REMARK   11  A    between atoms: C_18  and  OXT_20
REMARK   12  A    between atoms: N_23  and  C_24
REMARK   13  A    between atoms: C_24  and  C_25
REMARK   14  A    between atoms: C_25  and  C_26
REMARK   15  A    between atoms: C_25  and  C_27
REMARK   16  A    between atoms: C_27  and  O_29
REMARK                            x       y       z     vdW  Elec       q    Type
REMARK                         _______ _______ _______ _____ _____    ______ ____
ROOT
ATOM      1  C   UNL     1       4.079   6.082  18.628  0.00  0.00    +0.000 C 
ENDROOT
BRANCH   1   2
ATOM      2  C   UNL     1       3.732   4.560  18.382  0.00  0.00    +0.000 C 
ATOM      3  O   UNL     1       3.450   4.164  17.250  0.00  0.00    +0.000 OA
ATOM      4  N   UNL     1       3.743   3.681  19.434  0.00  0.00    +0.000 N 
ATOM      5  H   UNL     1       4.263   3.894  20.279  0.00  0.00    +0.000 HD
BRANCH   4   6
ATOM      6  C   UNL     1       3.190   2.335  19.348  0.00  0.00    +0.000 C 
BRANCH   6   7
ATOM      7  C   UNL     1       1.773   2.087  19.862  0.00  0.00    +0.000 C 
ATOM      8  C   UNL     1       0.760   2.372  18.744  0.00  0.00    +0.000 C 
BRANCH   7   9
ATOM      9  C   UNL     1       1.448   2.956  21.058  0.00  0.00    +0.000 C 
ATOM     10  O   UNL     1       1.569   2.611  22.224  0.00  0.00    +0.000 OA
BRANCH   9  11
ATOM     11  O   UNL     1       0.992   4.184  20.718  0.00  0.00    +0.000 OA
ATOM     12  H   UNL     1       0.421   4.587  21.399  0.00  0.00    +0.000 HD
ENDBRANCH   9  11
ENDBRANCH   7   9
ENDBRANCH   6   7
ENDBRANCH   4   6
ENDBRANCH   1   2
BRANCH   1  13
ATOM     13  N   UNL     1       5.476   6.484  18.189  0.00  0.00    +0.000 NA
ATOM     14  H   UNL     1       5.420   6.874  17.248  0.00  0.00    +0.000 HD
BRANCH  13  15
ATOM     15  CA  UNL     1       6.576   5.447  18.260  0.00  0.00    +0.000 C 
BRANCH  15  16
ATOM     16  C   UNL     1       7.821   6.054  18.983  0.00  0.00    +0.000 C 
ATOM     17  O   UNL     1       8.352   7.116  18.704  0.00  0.00    +0.000 OA
BRANCH  16  18
ATOM     18  OXT UNL     1       8.276   5.266  19.994  0.00  0.00    +0.000 OA
ATOM     19  HXT UNL     1       7.501   4.966  20.508  0.00  0.00    +0.000 HD
ENDBRANCH  16  18
ENDBRANCH  15  16
BRANCH  15  20
ATOM     20  C   UNL     1       7.105   4.858  16.919  0.00  0.00    +0.000 C 
BRANCH  20  21
ATOM     21  C   UNL     1       6.358   5.404  15.691  0.00  0.00    +0.000 C 
BRANCH  21  22
ATOM     22  C   UNL     1       6.572   4.745  14.349  0.00  0.00    +0.000 A 
ATOM     23  C   UNL     1       7.624   5.253  13.565  0.00  0.00    +0.000 A 
ATOM     24  C   UNL     1       7.779   4.879  12.234  0.00  0.00    +0.000 A 
ATOM     25  C   UNL     1       6.919   3.940  11.683  0.00  0.00    +0.000 A 
ATOM     26  C   UNL     1       5.968   3.313  12.492  0.00  0.00    +0.000 A 
ATOM     27  C   UNL     1       5.802   3.702  13.829  0.00  0.00    +0.000 A 
ENDBRANCH  21  22
ENDBRANCH  20  21
ENDBRANCH  15  20
ENDBRANCH  13  15
ENDBRANCH   1  13
BRANCH   1  28
ATOM     28  C   UNL     1       3.074   7.026  17.909  0.00  0.00    +0.000 C 
BRANCH  28  33
ATOM     29  C   UNL     1       0.018  10.805  21.153  0.00  0.00    +0.000 C 
ATOM     30  C   UNL     1       0.719   9.780  20.310  0.00  0.00    +0.000 A 
ATOM     31  C   UNL     1       1.194   8.590  20.872  0.00  0.00    +0.000 A 
ATOM     32  C   UNL     1       1.894   7.656  20.096  0.00  0.00    +0.000 A 
ATOM     33  C   UNL     1       2.152   7.903  18.743  0.00  0.00    +0.000 A 
ATOM     34  C   UNL     1       1.618   9.073  18.171  0.00  0.00    +0.000 A 
ATOM     35  C   UNL     1       0.898   9.992  18.942  0.00  0.00    +0.000 A 
ENDBRANCH  28  33
ENDBRANCH   1  28
TORSDOF 14
ENDMDL
MODEL 2
REMARK VINA RESULT:      -8.1      2.517      7.224
REMARK  Name = 
REMARK  16 active torsions:
REMARK  status: ('A' for Active; 'I' for Inactive)
REMARK    1  A    between atoms: C_1  and  C_2
REMARK    2  A    between atoms: C_5  and  C_6
REMARK    3  A    between atoms: C_6  and  C_7
REMARK    4  A    between atoms: C_7  and  N_8
REMARK    5  A    between atoms: C_7  and  C_21
REMARK    6  A    between atoms: N_8  and  CA_9
REMARK    7  A    between atoms: CA_9  and  C_10
REMARK    8  A    between atoms: CA_9  and  C_18
REMARK    9  A    between atoms: C_10  and  C_11
REMARK   10  A    between atoms: C_11  and  C_12
REMARK   11  A    between atoms: C_18  and  OXT_20
REMARK   12  A    between atoms: N_23  and  C_24
REMARK   13  A    between atoms: C_24  and  C_25
REMARK   14  A    between atoms: C_25  and  C_26
REMARK   15  A    between atoms: C_25  and  C_27
REMARK   16  A    between atoms: C_27  and  O_29
REMARK                            x       y       z     vdW  Elec       q    Type
REMARK                         _______ _______ _______ _____ _____    ______ ____
ROOT
ATOM      1  C   UNL     1       5.622   4.254  16.640  0.00  0.00    +0.000 C 
ENDROOT
BRANCH   1   2
ATOM      2  C   UNL     1       6.535   4.251  15.350  0.00  0.00    +0.000 C 
ATOM      3  O   UNL     1       7.664   4.742  15.390  0.00  0.00    +0.000 OA
ATOM      4  N   UNL     1       6.065   3.704  14.184  0.00  0.00    +0.000 N 
ATOM      5  H   UNL     1       5.305   3.032  14.199  0.00  0.00    +0.000 HD
BRANCH   4   6
ATOM      6  C   UNL     1       6.726   3.891  12.899  0.00  0.00    +0.000 C 
BRANCH   6   7
ATOM      7  C   UNL     1       6.082   3.299  11.647  0.00  0.00    +0.000 C 
ATOM      8  C   UNL     1       4.565   3.179  11.852  0.00  0.00    +0.000 C 
BRANCH   7   9
ATOM      9  C   UNL     1       6.647   1.934  11.315  0.00  0.00    +0.000 C 
ATOM     10  O   UNL     1       7.769   1.732  10.877  0.00  0.00    +0.000 OA
BRANCH   9  11
ATOM     11  O   UNL     1       5.775   0.926  11.546  0.00  0.00    +0.000 OA
ATOM     12  H   UNL     1       4.842   1.181  11.404  0.00  0.00    +0.000 HD
ENDBRANCH   9  11
ENDBRANCH   7   9
ENDBRANCH   6   7
ENDBRANCH   4   6
ENDBRANCH   1   2
BRANCH   1  13
ATOM     13  N   UNL     1       4.901   5.566  16.893  0.00  0.00    +0.000 NA
ATOM     14  H   UNL     1       5.067   6.185  16.098  0.00  0.00    +0.000 HD
BRANCH  13  15
ATOM     15  CA  UNL     1       5.176   6.297  18.189  0.00  0.00    +0.000 C 
BRANCH  15  16
ATOM     16  C   UNL     1       6.634   5.992  18.663  0.00  0.00    +0.000 C 
ATOM     17  O   UNL     1       7.650   6.426  18.147  0.00  0.00    +0.000 OA
BRANCH  16  18
ATOM     18  OXT UNL     1       6.671   5.172  19.747  0.00  0.00    +0.000 OA
ATOM     19  HXT UNL     1       5.941   5.432  20.342  0.00  0.00    +0.000 HD
ENDBRANCH  16  18
ENDBRANCH  15  16
BRANCH  15  20
ATOM     20  C   UNL     1       4.256   5.983  19.406  0.00  0.00    +0.000 C 
BRANCH  20  21
ATOM     21  C   UNL     1       2.768   6.220  19.108  0.00  0.00    +0.000 C 
BRANCH  21  22
ATOM     22  C   UNL     1       2.252   7.637  19.026  0.00  0.00    +0.000 A 
ATOM     23  C   UNL     1       1.620   8.139  20.178  0.00  0.00    +0.000 A 
ATOM     24  C   UNL     1       0.917   9.340  20.152  0.00  0.00    +0.000 A 
ATOM     25  C   UNL     1       0.889  10.091  18.986  0.00  0.00    +0.000 A 
ATOM     26  C   UNL     1       1.639   9.682  17.881  0.00  0.00    +0.000 A 
ATOM     27  C   UNL     1       2.334   8.463  17.902  0.00  0.00    +0.000 A 
ENDBRANCH  21  22
ENDBRANCH  20  21
ENDBRANCH  15  20
ENDBRANCH  13  15
ENDBRANCH   1  13
BRANCH   1  28
ATOM     28  C   UNL     1       4.546   3.133  16.588  0.00  0.00    +0.000 C 
BRANCH  28  33
ATOM     29  C   UNL     1       1.265   2.613  21.395  0.00  0.00    +0.000 C 
ATOM     30  C   UNL     1       2.114   2.647  20.158  0.00  0.00    +0.000 A 
ATOM     31  C   UNL     1       3.506   2.533  20.237  0.00  0.00    +0.000 A 
ATOM     32  C   UNL     1       4.302   2.616  19.087  0.00  0.00    +0.000 A 
ATOM     33  C   UNL     1       3.723   2.835  17.832  0.00  0.00    +0.000 A 
ATOM     34  C   UNL     1       2.319   2.886  17.753  0.00  0.00    +0.000 A 
ATOM     35  C   UNL     1       1.524   2.780  18.899  0.00  0.00    +0.000 A 
ENDBRANCH  28  33
ENDBRANCH   1  28
TORSDOF 14
ENDMDL
MODEL 3
REMARK VINA RESULT:      -8.0      2.933      4.674
REMARK  Name = 
REMARK  16 active torsions:
REMARK  status: ('A' for Active; 'I' for Inactive)
REMARK    1  A    between atoms: C_1  and  C_2
REMARK    2  A    between atoms: C_5  and  C_6
REMARK    3  A    between atoms: C_6  and  C_7
REMARK    4  A    between atoms: C_7  and  N_8
REMARK    5  A    between atoms: C_7  and  C_21
REMARK    6  A    between atoms: N_8  and  CA_9
REMARK    7  A    between atoms: CA_9  and  C_10
REMARK    8  A    between atoms: CA_9  and  C_18
REMARK    9  A    between atoms: C_10  and  C_11
REMARK   10  A    between atoms: C_11  and  C_12
REMARK   11  A    between atoms: C_18  and  OXT_20
REMARK   12  A    between atoms: N_23  and  C_24
REMARK   13  A    between atoms: C_24  and  C_25
REMARK   14  A    between atoms: C_25  and  C_26
REMARK   15  A    between atoms: C_25  and  C_27
REMARK   16  A    between atoms: C_27  and  O_29
REMARK                            x       y       z     vdW  Elec       q    Type
REMARK                         _______ _______ _______ _____ _____    ______ ____
ROOT
ATOM      1  C   UNL     1       4.915   6.487  17.492  0.00  0.00    +0.000 C 
ENDROOT
BRANCH   1   2
ATOM      2  C   UNL     1       4.382   5.047  17.119  0.00  0.00    +0.000 C 
ATOM      3  O   UNL     1       4.969   4.369  16.275  0.00  0.00    +0.000 OA
ATOM      4  N   UNL     1       3.260   4.556  17.736  0.00  0.00    +0.000 N 
ATOM      5  H   UNL     1       2.954   4.932  18.627  0.00  0.00    +0.000 HD
BRANCH   4   6
ATOM      6  C   UNL     1       2.558   3.366  17.271  0.00  0.00    +0.000 C 
BRANCH   6   7
ATOM      7  C   UNL     1       2.276   2.242  18.266  0.00  0.00    +0.000 C 
ATOM      8  C   UNL     1       0.829   2.346  18.768  0.00  0.00    +0.000 C 
BRANCH   7   9
ATOM      9  C   UNL     1       3.216   2.290  19.452  0.00  0.00    +0.000 C 
ATOM     10  O   UNL     1       4.289   1.708  19.514  0.00  0.00    +0.000 OA
BRANCH   9  11
ATOM     11  O   UNL     1       2.753   3.051  20.469  0.00  0.00    +0.000 OA
ATOM     12  H   UNL     1       3.021   3.989  20.404  0.00  0.00    +0.000 HD
ENDBRANCH   9  11
ENDBRANCH   7   9
ENDBRANCH   6   7
ENDBRANCH   4   6
ENDBRANCH   1   2
BRANCH   1  13
ATOM     13  N   UNL     1       6.237   6.852  16.842  0.00  0.00    +0.000 NA
ATOM     14  H   UNL     1       6.276   6.417  15.920  0.00  0.00    +0.000 HD
BRANCH  13  15
ATOM     15  CA  UNL     1       7.514   6.572  17.605  0.00  0.00    +0.000 C 
BRANCH  15  16
ATOM     16  C   UNL     1       7.285   5.376  18.584  0.00  0.00    +0.000 C 
ATOM     17  O   UNL     1       6.939   5.473  19.750  0.00  0.00    +0.000 OA
BRANCH  16  18
ATOM     18  OXT UNL     1       7.510   4.169  17.999  0.00  0.00    +0.000 OA
ATOM     19  HXT UNL     1       8.017   3.622  18.630  0.00  0.00    +0.000 HD
ENDBRANCH  16  18
ENDBRANCH  15  16
BRANCH  15  20
ATOM     20  C   UNL     1       8.110   7.724  18.467  0.00  0.00    +0.000 C 
BRANCH  20  21
ATOM     21  C   UNL     1       8.026   9.093  17.776  0.00  0.00    +0.000 C 
BRANCH  21  22
ATOM     22  C   UNL     1       8.730  10.275  18.400  0.00  0.00    +0.000 A 
ATOM     23  C   UNL     1       8.664  11.488  17.689  0.00  0.00    +0.000 A 
ATOM     24  C   UNL     1       9.448  12.579  18.048  0.00  0.00    +0.000 A 
ATOM     25  C   UNL     1      10.266  12.496  19.166  0.00  0.00    +0.000 A 
ATOM     26  C   UNL     1      10.227  11.354  19.969  0.00  0.00    +0.000 A 
ATOM     27  C   UNL     1       9.448  10.247  19.598  0.00  0.00    +0.000 A 
ENDBRANCH  21  22
ENDBRANCH  20  21
ENDBRANCH  15  20
ENDBRANCH  13  15
ENDBRANCH   1  13
BRANCH   1  28
ATOM     28  C   UNL     1       3.890   7.596  17.122  0.00  0.00    +0.000 C 
BRANCH  28  33
ATOM     29  C   UNL     1       0.118   9.525  21.147  0.00  0.00    +0.000 C 
ATOM     30  C   UNL     1       1.018   8.963  20.085  0.00  0.00    +0.000 A 
ATOM     31  C   UNL     1       1.762   7.801  20.314  0.00  0.00    +0.000 A 
ATOM     32  C   UNL     1       2.641   7.305  19.342  0.00  0.00    +0.000 A 
ATOM     33  C   UNL     1       2.809   7.973  18.124  0.00  0.00    +0.000 A 
ATOM     34  C   UNL     1       2.011   9.106  17.877  0.00  0.00    +0.000 A 
ATOM     35  C   UNL     1       1.117   9.586  18.839  0.00  0.00    +0.000 A 
ENDBRANCH  28  33
ENDBRANCH   1  28
TORSDOF 14
ENDMDL
MODEL 4
REMARK VINA RESULT:      -8.0      3.544      7.090
REMARK  Name = 
REMARK  16 active torsions:
REMARK  status: ('A' for Active; 'I' for Inactive)
REMARK    1  A    between atoms: C_1  and  C_2
REMARK    2  A    between atoms: C_5  and  C_6
REMARK    3  A    between atoms: C_6  and  C_7
REMARK    4  A    between atoms: C_7  and  N_8
REMARK    5  A    between atoms: C_7  and  C_21
REMARK    6  A    between atoms: N_8  and  CA_9
REMARK    7  A    between atoms: CA_9  and  C_10
REMARK    8  A    between atoms: CA_9  and  C_18
REMARK    9  A    between atoms: C_10  and  C_11
REMARK   10  A    between atoms: C_11  and  C_12
REMARK   11  A    between atoms: C_18  and  OXT_20
REMARK   12  A    between atoms: N_23  and  C_24
REMARK   13  A    between atoms: C_24  and  C_25
REMARK   14  A    between atoms: C_25  and  C_26
REMARK   15  A    between atoms: C_25  and  C_27
REMARK   16  A    between atoms: C_27  and  O_29
REMARK                            x       y       z     vdW  Elec       q    Type
REMARK                         _______ _______ _______ _____ _____    ______ ____
ROOT
ATOM      1  C   UNL     1       6.170   5.197  16.513  0.00  0.00    +0.000 C 
ENDROOT
BRANCH   1   2
ATOM      2  C   UNL     1       6.943   5.029  15.145  0.00  0.00    +0.000 C 
ATOM      3  O   UNL     1       7.927   5.729  14.901  0.00  0.00    +0.000 OA
ATOM      4  N   UNL     1       6.513   4.105  14.229  0.00  0.00    +0.000 N 
ATOM      5  H   UNL     1       5.933   3.323  14.517  0.00  0.00    +0.000 HD
BRANCH   4   6
ATOM      6  C   UNL     1       6.998   4.066  12.855  0.00  0.00    +0.000 C 
BRANCH   6   7
ATOM      7  C   UNL     1       6.130   3.408  11.785  0.00  0.00    +0.000 C 
ATOM      8  C   UNL     1       4.691   3.264  12.302  0.00  0.00    +0.000 C 
BRANCH   7   9
ATOM      9  C   UNL     1       6.655   2.042  11.396  0.00  0.00    +0.000 C 
ATOM     10  O   UNL     1       7.784   1.821  10.986  0.00  0.00    +0.000 OA
BRANCH   9  11
ATOM     11  O   UNL     1       5.738   1.058  11.539  0.00  0.00    +0.000 OA
ATOM     12  H   UNL     1       5.656   0.488  10.750  0.00  0.00    +0.000 HD
ENDBRANCH   9  11
ENDBRANCH   7   9
ENDBRANCH   6   7
ENDBRANCH   4   6
ENDBRANCH   1   2
BRANCH   1  13
ATOM     13  N   UNL     1       6.578   6.418  17.317  0.00  0.00    +0.000 NA
ATOM     14  H   UNL     1       6.741   7.191  16.671  0.00  0.00    +0.000 HD
BRANCH  13  15
ATOM     15  CA  UNL     1       7.739   6.289  18.279  0.00  0.00    +0.000 C 
BRANCH  15  16
ATOM     16  C   UNL     1       7.286   5.484  19.539  0.00  0.00    +0.000 C 
ATOM     17  O   UNL     1       6.170   5.026  19.722  0.00  0.00    +0.000 OA
BRANCH  16  18
ATOM     18  OXT UNL     1       8.286   5.327  20.447  0.00  0.00    +0.000 OA
ATOM     19  HXT UNL     1       7.884   5.017  21.282  0.00  0.00    +0.000 HD
ENDBRANCH  16  18
ENDBRANCH  15  16
BRANCH  15  20
ATOM     20  C   UNL     1       8.384   7.600  18.817  0.00  0.00    +0.000 C 
BRANCH  20  21
ATOM     21  C   UNL     1       8.147   8.806  17.895  0.00  0.00    +0.000 C 
BRANCH  21  22
ATOM     22  C   UNL     1       8.703  10.153  18.289  0.00  0.00    +0.000 A 
ATOM     23  C   UNL     1       9.475  10.190  19.465  0.00  0.00    +0.000 A 
ATOM     24  C   UNL     1       9.854  11.397  20.043  0.00  0.00    +0.000 A 
ATOM     25  C   UNL     1       9.520  12.590  19.418  0.00  0.00    +0.000 A 
ATOM     26  C   UNL     1       8.889  12.565  18.172  0.00  0.00    +0.000 A 
ATOM     27  C   UNL     1       8.493  11.348  17.597  0.00  0.00    +0.000 A 
ENDBRANCH  21  22
ENDBRANCH  20  21
ENDBRANCH  15  20
ENDBRANCH  13  15
ENDBRANCH   1  13
BRANCH   1  28
ATOM     28  C   UNL     1       4.631   5.270  16.301  0.00  0.00    +0.000 C 
BRANCH  28  33
ATOM     29  C   UNL     1       0.626   3.050  19.931  0.00  0.00    +0.000 C 
ATOM     30  C   UNL     1       1.723   3.608  19.071  0.00  0.00    +0.000 A 
ATOM     31  C   UNL     1       2.120   4.944  19.189  0.00  0.00    +0.000 A 
ATOM     32  C   UNL     1       3.107   5.479  18.352  0.00  0.00    +0.000 A 
ATOM     33  C   UNL     1       3.707   4.692  17.363  0.00  0.00    +0.000 A 
ATOM     34  C   UNL     1       3.347   3.333  17.291  0.00  0.00    +0.000 A 
ATOM     35  C   UNL     1       2.378   2.795  18.144  0.00  0.00    +0.000 A 
ENDBRANCH  28  33
ENDBRANCH   1  28
TORSDOF 14
ENDMDL
MODEL 5
REMARK VINA RESULT:      -8.0      1.381      1.956
REMARK  Name = 
REMARK  16 active torsions:
REMARK  status: ('A' for Active; 'I' for Inactive)
REMARK    1  A    between atoms: C_1  and  C_2
REMARK    2  A    between atoms: C_5  and  C_6
REMARK    3  A    between atoms: C_6  and  C_7
REMARK    4  A    between atoms: C_7  and  N_8
REMARK    5  A    between atoms: C_7  and  C_21
REMARK    6  A    between atoms: N_8  and  CA_9
REMARK    7  A    between atoms: CA_9  and  C_10
REMARK    8  A    between atoms: CA_9  and  C_18
REMARK    9  A    between atoms: C_10  and  C_11
REMARK   10  A    between atoms: C_11  and  C_12
REMARK   11  A    between atoms: C_18  and  OXT_20
REMARK   12  A    between atoms: N_23  and  C_24
REMARK   13  A    between atoms: C_24  and  C_25
REMARK   14  A    between atoms: C_25  and  C_26
REMARK   15  A    between atoms: C_25  and  C_27
REMARK   16  A    between atoms: C_27  and  O_29
REMARK                            x       y       z     vdW  Elec       q    Type
REMARK                         _______ _______ _______ _____ _____    ______ ____
ROOT
ATOM      1  C   UNL     1       3.479   6.775  18.541  0.00  0.00    +0.000 C 
ENDROOT
BRANCH   1   2
ATOM      2  C   UNL     1       2.468   5.579  18.756  0.00  0.00    +0.000 C 
ATOM      3  O   UNL     1       2.003   4.979  17.787  0.00  0.00    +0.000 OA
ATOM      4  N   UNL     1       2.108   5.214  20.028  0.00  0.00    +0.000 N 
ATOM      5  H   UNL     1       2.692   5.458  20.821  0.00  0.00    +0.000 HD
BRANCH   4   6
ATOM      6  C   UNL     1       0.998   4.311  20.308  0.00  0.00    +0.000 C 
BRANCH   6   7
ATOM      7  C   UNL     1       1.287   2.821  20.482  0.00  0.00    +0.000 C 
ATOM      8  C   UNL     1       2.670   2.633  21.121  0.00  0.00    +0.000 C 
BRANCH   7   9
ATOM      9  C   UNL     1       1.246   2.081  19.162  0.00  0.00    +0.000 C 
ATOM     10  O   UNL     1       0.287   2.059  18.406  0.00  0.00    +0.000 OA
BRANCH   9  11
ATOM     11  O   UNL     1       2.395   1.424  18.883  0.00  0.00    +0.000 OA
ATOM     12  H   UNL     1       3.181   1.823  19.305  0.00  0.00    +0.000 HD
ENDBRANCH   9  11
ENDBRANCH   7   9
ENDBRANCH   6   7
ENDBRANCH   4   6
ENDBRANCH   1   2
BRANCH   1  13
ATOM     13  N   UNL     1       4.699   6.420  17.710  0.00  0.00    +0.000 NA
ATOM     14  H   UNL     1       4.413   6.338  16.734  0.00  0.00    +0.000 HD
BRANCH  13  15
ATOM     15  CA  UNL     1       5.518   5.215  18.117  0.00  0.00    +0.000 C 
BRANCH  15  16
ATOM     16  C   UNL     1       6.815   5.687  18.850  0.00  0.00    +0.000 C 
ATOM     17  O   UNL     1       7.133   5.386  19.988  0.00  0.00    +0.000 OA
BRANCH  16  18
ATOM     18  OXT UNL     1       7.592   6.491  18.074  0.00  0.00    +0.000 OA
ATOM     19  HXT UNL     1       7.070   7.288  17.857  0.00  0.00    +0.000 HD
ENDBRANCH  16  18
ENDBRANCH  15  16
BRANCH  15  20
ATOM     20  C   UNL     1       5.991   4.247  16.993  0.00  0.00    +0.000 C 
BRANCH  20  21
ATOM     21  C   UNL     1       5.130   4.339  15.723  0.00  0.00    +0.000 C 
BRANCH  21  22
ATOM     22  C   UNL     1       5.810   4.361  14.375  0.00  0.00    +0.000 A 
ATOM     23  C   UNL     1       5.224   3.573  13.367  0.00  0.00    +0.000 A 
ATOM     24  C   UNL     1       5.875   3.342  12.160  0.00  0.00    +0.000 A 
ATOM     25  C   UNL     1       7.099   3.949  11.916  0.00  0.00    +0.000 A 
ATOM     26  C   UNL     1       7.620   4.855  12.843  0.00  0.00    +0.000 A 
ATOM     27  C   UNL     1       6.971   5.075  14.067  0.00  0.00    +0.000 A 
ENDBRANCH  21  22
ENDBRANCH  20  21
ENDBRANCH  15  20
ENDBRANCH  13  15
ENDBRANCH   1  13
BRANCH   1  28
ATOM     28  C   UNL     1       2.793   7.996  17.866  0.00  0.00    +0.000 C 
BRANCH  28  33
ATOM     29  C   UNL     1      -1.000  11.418  20.702  0.00  0.00    +0.000 C 
ATOM     30  C   UNL     1      -0.093  10.465  19.980  0.00  0.00    +0.000 A 
ATOM     31  C   UNL     1       0.696   9.550  20.684  0.00  0.00    +0.000 A 
ATOM     32  C   UNL     1       1.581   8.695  20.014  0.00  0.00    +0.000 A 
ATOM     33  C   UNL     1       1.710   8.752  18.622  0.00  0.00    +0.000 A 
ATOM     34  C   UNL     1       0.869   9.631  17.915  0.00  0.00    +0.000 A 
ATOM     35  C   UNL     1      -0.032  10.467  18.585  0.00  0.00    +0.000 A 
ENDBRANCH  28  33
ENDBRANCH   1  28
TORSDOF 14
ENDMDL
MODEL 6
REMARK VINA RESULT:      -8.0      2.711      4.481
REMARK  Name = 
REMARK  16 active torsions:
REMARK  status: ('A' for Active; 'I' for Inactive)
REMARK    1  A    between atoms: C_1  and  C_2
REMARK    2  A    between atoms: C_5  and  C_6
REMARK    3  A    between atoms: C_6  and  C_7
REMARK    4  A    between atoms: C_7  and  N_8
REMARK    5  A    between atoms: C_7  and  C_21
REMARK    6  A    between atoms: N_8  and  CA_9
REMARK    7  A    between atoms: CA_9  and  C_10
REMARK    8  A    between atoms: CA_9  and  C_18
REMARK    9  A    between atoms: C_10  and  C_11
REMARK   10  A    between atoms: C_11  and  C_12
REMARK   11  A    between atoms: C_18  and  OXT_20
REMARK   12  A    between atoms: N_23  and  C_24
REMARK   13  A    between atoms: C_24  and  C_25
REMARK   14  A    between atoms: C_25  and  C_26
REMARK   15  A    between atoms: C_25  and  C_27
REMARK   16  A    between atoms: C_27  and  O_29
REMARK                            x       y       z     vdW  Elec       q    Type
REMARK                         _______ _______ _______ _____ _____    ______ ____
ROOT
ATOM      1  C   UNL     1       4.888   6.599  17.992  0.00  0.00    +0.000 C 
ENDROOT
BRANCH   1   2
ATOM      2  C   UNL     1       4.588   5.276  18.802  0.00  0.00    +0.000 C 
ATOM      3  O   UNL     1       5.108   5.093  19.904  0.00  0.00    +0.000 OA
ATOM      4  N   UNL     1       3.751   4.328  18.273  0.00  0.00    +0.000 N 
ATOM      5  H   UNL     1       3.081   4.576  17.552  0.00  0.00    +0.000 HD
BRANCH   4   6
ATOM      6  C   UNL     1       3.628   2.984  18.822  0.00  0.00    +0.000 C 
BRANCH   6   7
ATOM      7  C   UNL     1       2.354   2.610  19.577  0.00  0.00    +0.000 C 
ATOM      8  C   UNL     1       1.139   3.252  18.892  0.00  0.00    +0.000 C 
BRANCH   7   9
ATOM      9  C   UNL     1       2.404   3.060  21.022  0.00  0.00    +0.000 C 
ATOM     10  O   UNL     1       2.830   2.385  21.947  0.00  0.00    +0.000 OA
BRANCH   9  11
ATOM     11  O   UNL     1       1.918   4.309  21.209  0.00  0.00    +0.000 OA
ATOM     12  H   UNL     1       1.308   4.596  20.502  0.00  0.00    +0.000 HD
ENDBRANCH   9  11
ENDBRANCH   7   9
ENDBRANCH   6   7
ENDBRANCH   4   6
ENDBRANCH   1   2
BRANCH   1  13
ATOM     13  N   UNL     1       5.907   6.434  16.879  0.00  0.00    +0.000 NA
ATOM     14  H   UNL     1       5.709   5.563  16.386  0.00  0.00    +0.000 HD
BRANCH  13  15
ATOM     15  CA  UNL     1       7.376   6.509  17.235  0.00  0.00    +0.000 C 
BRANCH  15  16
ATOM     16  C   UNL     1       7.848   5.132  17.802  0.00  0.00    +0.000 C 
ATOM     17  O   UNL     1       8.121   4.149  17.134  0.00  0.00    +0.000 OA
BRANCH  16  18
ATOM     18  OXT UNL     1       7.938   5.127  19.159  0.00  0.00    +0.000 OA
ATOM     19  HXT UNL     1       8.797   4.729  19.399  0.00  0.00    +0.000 HD
ENDBRANCH  16  18
ENDBRANCH  15  16
BRANCH  15  20
ATOM     20  C   UNL     1       7.814   7.576  18.281  0.00  0.00    +0.000 C 
BRANCH  20  21
ATOM     21  C   UNL     1       8.022   8.968  17.665  0.00  0.00    +0.000 C 
BRANCH  21  22
ATOM     22  C   UNL     1       8.859   9.983  18.407  0.00  0.00    +0.000 A 
ATOM     23  C   UNL     1       9.524  10.940  17.619  0.00  0.00    +0.000 A 
ATOM     24  C   UNL     1      10.488  11.781  18.165  0.00  0.00    +0.000 A 
ATOM     25  C   UNL     1      10.757  11.722  19.525  0.00  0.00    +0.000 A 
ATOM     26  C   UNL     1       9.996  10.886  20.345  0.00  0.00    +0.000 A 
ATOM     27  C   UNL     1       9.035  10.026  19.792  0.00  0.00    +0.000 A 
ENDBRANCH  21  22
ENDBRANCH  20  21
ENDBRANCH  15  20
ENDBRANCH  13  15
ENDBRANCH   1  13
BRANCH   1  28
ATOM     28  C   UNL     1       3.598   7.193  17.360  0.00  0.00    +0.000 C 
BRANCH  28  33
ATOM     29  C   UNL     1       0.088  10.216  20.923  0.00  0.00    +0.000 C 
ATOM     30  C   UNL     1       0.913   9.379  19.989  0.00  0.00    +0.000 A 
ATOM     31  C   UNL     1       1.499   8.184  20.421  0.00  0.00    +0.000 A 
ATOM     32  C   UNL     1       2.310   7.428  19.564  0.00  0.00    +0.000 A 
ATOM     33  C   UNL     1       2.570   7.863  18.260  0.00  0.00    +0.000 A 
ATOM     34  C   UNL     1       1.928   9.033  17.813  0.00  0.00    +0.000 A 
ATOM     35  C   UNL     1       1.098   9.773  18.662  0.00  0.00    +0.000 A 
ENDBRANCH  28  33
ENDBRANCH   1  28
TORSDOF 14
ENDMDL
MODEL 7
REMARK VINA RESULT:      -7.9      2.649      7.429
REMARK  Name = 
REMARK  16 active torsions:
REMARK  status: ('A' for Active; 'I' for Inactive)
REMARK    1  A    between atoms: C_1  and  C_2
REMARK    2  A    between atoms: C_5  and  C_6
REMARK    3  A    between atoms: C_6  and  C_7
REMARK    4  A    between atoms: C_7  and  N_8
REMARK    5  A    between atoms: C_7  and  C_21
REMARK    6  A    between atoms: N_8  and  CA_9
REMARK    7  A    between atoms: CA_9  and  C_10
REMARK    8  A    between atoms: CA_9  and  C_18
REMARK    9  A    between atoms: C_10  and  C_11
REMARK   10  A    between atoms: C_11  and  C_12
REMARK   11  A    between atoms: C_18  and  OXT_20
REMARK   12  A    between atoms: N_23  and  C_24
REMARK   13  A    between atoms: C_24  and  C_25
REMARK   14  A    between atoms: C_25  and  C_26
REMARK   15  A    between atoms: C_25  and  C_27
REMARK   16  A    between atoms: C_27  and  O_29
REMARK                            x       y       z     vdW  Elec       q    Type
REMARK                         _______ _______ _______ _____ _____    ______ ____
ROOT
ATOM      1  C   UNL     1       5.570   4.672  16.090  0.00  0.00    +0.000 C 
ENDROOT
BRANCH   1   2
ATOM      2  C   UNL     1       6.481   4.507  14.809  0.00  0.00    +0.000 C 
ATOM      3  O   UNL     1       7.561   5.095  14.738  0.00  0.00    +0.000 OA
ATOM      4  N   UNL     1       6.063   3.710  13.775  0.00  0.00    +0.000 N 
ATOM      5  H   UNL     1       5.367   2.988  13.928  0.00  0.00    +0.000 HD
BRANCH   4   6
ATOM      6  C   UNL     1       6.705   3.709  12.466  0.00  0.00    +0.000 C 
BRANCH   6   7
ATOM      7  C   UNL     1       6.017   2.988  11.309  0.00  0.00    +0.000 C 
ATOM      8  C   UNL     1       4.496   3.014  11.513  0.00  0.00    +0.000 C 
BRANCH   7   9
ATOM      9  C   UNL     1       6.477   1.550  11.189  0.00  0.00    +0.000 C 
ATOM     10  O   UNL     1       5.732   0.588  11.073  0.00  0.00    +0.000 OA
BRANCH   9  11
ATOM     11  O   UNL     1       7.822   1.415  11.228  0.00  0.00    +0.000 OA
ATOM     12  H   UNL     1       8.280   1.907  10.519  0.00  0.00    +0.000 HD
ENDBRANCH   9  11
ENDBRANCH   7   9
ENDBRANCH   6   7
ENDBRANCH   4   6
ENDBRANCH   1   2
BRANCH   1  13
ATOM     13  N   UNL     1       4.940   6.045  16.237  0.00  0.00    +0.000 NA
ATOM     14  H   UNL     1       5.220   6.617  15.440  0.00  0.00    +0.000 HD
BRANCH  13  15
ATOM     15  CA  UNL     1       5.163   6.803  17.527  0.00  0.00    +0.000 C 
BRANCH  15  16
ATOM     16  C   UNL     1       6.408   6.216  18.269  0.00  0.00    +0.000 C 
ATOM     17  O   UNL     1       6.374   5.576  19.307  0.00  0.00    +0.000 OA
BRANCH  16  18
ATOM     18  OXT UNL     1       7.576   6.488  17.628  0.00  0.00    +0.000 OA
ATOM     19  HXT UNL     1       8.097   7.084  18.201  0.00  0.00    +0.000 HD
ENDBRANCH  16  18
ENDBRANCH  15  16
BRANCH  15  20
ATOM     20  C   UNL     1       4.008   6.812  18.571  0.00  0.00    +0.000 C 
BRANCH  20  21
ATOM     21  C   UNL     1       2.796   7.640  18.115  0.00  0.00    +0.000 C 
BRANCH  21  22
ATOM     22  C   UNL     1       1.882   8.240  19.156  0.00  0.00    +0.000 A 
ATOM     23  C   UNL     1       1.183   9.401  18.779  0.00  0.00    +0.000 A 
ATOM     24  C   UNL     1       0.487  10.161  19.713  0.00  0.00    +0.000 A 
ATOM     25  C   UNL     1       0.426   9.736  21.033  0.00  0.00    +0.000 A 
ATOM     26  C   UNL     1       0.985   8.507  21.390  0.00  0.00    +0.000 A 
ATOM     27  C   UNL     1       1.700   7.748  20.451  0.00  0.00    +0.000 A 
ENDBRANCH  21  22
ENDBRANCH  20  21
ENDBRANCH  15  20
ENDBRANCH  13  15
ENDBRANCH   1  13
BRANCH   1  28
ATOM     28  C   UNL     1       4.422   3.624  16.121  0.00  0.00    +0.000 C 
BRANCH  28  33
ATOM     29  C   UNL     1       1.299   3.616  21.059  0.00  0.00    +0.000 C 
ATOM     30  C   UNL     1       2.084   3.520  19.784  0.00  0.00    +0.000 A 
ATOM     31  C   UNL     1       3.418   3.097  19.791  0.00  0.00    +0.000 A 
ATOM     32  C   UNL     1       4.167   3.056  18.607  0.00  0.00    +0.000 A 
ATOM     33  C   UNL     1       3.602   3.457  17.391  0.00  0.00    +0.000 A 
ATOM     34  C   UNL     1       2.243   3.822  17.383  0.00  0.00    +0.000 A 
ATOM     35  C   UNL     1       1.490   3.839  18.561  0.00  0.00    +0.000 A 
ENDBRANCH  28  33
ENDBRANCH   1  28
TORSDOF 14
ENDMDL
MODEL 8
REMARK VINA RESULT:      -7.8      1.547      2.121
REMARK  Name = 
REMARK  16 active torsions:
REMARK  status: ('A' for Active; 'I' for Inactive)
REMARK    1  A    between atoms: C_1  and  C_2
REMARK    2  A    between atoms: C_5  and  C_6
REMARK    3  A    between atoms: C_6  and  C_7
REMARK    4  A    between atoms: C_7  and  N_8
REMARK    5  A    between atoms: C_7  and  C_21
REMARK    6  A    between atoms: N_8  and  CA_9
REMARK    7  A    between atoms: CA_9  and  C_10
REMARK    8  A    between atoms: CA_9  and  C_18
REMARK    9  A    between atoms: C_10  and  C_11
REMARK   10  A    between atoms: C_11  and  C_12
REMARK   11  A    between atoms: C_18  and  OXT_20
REMARK   12  A    between atoms: N_23  and  C_24
REMARK   13  A    between atoms: C_24  and  C_25
REMARK   14  A    between atoms: C_25  and  C_26
REMARK   15  A    between atoms: C_25  and  C_27
REMARK   16  A    between atoms: C_27  and  O_29
REMARK                            x       y       z     vdW  Elec       q    Type
REMARK                         _______ _______ _______ _____ _____    ______ ____
ROOT
ATOM      1  C   UNL     1       3.156   6.832  18.675  0.00  0.00    +0.000 C 
ENDROOT
BRANCH   1   2
ATOM      2  C   UNL     1       2.259   5.542  18.845  0.00  0.00    +0.000 C 
ATOM      3  O   UNL     1       1.789   4.981  17.855  0.00  0.00    +0.000 OA
ATOM      4  N   UNL     1       2.002   5.052  20.099  0.00  0.00    +0.000 N 
ATOM      5  H   UNL     1       2.609   5.285  20.879  0.00  0.00    +0.000 HD
BRANCH   4   6
ATOM      6  C   UNL     1       0.987   4.040  20.362  0.00  0.00    +0.000 C 
BRANCH   6   7
ATOM      7  C   UNL     1       1.421   2.585  20.520  0.00  0.00    +0.000 C 
ATOM      8  C   UNL     1       2.516   2.484  21.592  0.00  0.00    +0.000 C 
BRANCH   7   9
ATOM      9  C   UNL     1       1.945   2.009  19.221  0.00  0.00    +0.000 C 
ATOM     10  O   UNL     1       3.106   1.686  19.021  0.00  0.00    +0.000 OA
BRANCH   9  11
ATOM     11  O   UNL     1       0.991   1.884  18.270  0.00  0.00    +0.000 OA
ATOM     12  H   UNL     1       0.734   0.957  18.100  0.00  0.00    +0.000 HD
ENDBRANCH   9  11
ENDBRANCH   7   9
ENDBRANCH   6   7
ENDBRANCH   4   6
ENDBRANCH   1   2
BRANCH   1  13
ATOM     13  N   UNL     1       4.477   6.586  17.968  0.00  0.00    +0.000 NA
ATOM     14  H   UNL     1       4.453   7.060  17.065  0.00  0.00    +0.000 HD
BRANCH  13  15
ATOM     15  CA  UNL     1       4.943   5.157  17.796  0.00  0.00    +0.000 C 
BRANCH  15  16
ATOM     16  C   UNL     1       5.651   4.677  19.104  0.00  0.00    +0.000 C 
ATOM     17  O   UNL     1       6.415   5.345  19.779  0.00  0.00    +0.000 OA
BRANCH  16  18
ATOM     18  OXT UNL     1       5.322   3.401  19.439  0.00  0.00    +0.000 OA
ATOM     19  HXT UNL     1       4.708   3.441  20.197  0.00  0.00    +0.000 HD
ENDBRANCH  16  18
ENDBRANCH  15  16
BRANCH  15  20
ATOM     20  C   UNL     1       5.937   4.854  16.636  0.00  0.00    +0.000 C 
BRANCH  20  21
ATOM     21  C   UNL     1       5.248   4.256  15.399  0.00  0.00    +0.000 C 
BRANCH  21  22
ATOM     22  C   UNL     1       6.019   4.156  14.105  0.00  0.00    +0.000 A 
ATOM     23  C   UNL     1       7.166   4.964  13.998  0.00  0.00    +0.000 A 
ATOM     24  C   UNL     1       7.829   5.121  12.785  0.00  0.00    +0.000 A 
ATOM     25  C   UNL     1       7.391   4.419  11.670  0.00  0.00    +0.000 A 
ATOM     26  C   UNL     1       6.350   3.497  11.798  0.00  0.00    +0.000 A 
ATOM     27  C   UNL     1       5.672   3.351  13.017  0.00  0.00    +0.000 A 
ENDBRANCH  21  22
ENDBRANCH  20  21
ENDBRANCH  15  20
ENDBRANCH  13  15
ENDBRANCH   1  13
BRANCH   1  28
ATOM     28  C   UNL     1       2.412   7.955  17.898  0.00  0.00    +0.000 C 
BRANCH  28  33
ATOM     29  C   UNL     1      -0.589  12.101  20.718  0.00  0.00    +0.000 C 
ATOM     30  C   UNL     1       0.266  11.076  20.031  0.00  0.00    +0.000 A 
ATOM     31  C   UNL     1       0.895  11.363  18.815  0.00  0.00    +0.000 A 
ATOM     32  C   UNL     1       1.650  10.390  18.147  0.00  0.00    +0.000 A 
ATOM     33  C   UNL     1       1.777   9.100  18.674  0.00  0.00    +0.000 A 
ATOM     34  C   UNL     1       1.194   8.838  19.927  0.00  0.00    +0.000 A 
ATOM     35  C   UNL     1       0.460   9.818  20.604  0.00  0.00    +0.000 A 
ENDBRANCH  28  33
ENDBRANCH   1  28
TORSDOF 14
ENDMDL
MODEL 9
REMARK VINA RESULT:      -7.8      3.531      6.869
REMARK  Name = 
REMARK  16 active torsions:
REMARK  status: ('A' for Active; 'I' for Inactive)
REMARK    1  A    between atoms: C_1  and  C_2
REMARK    2  A    between atoms: C_5  and  C_6
REMARK    3  A    between atoms: C_6  and  C_7
REMARK    4  A    between atoms: C_7  and  N_8
REMARK    5  A    between atoms: C_7  and  C_21
REMARK    6  A    between atoms: N_8  and  CA_9
REMARK    7  A    between atoms: CA_9  and  C_10
REMARK    8  A    between atoms: CA_9  and  C_18
REMARK    9  A    between atoms: C_10  and  C_11
REMARK   10  A    between atoms: C_11  and  C_12
REMARK   11  A    between atoms: C_18  and  OXT_20
REMARK   12  A    between atoms: N_23  and  C_24
REMARK   13  A    between atoms: C_24  and  C_25
REMARK   14  A    between atoms: C_25  and  C_26
REMARK   15  A    between atoms: C_25  and  C_27
REMARK   16  A    between atoms: C_27  and  O_29
REMARK                            x       y       z     vdW  Elec       q    Type
REMARK                         _______ _______ _______ _____ _____    ______ ____
ROOT
ATOM      1  C   UNL     1       5.400   6.218  17.367  0.00  0.00    +0.000 C 
ENDROOT
BRANCH   1   2
ATOM      2  C   UNL     1       5.546   5.561  15.938  0.00  0.00    +0.000 C 
ATOM      3  O   UNL     1       5.167   6.168  14.936  0.00  0.00    +0.000 OA
ATOM      4  N   UNL     1       6.092   4.309  15.817  0.00  0.00    +0.000 N 
ATOM      5  H   UNL     1       6.685   3.931  16.549  0.00  0.00    +0.000 HD
BRANCH   4   6
ATOM      6  C   UNL     1       6.025   3.530  14.586  0.00  0.00    +0.000 C 
BRANCH   6   7
ATOM      7  C   UNL     1       5.912   4.267  13.254  0.00  0.00    +0.000 C 
ATOM      8  C   UNL     1       5.366   3.315  12.180  0.00  0.00    +0.000 C 
BRANCH   7   9
ATOM      9  C   UNL     1       7.249   4.813  12.798  0.00  0.00    +0.000 C 
ATOM     10  O   UNL     1       7.700   4.697  11.669  0.00  0.00    +0.000 OA
BRANCH   9  11
ATOM     11  O   UNL     1       7.924   5.456  13.778  0.00  0.00    +0.000 OA
ATOM     12  H   UNL     1       8.707   4.965  14.094  0.00  0.00    +0.000 HD
ENDBRANCH   9  11
ENDBRANCH   7   9
ENDBRANCH   6   7
ENDBRANCH   4   6
ENDBRANCH   1   2
BRANCH   1  13
ATOM     13  N   UNL     1       6.338   7.386  17.616  0.00  0.00    +0.000 NA
ATOM     14  H   UNL     1       6.289   8.017  16.815  0.00  0.00    +0.000 HD
BRANCH  13  15
ATOM     15  CA  UNL     1       7.781   7.088  17.959  0.00  0.00    +0.000 C 
BRANCH  15  16
ATOM     16  C   UNL     1       7.859   5.762  18.784  0.00  0.00    +0.000 C 
ATOM     17  O   UNL     1       8.031   4.649  18.317  0.00  0.00    +0.000 OA
BRANCH  16  18
ATOM     18  OXT UNL     1       7.718   5.969  20.121  0.00  0.00    +0.000 OA
ATOM     19  HXT UNL     1       8.307   6.706  20.371  0.00  0.00    +0.000 HD
ENDBRANCH  16  18
ENDBRANCH  15  16
BRANCH  15  20
ATOM     20  C   UNL     1       8.565   8.151  18.783  0.00  0.00    +0.000 C 
BRANCH  20  21
ATOM     21  C   UNL     1       8.562   9.540  18.125  0.00  0.00    +0.000 C 
BRANCH  21  22
ATOM     22  C   UNL     1       9.298  10.673  18.797  0.00  0.00    +0.000 A 
ATOM     23  C   UNL     1       9.815  11.671  17.951  0.00  0.00    +0.000 A 
ATOM     24  C   UNL     1      10.691  12.641  18.428  0.00  0.00    +0.000 A 
ATOM     25  C   UNL     1      11.015  12.666  19.777  0.00  0.00    +0.000 A 
ATOM     26  C   UNL     1      10.390  11.778  20.656  0.00  0.00    +0.000 A 
ATOM     27  C   UNL     1       9.519  10.791  20.172  0.00  0.00    +0.000 A 
ENDBRANCH  21  22
ENDBRANCH  20  21
ENDBRANCH  15  20
ENDBRANCH  13  15
ENDBRANCH   1  13
BRANCH   1  28
ATOM     28  C   UNL     1       3.952   6.718  17.628  0.00  0.00    +0.000 C 
BRANCH  28  33
ATOM     29  C   UNL     1       0.741   2.984  20.773  0.00  0.00    +0.000 C 
ATOM     30  C   UNL     1       1.481   3.990  19.941  0.00  0.00    +0.000 A 
ATOM     31  C   UNL     1       1.577   3.844  18.553  0.00  0.00    +0.000 A 
ATOM     32  C   UNL     1       2.311   4.754  17.781  0.00  0.00    +0.000 A 
ATOM     33  C   UNL     1       2.982   5.823  18.386  0.00  0.00    +0.000 A 
ATOM     34  C   UNL     1       2.829   5.999  19.773  0.00  0.00    +0.000 A 
ATOM     35  C   UNL     1       2.076   5.102  20.539  0.00  0.00    +0.000 A 
ENDBRANCH  28  33
ENDBRANCH   1  28
TORSDOF 14
ENDMDL
