MODEL 1
REMARK VINA RESULT:      -7.7      0.000      0.000
REMARK  Name = 
REMARK  4 active torsions:
REMARK  status: ('A' for Active; 'I' for Inactive)
REMARK    1  A    between atoms: C_1  and  C_2
REMARK    2  A    between atoms: C_6  and  C_7
REMARK    3  A    between atoms: C_13  and  C_14
REMARK    4  A    between atoms: N_15  and  C_16
REMARK                            x       y       z     vdW  Elec       q    Type
REMARK                         _______ _______ _______ _____ _____    ______ ____
ROOT
ATOM      1  C   UNL     1       4.450   2.724  19.240  0.00  0.00    +0.000 C 
ATOM      2  C   UNL     1       3.710   4.050  19.128  0.00  0.00    +0.000 A 
ATOM      3  N   UNL     1       2.761   4.146  20.010  0.00  0.00    +0.000 NA
ATOM      4  C   UNL     1       2.031   5.286  20.129  0.00  0.00    +0.000 A 
ATOM      5  O   UNL     1       1.058   5.361  20.866  0.00  0.00    +0.000 OA
ATOM      6  C   UNL     1       2.485   6.498  19.359  0.00  0.00    +0.000 A 
ATOM      7  C   UNL     1       3.451   6.346  18.419  0.00  0.00    +0.000 A 
ATOM      8  C   UNL     1       3.835   7.546  17.565  0.00  0.00    +0.000 C 
ATOM      9  N   UNL     1       4.074   5.075  18.213  0.00  0.00    +0.000 N 
ENDROOT
BRANCH   9  10
ATOM     10  C   UNL     1       5.105   4.857  17.221  0.00  0.00    +0.000 A 
ATOM     11  C   UNL     1       4.774   4.314  15.957  0.00  0.00    +0.000 A 
ATOM     12  C   UNL     1       5.738   4.034  14.980  0.00  0.00    +0.000 A 
ATOM     13  C   UNL     1       7.055   4.421  15.173  0.00  0.00    +0.000 A 
ATOM     14  C   UNL     1       7.418   5.000  16.386  0.00  0.00    +0.000 A 
ATOM     15  C   UNL     1       6.476   5.142  17.423  0.00  0.00    +0.000 A 
ATOM     16 CL   UNL     1       7.142   5.496  18.982  0.00  0.00    +0.000 Cl
ENDBRANCH   9  10
BRANCH   6  17
ATOM     17  C   UNL     1       1.827   7.785  19.661  0.00  0.00    +0.000 A 
ATOM     18  C   UNL     1       1.570   8.152  20.988  0.00  0.00    +0.000 A 
ATOM     19  C   UNL     1       0.941   9.365  21.276  0.00  0.00    +0.000 A 
ATOM     20  C   UNL     1       0.572  10.223  20.239  0.00  0.00    +0.000 A 
ATOM     21  C   UNL     1       0.826   9.868  18.914  0.00  0.00    +0.000 A 
ATOM     22  C   UNL     1       1.452   8.650  18.624  0.00  0.00    +0.000 A 
ENDBRANCH   6  17
TORSDOF 2
ENDMDL
MODEL 2
REMARK VINA RESULT:      -7.7      0.062      1.033
REMARK  Name = 
REMARK  4 active torsions:
REMARK  status: ('A' for Active; 'I' for Inactive)
REMARK    1  A    between atoms: C_1  and  C_2
REMARK    2  A    between atoms: C_6  and  C_7
REMARK    3  A    between atoms: C_13  and  C_14
REMARK    4  A    between atoms: N_15  and  C_16
REMARK                            x       y       z     vdW  Elec       q    Type
REMARK                         _______ _______ _______ _____ _____    ______ ____
ROOT
ATOM      1  C   UNL     1       4.482   2.778  19.293  0.00  0.00    +0.000 C 
ATOM      2  C   UNL     1       3.733   4.096  19.155  0.00  0.00    +0.000 A 
ATOM      3  N   UNL     1       2.787   4.204  20.039  0.00  0.00    +0.000 NA
ATOM      4  C   UNL     1       2.049   5.341  20.136  0.00  0.00    +0.000 A 
ATOM      5  O   UNL     1       1.079   5.425  20.876  0.00  0.00    +0.000 OA
ATOM      6  C   UNL     1       2.491   6.539  19.338  0.00  0.00    +0.000 A 
ATOM      7  C   UNL     1       3.454   6.374  18.398  0.00  0.00    +0.000 A 
ATOM      8  C   UNL     1       3.826   7.558  17.517  0.00  0.00    +0.000 C 
ATOM      9  N   UNL     1       4.086   5.103  18.217  0.00  0.00    +0.000 N 
ENDROOT
BRANCH   9  10
ATOM     10  C   UNL     1       5.114   4.872  17.225  0.00  0.00    +0.000 A 
ATOM     11  C   UNL     1       4.780   4.311  15.970  0.00  0.00    +0.000 A 
ATOM     12  C   UNL     1       5.741   4.017  14.994  0.00  0.00    +0.000 A 
ATOM     13  C   UNL     1       7.059   4.406  15.178  0.00  0.00    +0.000 A 
ATOM     14  C   UNL     1       7.425   5.002  16.382  0.00  0.00    +0.000 A 
ATOM     15  C   UNL     1       6.486   5.159  17.419  0.00  0.00    +0.000 A 
ATOM     16 CL   UNL     1       7.156   5.535  18.972  0.00  0.00    +0.000 Cl
ENDBRANCH   9  10
BRANCH   6  17
ATOM     17  C   UNL     1       1.825   7.827  19.616  0.00  0.00    +0.000 A 
ATOM     18  C   UNL     1       1.440   8.666  18.562  0.00  0.00    +0.000 A 
ATOM     19  C   UNL     1       0.816   9.887  18.822  0.00  0.00    +0.000 A 
ATOM     20  C   UNL     1       0.566  10.276  20.139  0.00  0.00    +0.000 A 
ATOM     21  C   UNL     1       0.942   9.448  21.196  0.00  0.00    +0.000 A 
ATOM     22  C   UNL     1       1.572   8.225  20.936  0.00  0.00    +0.000 A 
ENDBRANCH   6  17
TORSDOF 2
ENDMDL
MODEL 3
REMARK VINA RESULT:      -7.4      3.019      6.923
REMARK  Name = 
REMARK  4 active torsions:
REMARK  status: ('A' for Active; 'I' for Inactive)
REMARK    1  A    between atoms: C_1  and  C_2
REMARK    2  A    between atoms: C_6  and  C_7
REMARK    3  A    between atoms: C_13  and  C_14
REMARK    4  A    between atoms: N_15  and  C_16
REMARK                            x       y       z     vdW  Elec       q    Type
REMARK                         _______ _______ _______ _____ _____    ______ ____
ROOT
ATOM      1  C   UNL     1      -0.347   9.411  21.918  0.00  0.00    +0.000 C 
ATOM      2  C   UNL     1       0.644   8.716  20.994  0.00  0.00    +0.000 A 
ATOM      3  N   UNL     1       0.956   7.532  21.429  0.00  0.00    +0.000 NA
ATOM      4  C   UNL     1       1.767   6.714  20.708  0.00  0.00    +0.000 A 
ATOM      5  O   UNL     1       2.171   5.647  21.147  0.00  0.00    +0.000 OA
ATOM      6  C   UNL     1       2.123   7.133  19.306  0.00  0.00    +0.000 A 
ATOM      7  C   UNL     1       1.815   8.391  18.905  0.00  0.00    +0.000 A 
ATOM      8  C   UNL     1       2.270   8.852  17.528  0.00  0.00    +0.000 C 
ATOM      9  N   UNL     1       1.103   9.278  19.773  0.00  0.00    +0.000 N 
ENDROOT
BRANCH   9  10
ATOM     10  C   UNL     1       0.754  10.632  19.397  0.00  0.00    +0.000 A 
ATOM     11  C   UNL     1       1.585  11.712  19.775  0.00  0.00    +0.000 A 
ATOM     12  C   UNL     1       1.269  13.046  19.484  0.00  0.00    +0.000 A 
ATOM     13  C   UNL     1       0.180  13.341  18.677  0.00  0.00    +0.000 A 
ATOM     14  C   UNL     1      -0.641  12.303  18.246  0.00  0.00    +0.000 A 
ATOM     15  C   UNL     1      -0.405  10.980  18.665  0.00  0.00    +0.000 A 
ATOM     16 CL   UNL     1      -1.710   9.874  18.390  0.00  0.00    +0.000 Cl
ENDBRANCH   9  10
BRANCH   6  17
ATOM     17  C   UNL     1       2.815   6.145  18.454  0.00  0.00    +0.000 A 
ATOM     18  C   UNL     1       2.124   5.032  17.958  0.00  0.00    +0.000 A 
ATOM     19  C   UNL     1       2.778   4.094  17.158  0.00  0.00    +0.000 A 
ATOM     20  C   UNL     1       4.127   4.264  16.842  0.00  0.00    +0.000 A 
ATOM     21  C   UNL     1       4.824   5.370  17.328  0.00  0.00    +0.000 A 
ATOM     22  C   UNL     1       4.170   6.310  18.134  0.00  0.00    +0.000 A 
ENDBRANCH   6  17
TORSDOF 2
ENDMDL
MODEL 4
REMARK VINA RESULT:      -7.4      3.029      6.948
REMARK  Name = 
REMARK  4 active torsions:
REMARK  status: ('A' for Active; 'I' for Inactive)
REMARK    1  A    between atoms: C_1  and  C_2
REMARK    2  A    between atoms: C_6  and  C_7
REMARK    3  A    between atoms: C_13  and  C_14
REMARK    4  A    between atoms: N_15  and  C_16
REMARK                            x       y       z     vdW  Elec       q    Type
REMARK                         _______ _______ _______ _____ _____    ______ ____
ROOT
ATOM      1  C   UNL     1      -0.369   9.406  21.960  0.00  0.00    +0.000 C 
ATOM      2  C   UNL     1       0.624   8.725  21.029  0.00  0.00    +0.000 A 
ATOM      3  N   UNL     1       0.947   7.541  21.455  0.00  0.00    +0.000 NA
ATOM      4  C   UNL     1       1.762   6.734  20.726  0.00  0.00    +0.000 A 
ATOM      5  O   UNL     1       2.176   5.668  21.157  0.00  0.00    +0.000 OA
ATOM      6  C   UNL     1       2.111   7.165  19.326  0.00  0.00    +0.000 A 
ATOM      7  C   UNL     1       1.791   8.423  18.934  0.00  0.00    +0.000 A 
ATOM      8  C   UNL     1       2.239   8.896  17.559  0.00  0.00    +0.000 C 
ATOM      9  N   UNL     1       1.075   9.299  19.810  0.00  0.00    +0.000 N 
ENDROOT
BRANCH   9  10
ATOM     10  C   UNL     1       0.714  10.652  19.444  0.00  0.00    +0.000 A 
ATOM     11  C   UNL     1       1.536  11.737  19.828  0.00  0.00    +0.000 A 
ATOM     12  C   UNL     1       1.208  13.070  19.547  0.00  0.00    +0.000 A 
ATOM     13  C   UNL     1       0.117  13.361  18.743  0.00  0.00    +0.000 A 
ATOM     14  C   UNL     1      -0.696  12.319  18.305  0.00  0.00    +0.000 A 
ATOM     15  C   UNL     1      -0.449  10.996  18.715  0.00  0.00    +0.000 A 
ATOM     16 CL   UNL     1      -1.745   9.881  18.434  0.00  0.00    +0.000 Cl
ENDBRANCH   9  10
BRANCH   6  17
ATOM     17  C   UNL     1       2.808   6.188  18.466  0.00  0.00    +0.000 A 
ATOM     18  C   UNL     1       4.147   6.390  18.108  0.00  0.00    +0.000 A 
ATOM     19  C   UNL     1       4.806   5.471  17.290  0.00  0.00    +0.000 A 
ATOM     20  C   UNL     1       4.133   4.339  16.828  0.00  0.00    +0.000 A 
ATOM     21  C   UNL     1       2.800   4.126  17.180  0.00  0.00    +0.000 A 
ATOM     22  C   UNL     1       2.137   5.050  17.997  0.00  0.00    +0.000 A 
ENDBRANCH   6  17
TORSDOF 2
ENDMDL
MODEL 5
REMARK VINA RESULT:      -7.1      2.267      3.270
REMARK  Name = 
REMARK  4 active torsions:
REMARK  status: ('A' for Active; 'I' for Inactive)
REMARK    1  A    between atoms: C_1  and  C_2
REMARK    2  A    between atoms: C_6  and  C_7
REMARK    3  A    between atoms: C_13  and  C_14
REMARK    4  A    between atoms: N_15  and  C_16
REMARK                            x       y       z     vdW  Elec       q    Type
REMARK                         _______ _______ _______ _____ _____    ______ ____
ROOT
ATOM      1  C   UNL     1       2.544   5.122  21.051  0.00  0.00    +0.000 C 
ATOM      2  C   UNL     1       1.964   6.388  20.436  0.00  0.00    +0.000 A 
ATOM      3  N   UNL     1       1.138   6.980  21.244  0.00  0.00    +0.000 NA
ATOM      4  C   UNL     1       0.571   8.170  20.916  0.00  0.00    +0.000 A 
ATOM      5  O   UNL     1      -0.298   8.688  21.603  0.00  0.00    +0.000 OA
ATOM      6  C   UNL     1       1.082   8.880  19.690  0.00  0.00    +0.000 A 
ATOM      7  C   UNL     1       1.912   8.212  18.851  0.00  0.00    +0.000 A 
ATOM      8  C   UNL     1       2.343   8.888  17.558  0.00  0.00    +0.000 C 
ATOM      9  N   UNL     1       2.348   6.885  19.161  0.00  0.00    +0.000 N 
ENDROOT
BRANCH   9  10
ATOM     10  C   UNL     1       3.228   6.126  18.298  0.00  0.00    +0.000 A 
ATOM     11  C   UNL     1       4.517   6.619  17.986  0.00  0.00    +0.000 A 
ATOM     12  C   UNL     1       5.389   5.953  17.114  0.00  0.00    +0.000 A 
ATOM     13  C   UNL     1       5.063   4.694  16.634  0.00  0.00    +0.000 A 
ATOM     14  C   UNL     1       3.821   4.151  16.953  0.00  0.00    +0.000 A 
ATOM     15  C   UNL     1       2.887   4.889  17.705  0.00  0.00    +0.000 A 
ATOM     16 CL   UNL     1       1.269   4.271  17.683  0.00  0.00    +0.000 Cl
ENDBRANCH   9  10
BRANCH   6  17
ATOM     17  C   UNL     1       0.624  10.266  19.464  0.00  0.00    +0.000 A 
ATOM     18  C   UNL     1       1.329  11.342  20.016  0.00  0.00    +0.000 A 
ATOM     19  C   UNL     1       0.894  12.652  19.809  0.00  0.00    +0.000 A 
ATOM     20  C   UNL     1      -0.246  12.896  19.041  0.00  0.00    +0.000 A 
ATOM     21  C   UNL     1      -0.954  11.831  18.483  0.00  0.00    +0.000 A 
ATOM     22  C   UNL     1      -0.521  10.517  18.695  0.00  0.00    +0.000 A 
ENDBRANCH   6  17
TORSDOF 2
ENDMDL
MODEL 6
REMARK VINA RESULT:      -7.1      2.265      3.342
REMARK  Name = 
REMARK  4 active torsions:
REMARK  status: ('A' for Active; 'I' for Inactive)
REMARK    1  A    between atoms: C_1  and  C_2
REMARK    2  A    between atoms: C_6  and  C_7
REMARK    3  A    between atoms: C_13  and  C_14
REMARK    4  A    between atoms: N_15  and  C_16
REMARK                            x       y       z     vdW  Elec       q    Type
REMARK                         _______ _______ _______ _____ _____    ______ ____
ROOT
ATOM      1  C   UNL     1       2.584   5.132  21.024  0.00  0.00    +0.000 C 
ATOM      2  C   UNL     1       1.992   6.398  20.421  0.00  0.00    +0.000 A 
ATOM      3  N   UNL     1       1.177   6.986  21.245  0.00  0.00    +0.000 NA
ATOM      4  C   UNL     1       0.601   8.175  20.928  0.00  0.00    +0.000 A 
ATOM      5  O   UNL     1      -0.258   8.688  21.631  0.00  0.00    +0.000 OA
ATOM      6  C   UNL     1       1.090   8.889  19.696  0.00  0.00    +0.000 A 
ATOM      7  C   UNL     1       1.908   8.225  18.841  0.00  0.00    +0.000 A 
ATOM      8  C   UNL     1       2.315   8.906  17.543  0.00  0.00    +0.000 C 
ATOM      9  N   UNL     1       2.353   6.899  19.141  0.00  0.00    +0.000 N 
ENDROOT
BRANCH   9  10
ATOM     10  C   UNL     1       3.221   6.145  18.262  0.00  0.00    +0.000 A 
ATOM     11  C   UNL     1       4.485   6.662  17.894  0.00  0.00    +0.000 A 
ATOM     12  C   UNL     1       5.342   6.000  17.005  0.00  0.00    +0.000 A 
ATOM     13  C   UNL     1       5.031   4.724  16.561  0.00  0.00    +0.000 A 
ATOM     14  C   UNL     1       3.815   4.157  16.935  0.00  0.00    +0.000 A 
ATOM     15  C   UNL     1       2.890   4.887  17.705  0.00  0.00    +0.000 A 
ATOM     16 CL   UNL     1       1.288   4.230  17.754  0.00  0.00    +0.000 Cl
ENDBRANCH   9  10
BRANCH   6  17
ATOM     17  C   UNL     1       0.624  10.273  19.480  0.00  0.00    +0.000 A 
ATOM     18  C   UNL     1      -0.540  10.520  18.740  0.00  0.00    +0.000 A 
ATOM     19  C   UNL     1      -0.978  11.829  18.529  0.00  0.00    +0.000 A 
ATOM     20  C   UNL     1      -0.260  12.900  19.062  0.00  0.00    +0.000 A 
ATOM     21  C   UNL     1       0.899  12.666  19.803  0.00  0.00    +0.000 A 
ATOM     22  C   UNL     1       1.342  11.354  20.011  0.00  0.00    +0.000 A 
ENDBRANCH   6  17
TORSDOF 2
ENDMDL
MODEL 7
REMARK VINA RESULT:      -6.9      8.882      9.998
REMARK  Name = 
REMARK  4 active torsions:
REMARK  status: ('A' for Active; 'I' for Inactive)
REMARK    1  A    between atoms: C_1  and  C_2
REMARK    2  A    between atoms: C_6  and  C_7
REMARK    3  A    between atoms: C_13  and  C_14
REMARK    4  A    between atoms: N_15  and  C_16
REMARK                            x       y       z     vdW  Elec       q    Type
REMARK                         _______ _______ _______ _____ _____    ______ ____
ROOT
ATOM      1  C   UNL     1       6.934  15.123  17.889  0.00  0.00    +0.000 C 
ATOM      2  C   UNL     1       7.305  14.745  19.317  0.00  0.00    +0.000 A 
ATOM      3  N   UNL     1       6.323  14.958  20.140  0.00  0.00    +0.000 NA
ATOM      4  C   UNL     1       6.423  14.613  21.451  0.00  0.00    +0.000 A 
ATOM      5  O   UNL     1       5.562  14.909  22.268  0.00  0.00    +0.000 OA
ATOM      6  C   UNL     1       7.613  13.796  21.876  0.00  0.00    +0.000 A 
ATOM      7  C   UNL     1       8.636  13.632  21.000  0.00  0.00    +0.000 A 
ATOM      8  C   UNL     1       9.886  12.899  21.464  0.00  0.00    +0.000 C 
ATOM      9  N   UNL     1       8.552  14.165  19.675  0.00  0.00    +0.000 N 
ENDROOT
BRANCH   9  10
ATOM     10  C   UNL     1       9.615  14.023  18.703  0.00  0.00    +0.000 A 
ATOM     11  C   UNL     1      10.473  15.112  18.422  0.00  0.00    +0.000 A 
ATOM     12  C   UNL     1      11.484  15.047  17.454  0.00  0.00    +0.000 A 
ATOM     13  C   UNL     1      11.771  13.843  16.830  0.00  0.00    +0.000 A 
ATOM     14  C   UNL     1      10.979  12.732  17.110  0.00  0.00    +0.000 A 
ATOM     15  C   UNL     1       9.870  12.841  17.970  0.00  0.00    +0.000 A 
ATOM     16 CL   UNL     1       8.758  11.514  17.912  0.00  0.00    +0.000 Cl
ENDBRANCH   9  10
BRANCH   6  17
ATOM     17  C   UNL     1       7.605  13.238  23.244  0.00  0.00    +0.000 A 
ATOM     18  C   UNL     1       6.965  12.020  23.506  0.00  0.00    +0.000 A 
ATOM     19  C   UNL     1       6.950  11.495  24.799  0.00  0.00    +0.000 A 
ATOM     20  C   UNL     1       7.581  12.180  25.838  0.00  0.00    +0.000 A 
ATOM     21  C   UNL     1       8.224  13.392  25.588  0.00  0.00    +0.000 A 
ATOM     22  C   UNL     1       8.235  13.922  24.292  0.00  0.00    +0.000 A 
ENDBRANCH   6  17
TORSDOF 2
ENDMDL
MODEL 8
REMARK VINA RESULT:      -6.8      9.041     10.080
REMARK  Name = 
REMARK  4 active torsions:
REMARK  status: ('A' for Active; 'I' for Inactive)
REMARK    1  A    between atoms: C_1  and  C_2
REMARK    2  A    between atoms: C_6  and  C_7
REMARK    3  A    between atoms: C_13  and  C_14
REMARK    4  A    between atoms: N_15  and  C_16
REMARK                            x       y       z     vdW  Elec       q    Type
REMARK                         _______ _______ _______ _____ _____    ______ ____
ROOT
ATOM      1  C   UNL     1       7.082  15.074  17.854  0.00  0.00    +0.000 C 
ATOM      2  C   UNL     1       7.418  14.690  19.289  0.00  0.00    +0.000 A 
ATOM      3  N   UNL     1       6.431  14.940  20.096  0.00  0.00    +0.000 NA
ATOM      4  C   UNL     1       6.500  14.599  21.409  0.00  0.00    +0.000 A 
ATOM      5  O   UNL     1       5.638  14.929  22.212  0.00  0.00    +0.000 OA
ATOM      6  C   UNL     1       7.655  13.742  21.856  0.00  0.00    +0.000 A 
ATOM      7  C   UNL     1       8.683  13.538  20.996  0.00  0.00    +0.000 A 
ATOM      8  C   UNL     1       9.900  12.764  21.482  0.00  0.00    +0.000 C 
ATOM      9  N   UNL     1       8.638  14.068  19.667  0.00  0.00    +0.000 N 
ENDROOT
BRANCH   9  10
ATOM     10  C   UNL     1       9.710  13.884  18.712  0.00  0.00    +0.000 A 
ATOM     11  C   UNL     1       9.844  12.658  18.020  0.00  0.00    +0.000 A 
ATOM     12  C   UNL     1      10.893  12.407  17.125  0.00  0.00    +0.000 A 
ATOM     13  C   UNL     1      11.768  13.425  16.777  0.00  0.00    +0.000 A 
ATOM     14  C   UNL     1      11.645  14.663  17.403  0.00  0.00    +0.000 A 
ATOM     15  C   UNL     1      10.684  14.865  18.412  0.00  0.00    +0.000 A 
ATOM     16 CL   UNL     1      10.905  16.293  19.367  0.00  0.00    +0.000 Cl
ENDBRANCH   9  10
BRANCH   6  17
ATOM     17  C   UNL     1       7.606  13.191  23.225  0.00  0.00    +0.000 A 
ATOM     18  C   UNL     1       8.214  13.877  24.285  0.00  0.00    +0.000 A 
ATOM     19  C   UNL     1       8.175  13.355  25.578  0.00  0.00    +0.000 A 
ATOM     20  C   UNL     1       7.522  12.146  25.824  0.00  0.00    +0.000 A 
ATOM     21  C   UNL     1       6.911  11.456  24.777  0.00  0.00    +0.000 A 
ATOM     22  C   UNL     1       6.953  11.977  23.478  0.00  0.00    +0.000 A 
ENDBRANCH   6  17
TORSDOF 2
ENDMDL
MODEL 9
REMARK VINA RESULT:      -6.7      6.989      9.806
REMARK  Name = 
REMARK  4 active torsions:
REMARK  status: ('A' for Active; 'I' for Inactive)
REMARK    1  A    between atoms: C_1  and  C_2
REMARK    2  A    between atoms: C_6  and  C_7
REMARK    3  A    between atoms: C_13  and  C_14
REMARK    4  A    between atoms: N_15  and  C_16
REMARK                            x       y       z     vdW  Elec       q    Type
REMARK                         _______ _______ _______ _____ _____    ______ ____
ROOT
ATOM      1  C   UNL     1      -2.555  10.537  16.017  0.00  0.00    +0.000 C 
ATOM      2  C   UNL     1      -3.310  11.315  17.086  0.00  0.00    +0.000 A 
ATOM      3  N   UNL     1      -4.539  11.548  16.733  0.00  0.00    +0.000 NA
ATOM      4  C   UNL     1      -5.405  12.162  17.581  0.00  0.00    +0.000 A 
ATOM      5  O   UNL     1      -6.527  12.498  17.232  0.00  0.00    +0.000 OA
ATOM      6  C   UNL     1      -4.964  12.376  19.005  0.00  0.00    +0.000 A 
ATOM      7  C   UNL     1      -3.663  12.160  19.323  0.00  0.00    +0.000 A 
ATOM      8  C   UNL     1      -3.193  12.480  20.734  0.00  0.00    +0.000 C 
ATOM      9  N   UNL     1      -2.746  11.671  18.340  0.00  0.00    +0.000 N 
ENDROOT
BRANCH   9  10
ATOM     10  C   UNL     1      -1.347  11.428  18.625  0.00  0.00    +0.000 A 
ATOM     11  C   UNL     1      -0.911  10.137  19.003  0.00  0.00    +0.000 A 
ATOM     12  C   UNL     1       0.420   9.858  19.341  0.00  0.00    +0.000 A 
ATOM     13  C   UNL     1       1.396  10.829  19.175  0.00  0.00    +0.000 A 
ATOM     14  C   UNL     1       1.017  12.104  18.762  0.00  0.00    +0.000 A 
ATOM     15  C   UNL     1      -0.340  12.421  18.569  0.00  0.00    +0.000 A 
ATOM     16 CL   UNL     1      -0.695  14.112  18.453  0.00  0.00    +0.000 Cl
ENDBRANCH   9  10
BRANCH   6  17
ATOM     17  C   UNL     1      -5.981  12.837  19.971  0.00  0.00    +0.000 A 
ATOM     18  C   UNL     1      -6.741  11.909  20.694  0.00  0.00    +0.000 A 
ATOM     19  C   UNL     1      -7.707  12.342  21.603  0.00  0.00    +0.000 A 
ATOM     20  C   UNL     1      -7.917  13.707  21.802  0.00  0.00    +0.000 A 
ATOM     21  C   UNL     1      -7.164  14.641  21.089  0.00  0.00    +0.000 A 
ATOM     22  C   UNL     1      -6.198  14.207  20.174  0.00  0.00    +0.000 A 
ENDBRANCH   6  17
TORSDOF 2
ENDMDL
