MODEL 1
REMARK VINA RESULT:      -6.6      0.000      0.000
REMARK  Name = 
REMARK  14 active torsions:
REMARK  status: ('A' for Active; 'I' for Inactive)
REMARK    1  A    between atoms: C_1  and  C_2
REMARK    2  A    between atoms: C_2  and  C_3
REMARK    3  A    between atoms: C_2  and  C_4
REMARK    4  A    between atoms: C_8  and  C_9
REMARK    5  A    between atoms: C_9  and  C_10
REMARK    6  A    between atoms: C_9  and  C_11
REMARK    7  A    between atoms: C_12  and  O_13
REMARK    8  A    between atoms: O_13  and  C_14
REMARK    9  A    between atoms: C_14  and  C_16
REMARK   10  A    between atoms: C_16  and  O_17
REMARK   11  A    between atoms: O_17  and  C_18
REMARK   12  A    between atoms: C_18  and  C_20
REMARK   13  A    between atoms: C_20  and  C_21
REMARK   14  A    between atoms: C_20  and  N_22
REMARK                            x       y       z     vdW  Elec       q    Type
REMARK                         _______ _______ _______ _____ _____    ______ ____
ROOT
ATOM      1  C   UNL     1       3.315   3.455  19.738  0.00  0.00    +0.000 A 
ATOM      2  C   UNL     1       2.217   3.137  20.557  0.00  0.00    +0.000 A 
ATOM      3  C   UNL     1       1.322   4.114  20.959  0.00  0.00    +0.000 A 
ATOM      4  C   UNL     1       1.489   5.427  20.549  0.00  0.00    +0.000 A 
ATOM      5  C   UNL     1       2.564   5.811  19.720  0.00  0.00    +0.000 A 
ATOM      6  C   UNL     1       3.503   4.802  19.311  0.00  0.00    +0.000 A 
ENDROOT
BRANCH   1   8
ATOM      7  C   UNL     1       4.904   1.648  20.531  0.00  0.00    +0.000 C 
ATOM      8  C   UNL     1       4.259   2.332  19.316  0.00  0.00    +0.000 C 
ATOM      9  C   UNL     1       3.508   1.297  18.466  0.00  0.00    +0.000 C 
ENDBRANCH   1   8
BRANCH   5  10
ATOM     10  C   UNL     1       2.653   7.295  19.341  0.00  0.00    +0.000 C 
ATOM     11  C   UNL     1       2.354   7.484  17.846  0.00  0.00    +0.000 C 
ATOM     12  C   UNL     1       1.730   8.162  20.204  0.00  0.00    +0.000 C 
ENDBRANCH   5  10
BRANCH   6  13
ATOM     13  O   UNL     1       4.611   5.082  18.570  0.00  0.00    +0.000 OA
BRANCH  13  14
ATOM     14  C   UNL     1       5.825   5.517  18.987  0.00  0.00    +0.000 C 
ATOM     15  O   UNL     1       6.371   5.007  19.955  0.00  0.00    +0.000 OA
BRANCH  14  16
ATOM     16  C   UNL     1       6.594   6.450  18.088  0.00  0.00    +0.000 C 
BRANCH  16  17
ATOM     17  O   UNL     1       6.726   5.944  16.809  0.00  0.00    +0.000 OA
BRANCH  17  18
ATOM     18  C   UNL     1       7.187   4.698  16.525  0.00  0.00    +0.000 C 
ATOM     19  O   UNL     1       8.184   4.251  17.080  0.00  0.00    +0.000 OA
BRANCH  18  20
ATOM     20  C   UNL     1       6.466   3.847  15.515  0.00  0.00    +0.000 C 
ATOM     21  C   UNL     1       6.028   4.690  14.316  0.00  0.00    +0.000 C 
BRANCH  20  22
ATOM     22  N   UNL     1       5.310   3.192  16.125  0.00  0.00    +0.000 NA
ATOM     23  H   UNL     1       4.742   3.887  16.663  0.00  0.00    +0.000 HD
ATOM     24  H   UNL     1       5.641   2.453  16.790  0.00  0.00    +0.000 HD
ENDBRANCH  20  22
ENDBRANCH  18  20
ENDBRANCH  17  18
ENDBRANCH  16  17
ENDBRANCH  14  16
ENDBRANCH  13  14
ENDBRANCH   6  13
TORSDOF 9
ENDMDL
MODEL 2
REMARK VINA RESULT:      -6.5      2.080      3.054
REMARK  Name = 
REMARK  14 active torsions:
REMARK  status: ('A' for Active; 'I' for Inactive)
REMARK    1  A    between atoms: C_1  and  C_2
REMARK    2  A    between atoms: C_2  and  C_3
REMARK    3  A    between atoms: C_2  and  C_4
REMARK    4  A    between atoms: C_8  and  C_9
REMARK    5  A    between atoms: C_9  and  C_10
REMARK    6  A    between atoms: C_9  and  C_11
REMARK    7  A    between atoms: C_12  and  O_13
REMARK    8  A    between atoms: O_13  and  C_14
REMARK    9  A    between atoms: C_14  and  C_16
REMARK   10  A    between atoms: C_16  and  O_17
REMARK   11  A    between atoms: O_17  and  C_18
REMARK   12  A    between atoms: C_18  and  C_20
REMARK   13  A    between atoms: C_20  and  C_21
REMARK   14  A    between atoms: C_20  and  N_22
REMARK                            x       y       z     vdW  Elec       q    Type
REMARK                         _______ _______ _______ _____ _____    ______ ____
ROOT
ATOM      1  C   UNL     1       1.931   4.420  19.800  0.00  0.00    +0.000 A 
ATOM      2  C   UNL     1       1.616   5.173  20.945  0.00  0.00    +0.000 A 
ATOM      3  C   UNL     1       1.746   6.551  20.949  0.00  0.00    +0.000 A 
ATOM      4  C   UNL     1       2.181   7.216  19.813  0.00  0.00    +0.000 A 
ATOM      5  C   UNL     1       2.504   6.521  18.629  0.00  0.00    +0.000 A 
ATOM      6  C   UNL     1       2.383   5.089  18.625  0.00  0.00    +0.000 A 
ENDROOT
BRANCH   1   8
ATOM      7  C   UNL     1       1.653   2.395  21.298  0.00  0.00    +0.000 C 
ATOM      8  C   UNL     1       1.754   2.904  19.852  0.00  0.00    +0.000 C 
ATOM      9  C   UNL     1       0.508   2.486  19.059  0.00  0.00    +0.000 C 
ENDBRANCH   1   8
BRANCH   5  10
ATOM     10  C   UNL     1       2.986   7.362  17.440  0.00  0.00    +0.000 C 
ATOM     11  C   UNL     1       2.475   8.806  17.565  0.00  0.00    +0.000 C 
ATOM     12  C   UNL     1       4.511   7.325  17.294  0.00  0.00    +0.000 C 
ENDBRANCH   5  10
BRANCH   6  13
ATOM     13  O   UNL     1       2.737   4.322  17.557  0.00  0.00    +0.000 OA
BRANCH  13  14
ATOM     14  C   UNL     1       3.763   3.444  17.442  0.00  0.00    +0.000 C 
ATOM     15  O   UNL     1       3.553   2.239  17.424  0.00  0.00    +0.000 OA
BRANCH  14  16
ATOM     16  C   UNL     1       5.123   3.981  17.081  0.00  0.00    +0.000 C 
BRANCH  16  17
ATOM     17  O   UNL     1       5.863   4.311  18.201  0.00  0.00    +0.000 OA
BRANCH  17  18
ATOM     18  C   UNL     1       7.120   4.824  18.162  0.00  0.00    +0.000 C 
ATOM     19  O   UNL     1       7.928   4.454  17.319  0.00  0.00    +0.000 OA
BRANCH  18  20
ATOM     20  C   UNL     1       7.533   5.866  19.166  0.00  0.00    +0.000 C 
ATOM     21  C   UNL     1       8.093   7.102  18.459  0.00  0.00    +0.000 C 
BRANCH  20  22
ATOM     22  N   UNL     1       8.522   5.322  20.096  0.00  0.00    +0.000 NA
ATOM     23  H   UNL     1       8.394   4.288  20.196  0.00  0.00    +0.000 HD
ATOM     24  H   UNL     1       8.390   5.762  21.037  0.00  0.00    +0.000 HD
ENDBRANCH  20  22
ENDBRANCH  18  20
ENDBRANCH  17  18
ENDBRANCH  16  17
ENDBRANCH  14  16
ENDBRANCH  13  14
ENDBRANCH   6  13
TORSDOF 9
ENDMDL
MODEL 3
REMARK VINA RESULT:      -6.5      0.224      3.582
REMARK  Name = 
REMARK  14 active torsions:
REMARK  status: ('A' for Active; 'I' for Inactive)
REMARK    1  A    between atoms: C_1  and  C_2
REMARK    2  A    between atoms: C_2  and  C_3
REMARK    3  A    between atoms: C_2  and  C_4
REMARK    4  A    between atoms: C_8  and  C_9
REMARK    5  A    between atoms: C_9  and  C_10
REMARK    6  A    between atoms: C_9  and  C_11
REMARK    7  A    between atoms: C_12  and  O_13
REMARK    8  A    between atoms: O_13  and  C_14
REMARK    9  A    between atoms: C_14  and  C_16
REMARK   10  A    between atoms: C_16  and  O_17
REMARK   11  A    between atoms: O_17  and  C_18
REMARK   12  A    between atoms: C_18  and  C_20
REMARK   13  A    between atoms: C_20  and  C_21
REMARK   14  A    between atoms: C_20  and  N_22
REMARK                            x       y       z     vdW  Elec       q    Type
REMARK                         _______ _______ _______ _____ _____    ______ ____
ROOT
ATOM      1  C   UNL     1       2.439   5.778  19.712  0.00  0.00    +0.000 A 
ATOM      2  C   UNL     1       1.315   5.337  20.433  0.00  0.00    +0.000 A 
ATOM      3  C   UNL     1       1.144   3.996  20.734  0.00  0.00    +0.000 A 
ATOM      4  C   UNL     1       2.089   3.064  20.336  0.00  0.00    +0.000 A 
ATOM      5  C   UNL     1       3.242   3.442  19.618  0.00  0.00    +0.000 A 
ATOM      6  C   UNL     1       3.418   4.831  19.292  0.00  0.00    +0.000 A 
ENDROOT
BRANCH   1   8
ATOM      7  C   UNL     1       2.228   7.601  17.965  0.00  0.00    +0.000 C 
ATOM      8  C   UNL     1       2.579   7.271  19.423  0.00  0.00    +0.000 C 
ATOM      9  C   UNL     1       1.689   8.083  20.375  0.00  0.00    +0.000 C 
ENDBRANCH   1   8
BRANCH   5  10
ATOM     10  C   UNL     1       4.211   2.321  19.220  0.00  0.00    +0.000 C 
ATOM     11  C   UNL     1       4.818   1.669  20.473  0.00  0.00    +0.000 C 
ATOM     12  C   UNL     1       3.539   1.275  18.324  0.00  0.00    +0.000 C 
ENDBRANCH   5  10
BRANCH   6  13
ATOM     13  O   UNL     1       4.459   5.287  18.543  0.00  0.00    +0.000 OA
BRANCH  13  14
ATOM     14  C   UNL     1       5.724   5.580  18.933  0.00  0.00    +0.000 C 
ATOM     15  O   UNL     1       6.225   5.017  19.896  0.00  0.00    +0.000 OA
BRANCH  14  16
ATOM     16  C   UNL     1       6.579   6.411  18.012  0.00  0.00    +0.000 C 
BRANCH  16  17
ATOM     17  O   UNL     1       6.607   5.897  16.729  0.00  0.00    +0.000 OA
BRANCH  17  18
ATOM     18  C   UNL     1       7.149   4.695  16.399  0.00  0.00    +0.000 C 
ATOM     19  O   UNL     1       8.136   4.265  16.984  0.00  0.00    +0.000 OA
BRANCH  18  20
ATOM     20  C   UNL     1       6.531   3.873  15.301  0.00  0.00    +0.000 C 
ATOM     21  C   UNL     1       5.704   4.759  14.367  0.00  0.00    +0.000 C 
BRANCH  20  22
ATOM     22  N   UNL     1       5.699   2.808  15.860  0.00  0.00    +0.000 NA
ATOM     23  H   UNL     1       6.244   1.917  15.922  0.00  0.00    +0.000 HD
ATOM     24  H   UNL     1       4.876   2.647  15.233  0.00  0.00    +0.000 HD
ENDBRANCH  20  22
ENDBRANCH  18  20
ENDBRANCH  17  18
ENDBRANCH  16  17
ENDBRANCH  14  16
ENDBRANCH  13  14
ENDBRANCH   6  13
TORSDOF 9
ENDMDL
MODEL 4
REMARK VINA RESULT:      -6.3      1.998      4.311
REMARK  Name = 
REMARK  14 active torsions:
REMARK  status: ('A' for Active; 'I' for Inactive)
REMARK    1  A    between atoms: C_1  and  C_2
REMARK    2  A    between atoms: C_2  and  C_3
REMARK    3  A    between atoms: C_2  and  C_4
REMARK    4  A    between atoms: C_8  and  C_9
REMARK    5  A    between atoms: C_9  and  C_10
REMARK    6  A    between atoms: C_9  and  C_11
REMARK    7  A    between atoms: C_12  and  O_13
REMARK    8  A    between atoms: O_13  and  C_14
REMARK    9  A    between atoms: C_14  and  C_16
REMARK   10  A    between atoms: C_16  and  O_17
REMARK   11  A    between atoms: O_17  and  C_18
REMARK   12  A    between atoms: C_18  and  C_20
REMARK   13  A    between atoms: C_20  and  C_21
REMARK   14  A    between atoms: C_20  and  N_22
REMARK                            x       y       z     vdW  Elec       q    Type
REMARK                         _______ _______ _______ _____ _____    ______ ____
ROOT
ATOM      1  C   UNL     1       2.231   6.732  18.755  0.00  0.00    +0.000 A 
ATOM      2  C   UNL     1       2.070   7.390  19.987  0.00  0.00    +0.000 A 
ATOM      3  C   UNL     1       1.818   6.679  21.147  0.00  0.00    +0.000 A 
ATOM      4  C   UNL     1       1.732   5.296  21.114  0.00  0.00    +0.000 A 
ATOM      5  C   UNL     1       1.893   4.574  19.913  0.00  0.00    +0.000 A 
ATOM      6  C   UNL     1       2.141   5.310  18.704  0.00  0.00    +0.000 A 
ENDROOT
BRANCH   1   8
ATOM      7  C   UNL     1       1.944   8.989  17.639  0.00  0.00    +0.000 C 
ATOM      8  C   UNL     1       2.520   7.571  17.512  0.00  0.00    +0.000 C 
ATOM      9  C   UNL     1       4.033   7.638  17.256  0.00  0.00    +0.000 C 
ENDBRANCH   1   8
BRANCH   5  10
ATOM     10  C   UNL     1       1.763   3.048  19.998  0.00  0.00    +0.000 C 
ATOM     11  C   UNL     1       1.771   2.591  21.465  0.00  0.00    +0.000 C 
ATOM     12  C   UNL     1       0.516   2.538  19.267  0.00  0.00    +0.000 C 
ENDBRANCH   5  10
BRANCH   6  13
ATOM     13  O   UNL     1       2.241   4.713  17.484  0.00  0.00    +0.000 OA
BRANCH  13  14
ATOM     14  C   UNL     1       3.135   3.787  17.060  0.00  0.00    +0.000 C 
ATOM     15  O   UNL     1       2.757   2.704  16.638  0.00  0.00    +0.000 OA
BRANCH  14  16
ATOM     16  C   UNL     1       4.569   4.213  16.875  0.00  0.00    +0.000 C 
BRANCH  16  17
ATOM     17  O   UNL     1       5.341   3.918  17.983  0.00  0.00    +0.000 OA
BRANCH  17  18
ATOM     18  C   UNL     1       5.988   4.848  18.732  0.00  0.00    +0.000 C 
ATOM     19  O   UNL     1       5.435   5.392  19.681  0.00  0.00    +0.000 OA
BRANCH  18  20
ATOM     20  C   UNL     1       7.408   5.219  18.400  0.00  0.00    +0.000 C 
ATOM     21  C   UNL     1       7.453   6.546  17.641  0.00  0.00    +0.000 C 
BRANCH  20  22
ATOM     22  N   UNL     1       8.047   4.163  17.616  0.00  0.00    +0.000 NA
ATOM     23  H   UNL     1       9.088   4.267  17.648  0.00  0.00    +0.000 HD
ATOM     24  H   UNL     1       7.740   4.240  16.618  0.00  0.00    +0.000 HD
ENDBRANCH  20  22
ENDBRANCH  18  20
ENDBRANCH  17  18
ENDBRANCH  16  17
ENDBRANCH  14  16
ENDBRANCH  13  14
ENDBRANCH   6  13
TORSDOF 9
ENDMDL
MODEL 5
REMARK VINA RESULT:      -6.3      1.227      3.838
REMARK  Name = 
REMARK  14 active torsions:
REMARK  status: ('A' for Active; 'I' for Inactive)
REMARK    1  A    between atoms: C_1  and  C_2
REMARK    2  A    between atoms: C_2  and  C_3
REMARK    3  A    between atoms: C_2  and  C_4
REMARK    4  A    between atoms: C_8  and  C_9
REMARK    5  A    between atoms: C_9  and  C_10
REMARK    6  A    between atoms: C_9  and  C_11
REMARK    7  A    between atoms: C_12  and  O_13
REMARK    8  A    between atoms: O_13  and  C_14
REMARK    9  A    between atoms: C_14  and  C_16
REMARK   10  A    between atoms: C_16  and  O_17
REMARK   11  A    between atoms: O_17  and  C_18
REMARK   12  A    between atoms: C_18  and  C_20
REMARK   13  A    between atoms: C_20  and  C_21
REMARK   14  A    between atoms: C_20  and  N_22
REMARK                            x       y       z     vdW  Elec       q    Type
REMARK                         _______ _______ _______ _____ _____    ______ ____
ROOT
ATOM      1  C   UNL     1       2.211   5.769  19.942  0.00  0.00    +0.000 A 
ATOM      2  C   UNL     1       0.973   5.211  20.305  0.00  0.00    +0.000 A 
ATOM      3  C   UNL     1       0.789   3.839  20.325  0.00  0.00    +0.000 A 
ATOM      4  C   UNL     1       1.832   2.988  19.994  0.00  0.00    +0.000 A 
ATOM      5  C   UNL     1       3.101   3.484  19.629  0.00  0.00    +0.000 A 
ATOM      6  C   UNL     1       3.293   4.908  19.595  0.00  0.00    +0.000 A 
ENDROOT
BRANCH   1   8
ATOM      7  C   UNL     1       2.091   7.894  18.565  0.00  0.00    +0.000 C 
ATOM      8  C   UNL     1       2.357   7.289  19.952  0.00  0.00    +0.000 C 
ATOM      9  C   UNL     1       1.405   7.907  20.987  0.00  0.00    +0.000 C 
ENDBRANCH   1   8
BRANCH   5  10
ATOM     10  C   UNL     1       4.174   2.447  19.272  0.00  0.00    +0.000 C 
ATOM     11  C   UNL     1       4.715   1.777  20.544  0.00  0.00    +0.000 C 
ATOM     12  C   UNL     1       3.654   1.405  18.276  0.00  0.00    +0.000 C 
ENDBRANCH   5  10
BRANCH   6  13
ATOM     13  O   UNL     1       4.456   5.486  19.188  0.00  0.00    +0.000 OA
BRANCH  13  14
ATOM     14  C   UNL     1       4.852   5.811  17.933  0.00  0.00    +0.000 C 
ATOM     15  O   UNL     1       4.153   5.535  16.968  0.00  0.00    +0.000 OA
BRANCH  14  16
ATOM     16  C   UNL     1       6.028   6.739  17.774  0.00  0.00    +0.000 C 
BRANCH  16  17
ATOM     17  O   UNL     1       6.602   6.635  16.521  0.00  0.00    +0.000 OA
BRANCH  17  18
ATOM     18  C   UNL     1       7.031   5.469  15.972  0.00  0.00    +0.000 C 
ATOM     19  O   UNL     1       7.693   4.669  16.623  0.00  0.00    +0.000 OA
BRANCH  18  20
ATOM     20  C   UNL     1       6.690   5.146  14.543  0.00  0.00    +0.000 C 
ATOM     21  C   UNL     1       6.208   3.699  14.418  0.00  0.00    +0.000 C 
BRANCH  20  22
ATOM     22  N   UNL     1       7.844   5.373  13.673  0.00  0.00    +0.000 NA
ATOM     23  H   UNL     1       7.690   6.223  13.082  0.00  0.00    +0.000 HD
ATOM     24  H   UNL     1       7.967   4.549  13.039  0.00  0.00    +0.000 HD
ENDBRANCH  20  22
ENDBRANCH  18  20
ENDBRANCH  17  18
ENDBRANCH  16  17
ENDBRANCH  14  16
ENDBRANCH  13  14
ENDBRANCH   6  13
TORSDOF 9
ENDMDL
MODEL 6
REMARK VINA RESULT:      -6.3      1.026      1.064
REMARK  Name = 
REMARK  14 active torsions:
REMARK  status: ('A' for Active; 'I' for Inactive)
REMARK    1  A    between atoms: C_1  and  C_2
REMARK    2  A    between atoms: C_2  and  C_3
REMARK    3  A    between atoms: C_2  and  C_4
REMARK    4  A    between atoms: C_8  and  C_9
REMARK    5  A    between atoms: C_9  and  C_10
REMARK    6  A    between atoms: C_9  and  C_11
REMARK    7  A    between atoms: C_12  and  O_13
REMARK    8  A    between atoms: O_13  and  C_14
REMARK    9  A    between atoms: C_14  and  C_16
REMARK   10  A    between atoms: C_16  and  O_17
REMARK   11  A    between atoms: O_17  and  C_18
REMARK   12  A    between atoms: C_18  and  C_20
REMARK   13  A    between atoms: C_20  and  C_21
REMARK   14  A    between atoms: C_20  and  N_22
REMARK                            x       y       z     vdW  Elec       q    Type
REMARK                         _______ _______ _______ _____ _____    ______ ____
ROOT
ATOM      1  C   UNL     1       3.424   3.371  19.764  0.00  0.00    +0.000 A 
ATOM      2  C   UNL     1       2.343   3.049  20.604  0.00  0.00    +0.000 A 
ATOM      3  C   UNL     1       1.450   4.021  21.020  0.00  0.00    +0.000 A 
ATOM      4  C   UNL     1       1.603   5.335  20.605  0.00  0.00    +0.000 A 
ATOM      5  C   UNL     1       2.660   5.722  19.756  0.00  0.00    +0.000 A 
ATOM      6  C   UNL     1       3.597   4.718  19.332  0.00  0.00    +0.000 A 
ENDROOT
BRANCH   1   8
ATOM      7  C   UNL     1       4.949   1.499  20.534  0.00  0.00    +0.000 C 
ATOM      8  C   UNL     1       4.367   2.252  19.328  0.00  0.00    +0.000 C 
ATOM      9  C   UNL     1       3.636   1.272  18.399  0.00  0.00    +0.000 C 
ENDBRANCH   1   8
BRANCH   5  10
ATOM     10  C   UNL     1       2.735   7.206  19.373  0.00  0.00    +0.000 C 
ATOM     11  C   UNL     1       2.454   7.386  17.873  0.00  0.00    +0.000 C 
ATOM     12  C   UNL     1       1.788   8.064  20.219  0.00  0.00    +0.000 C 
ENDBRANCH   5  10
BRANCH   6  13
ATOM     13  O   UNL     1       4.690   5.003  18.572  0.00  0.00    +0.000 OA
BRANCH  13  14
ATOM     14  C   UNL     1       5.914   5.431  18.967  0.00  0.00    +0.000 C 
ATOM     15  O   UNL     1       6.433   4.983  19.979  0.00  0.00    +0.000 OA
BRANCH  14  16
ATOM     16  C   UNL     1       6.722   6.264  18.007  0.00  0.00    +0.000 C 
BRANCH  16  17
ATOM     17  O   UNL     1       7.392   5.484  17.083  0.00  0.00    +0.000 OA
BRANCH  17  18
ATOM     18  C   UNL     1       7.036   5.371  15.777  0.00  0.00    +0.000 C 
ATOM     19  O   UNL     1       7.883   5.294  14.895  0.00  0.00    +0.000 OA
BRANCH  18  20
ATOM     20  C   UNL     1       5.580   5.338  15.400  0.00  0.00    +0.000 C 
ATOM     21  C   UNL     1       5.355   4.415  14.201  0.00  0.00    +0.000 C 
BRANCH  20  22
ATOM     22  N   UNL     1       5.093   6.685  15.103  0.00  0.00    +0.000 NA
ATOM     23  H   UNL     1       4.050   6.684  15.022  0.00  0.00    +0.000 HD
ATOM     24  H   UNL     1       5.493   7.003  14.188  0.00  0.00    +0.000 HD
ENDBRANCH  20  22
ENDBRANCH  18  20
ENDBRANCH  17  18
ENDBRANCH  16  17
ENDBRANCH  14  16
ENDBRANCH  13  14
ENDBRANCH   6  13
TORSDOF 9
ENDMDL
MODEL 7
REMARK VINA RESULT:      -6.3      0.951      1.166
REMARK  Name = 
REMARK  14 active torsions:
REMARK  status: ('A' for Active; 'I' for Inactive)
REMARK    1  A    between atoms: C_1  and  C_2
REMARK    2  A    between atoms: C_2  and  C_3
REMARK    3  A    between atoms: C_2  and  C_4
REMARK    4  A    between atoms: C_8  and  C_9
REMARK    5  A    between atoms: C_9  and  C_10
REMARK    6  A    between atoms: C_9  and  C_11
REMARK    7  A    between atoms: C_12  and  O_13
REMARK    8  A    between atoms: O_13  and  C_14
REMARK    9  A    between atoms: C_14  and  C_16
REMARK   10  A    between atoms: C_16  and  O_17
REMARK   11  A    between atoms: O_17  and  C_18
REMARK   12  A    between atoms: C_18  and  C_20
REMARK   13  A    between atoms: C_20  and  C_21
REMARK   14  A    between atoms: C_20  and  N_22
REMARK                            x       y       z     vdW  Elec       q    Type
REMARK                         _______ _______ _______ _____ _____    ______ ____
ROOT
ATOM      1  C   UNL     1       3.430   3.418  19.801  0.00  0.00    +0.000 A 
ATOM      2  C   UNL     1       2.439   3.068  20.735  0.00  0.00    +0.000 A 
ATOM      3  C   UNL     1       1.553   4.014  21.221  0.00  0.00    +0.000 A 
ATOM      4  C   UNL     1       1.622   5.327  20.783  0.00  0.00    +0.000 A 
ATOM      5  C   UNL     1       2.587   5.741  19.842  0.00  0.00    +0.000 A 
ATOM      6  C   UNL     1       3.517   4.766  19.344  0.00  0.00    +0.000 A 
ENDROOT
BRANCH   1   8
ATOM      7  C   UNL     1       4.929   1.478  20.442  0.00  0.00    +0.000 C 
ATOM      8  C   UNL     1       4.370   2.327  19.291  0.00  0.00    +0.000 C 
ATOM      9  C   UNL     1       3.643   1.429  18.279  0.00  0.00    +0.000 C 
ENDBRANCH   1   8
BRANCH   5  10
ATOM     10  C   UNL     1       2.575   7.223  19.442  0.00  0.00    +0.000 C 
ATOM     11  C   UNL     1       2.231   7.372  17.952  0.00  0.00    +0.000 C 
ATOM     12  C   UNL     1       1.620   8.044  20.315  0.00  0.00    +0.000 C 
ENDBRANCH   5  10
BRANCH   6  13
ATOM     13  O   UNL     1       4.528   5.079  18.488  0.00  0.00    +0.000 OA
BRANCH  13  14
ATOM     14  C   UNL     1       5.719   5.668  18.756  0.00  0.00    +0.000 C 
ATOM     15  O   UNL     1       6.571   5.082  19.409  0.00  0.00    +0.000 OA
BRANCH  14  16
ATOM     16  C   UNL     1       6.068   6.938  18.024  0.00  0.00    +0.000 C 
BRANCH  16  17
ATOM     17  O   UNL     1       6.808   6.689  16.883  0.00  0.00    +0.000 OA
BRANCH  17  18
ATOM     18  C   UNL     1       6.349   5.989  15.813  0.00  0.00    +0.000 C 
ATOM     19  O   UNL     1       5.359   6.358  15.193  0.00  0.00    +0.000 OA
BRANCH  18  20
ATOM     20  C   UNL     1       7.065   4.740  15.375  0.00  0.00    +0.000 C 
ATOM     21  C   UNL     1       6.092   3.771  14.701  0.00  0.00    +0.000 C 
BRANCH  20  22
ATOM     22  N   UNL     1       7.720   4.095  16.513  0.00  0.00    +0.000 NA
ATOM     23  H   UNL     1       8.671   4.504  16.663  0.00  0.00    +0.000 HD
ATOM     24  H   UNL     1       7.829   3.072  16.314  0.00  0.00    +0.000 HD
ENDBRANCH  20  22
ENDBRANCH  18  20
ENDBRANCH  17  18
ENDBRANCH  16  17
ENDBRANCH  14  16
ENDBRANCH  13  14
ENDBRANCH   6  13
TORSDOF 9
ENDMDL
MODEL 8
REMARK VINA RESULT:      -6.2      1.509      2.289
REMARK  Name = 
REMARK  14 active torsions:
REMARK  status: ('A' for Active; 'I' for Inactive)
REMARK    1  A    between atoms: C_1  and  C_2
REMARK    2  A    between atoms: C_2  and  C_3
REMARK    3  A    between atoms: C_2  and  C_4
REMARK    4  A    between atoms: C_8  and  C_9
REMARK    5  A    between atoms: C_9  and  C_10
REMARK    6  A    between atoms: C_9  and  C_11
REMARK    7  A    between atoms: C_12  and  O_13
REMARK    8  A    between atoms: O_13  and  C_14
REMARK    9  A    between atoms: C_14  and  C_16
REMARK   10  A    between atoms: C_16  and  O_17
REMARK   11  A    between atoms: O_17  and  C_18
REMARK   12  A    between atoms: C_18  and  C_20
REMARK   13  A    between atoms: C_20  and  C_21
REMARK   14  A    between atoms: C_20  and  N_22
REMARK                            x       y       z     vdW  Elec       q    Type
REMARK                         _______ _______ _______ _____ _____    ______ ____
ROOT
ATOM      1  C   UNL     1       2.018   4.898  20.040  0.00  0.00    +0.000 A 
ATOM      2  C   UNL     1       1.482   5.652  21.099  0.00  0.00    +0.000 A 
ATOM      3  C   UNL     1       1.395   7.031  21.019  0.00  0.00    +0.000 A 
ATOM      4  C   UNL     1       1.829   7.694  19.882  0.00  0.00    +0.000 A 
ATOM      5  C   UNL     1       2.370   6.997  18.782  0.00  0.00    +0.000 A 
ATOM      6  C   UNL     1       2.473   5.566  18.865  0.00  0.00    +0.000 A 
ENDROOT
BRANCH   1   8
ATOM      7  C   UNL     1       2.188   2.951  21.653  0.00  0.00    +0.000 C 
ATOM      8  C   UNL     1       2.075   3.379  20.182  0.00  0.00    +0.000 C 
ATOM      9  C   UNL     1       0.835   2.738  19.541  0.00  0.00    +0.000 C 
ENDBRANCH   1   8
BRANCH   5  10
ATOM     10  C   UNL     1       2.828   7.838  17.583  0.00  0.00    +0.000 C 
ATOM     11  C   UNL     1       2.248   9.259  17.674  0.00  0.00    +0.000 C 
ATOM     12  C   UNL     1       4.356   7.872  17.459  0.00  0.00    +0.000 C 
ENDBRANCH   5  10
BRANCH   6  13
ATOM     13  O   UNL     1       3.044   4.808  17.889  0.00  0.00    +0.000 OA
BRANCH  13  14
ATOM     14  C   UNL     1       4.091   3.952  17.977  0.00  0.00    +0.000 C 
ATOM     15  O   UNL     1       4.092   2.904  17.347  0.00  0.00    +0.000 OA
BRANCH  14  16
ATOM     16  C   UNL     1       5.349   4.431  18.654  0.00  0.00    +0.000 C 
BRANCH  16  17
ATOM     17  O   UNL     1       6.152   5.156  17.795  0.00  0.00    +0.000 OA
BRANCH  17  18
ATOM     18  C   UNL     1       7.049   4.602  16.938  0.00  0.00    +0.000 C 
ATOM     19  O   UNL     1       8.140   4.207  17.332  0.00  0.00    +0.000 OA
BRANCH  18  20
ATOM     20  C   UNL     1       6.703   4.467  15.480  0.00  0.00    +0.000 C 
ATOM     21  C   UNL     1       5.700   5.543  15.062  0.00  0.00    +0.000 C 
BRANCH  20  22
ATOM     22  N   UNL     1       6.166   3.135  15.199  0.00  0.00    +0.000 NA
ATOM     23  H   UNL     1       6.946   2.450  15.070  0.00  0.00    +0.000 HD
ATOM     24  H   UNL     1       5.606   3.168  14.315  0.00  0.00    +0.000 HD
ENDBRANCH  20  22
ENDBRANCH  18  20
ENDBRANCH  17  18
ENDBRANCH  16  17
ENDBRANCH  14  16
ENDBRANCH  13  14
ENDBRANCH   6  13
TORSDOF 9
ENDMDL
MODEL 9
REMARK VINA RESULT:      -6.2      3.736      6.530
REMARK  Name = 
REMARK  14 active torsions:
REMARK  status: ('A' for Active; 'I' for Inactive)
REMARK    1  A    between atoms: C_1  and  C_2
REMARK    2  A    between atoms: C_2  and  C_3
REMARK    3  A    between atoms: C_2  and  C_4
REMARK    4  A    between atoms: C_8  and  C_9
REMARK    5  A    between atoms: C_9  and  C_10
REMARK    6  A    between atoms: C_9  and  C_11
REMARK    7  A    between atoms: C_12  and  O_13
REMARK    8  A    between atoms: O_13  and  C_14
REMARK    9  A    between atoms: C_14  and  C_16
REMARK   10  A    between atoms: C_16  and  O_17
REMARK   11  A    between atoms: O_17  and  C_18
REMARK   12  A    between atoms: C_18  and  C_20
REMARK   13  A    between atoms: C_20  and  C_21
REMARK   14  A    between atoms: C_20  and  N_22
REMARK                            x       y       z     vdW  Elec       q    Type
REMARK                         _______ _______ _______ _____ _____    ______ ____
ROOT
ATOM      1  C   UNL     1       2.578   4.163  19.181  0.00  0.00    +0.000 A 
ATOM      2  C   UNL     1       2.699   3.039  18.344  0.00  0.00    +0.000 A 
ATOM      3  C   UNL     1       3.550   3.053  17.252  0.00  0.00    +0.000 A 
ATOM      4  C   UNL     1       4.309   4.179  16.971  0.00  0.00    +0.000 A 
ATOM      5  C   UNL     1       4.240   5.335  17.776  0.00  0.00    +0.000 A 
ATOM      6  C   UNL     1       3.348   5.330  18.903  0.00  0.00    +0.000 A 
ENDROOT
BRANCH   1   8
ATOM      7  C   UNL     1       0.392   3.233  20.064  0.00  0.00    +0.000 C 
ATOM      8  C   UNL     1       1.633   4.082  20.378  0.00  0.00    +0.000 C 
ATOM      9  C   UNL     1       2.368   3.508  21.598  0.00  0.00    +0.000 C 
ENDBRANCH   1   8
BRANCH   5  10
ATOM     10  C   UNL     1       5.116   6.524  17.359  0.00  0.00    +0.000 C 
ATOM     11  C   UNL     1       6.557   6.325  17.856  0.00  0.00    +0.000 C 
ATOM     12  C   UNL     1       5.081   6.758  15.845  0.00  0.00    +0.000 C 
ENDBRANCH   5  10
BRANCH   6  13
ATOM     13  O   UNL     1       3.157   6.418  19.698  0.00  0.00    +0.000 OA
BRANCH  13  14
ATOM     14  C   UNL     1       2.300   7.455  19.530  0.00  0.00    +0.000 C 
ATOM     15  O   UNL     1       2.041   7.873  18.411  0.00  0.00    +0.000 OA
BRANCH  14  16
ATOM     16  C   UNL     1       1.485   7.906  20.714  0.00  0.00    +0.000 C 
BRANCH  16  17
ATOM     17  O   UNL     1       0.820   9.091  20.462  0.00  0.00    +0.000 OA
BRANCH  17  18
ATOM     18  C   UNL     1       0.660  10.086  21.373  0.00  0.00    +0.000 C 
ATOM     19  O   UNL     1       1.282  11.138  21.276  0.00  0.00    +0.000 OA
BRANCH  18  20
ATOM     20  C   UNL     1      -0.295   9.902  22.521  0.00  0.00    +0.000 C 
ATOM     21  C   UNL     1      -1.148  11.156  22.718  0.00  0.00    +0.000 C 
BRANCH  20  22
ATOM     22  N   UNL     1       0.431   9.583  23.750  0.00  0.00    +0.000 NA
ATOM     23  H   UNL     1      -0.156   9.810  24.586  0.00  0.00    +0.000 HD
ATOM     24  H   UNL     1       1.304  10.159  23.795  0.00  0.00    +0.000 HD
ENDBRANCH  20  22
ENDBRANCH  18  20
ENDBRANCH  17  18
ENDBRANCH  16  17
ENDBRANCH  14  16
ENDBRANCH  13  14
ENDBRANCH   6  13
TORSDOF 9
ENDMDL
