MODEL 1
REMARK VINA RESULT:      -5.7      0.000      0.000
REMARK  Name = 
REMARK  5 active torsions:
REMARK  status: ('A' for Active; 'I' for Inactive)
REMARK    1  A    between atoms: C_2  and  C_3
REMARK    2  A    between atoms: C_5  and  C_6
REMARK    3  A    between atoms: C_8  and  C_9
REMARK    4  A    between atoms: C_9  and  C_10
REMARK    5  A    between atoms: C_11  and  C_12
REMARK                            x       y       z     vdW  Elec       q    Type
REMARK                         _______ _______ _______ _____ _____    ______ ____
ROOT
ATOM      1  C   UNL     1      11.919  14.407  19.261  0.00  0.00    +0.000 C 
ATOM      2  C   UNL     1      11.490  13.555  18.052  0.00  0.00    +0.000 C 
ATOM      3  O   UNL     1      12.033  12.548  17.624  0.00  0.00    +0.000 OA
ATOM      4  N   UNL     1      10.275  14.128  17.594  0.00  0.00    +0.000 N 
ATOM      5  C   UNL     1       9.158  13.245  17.353  0.00  0.00    +0.000 C 
ATOM      6  C   UNL     1       7.767  13.585  17.873  0.00  0.00    +0.000 C 
ATOM      7  O   UNL     1       7.284  14.856  17.454  0.00  0.00    +0.000 OA
ATOM      8  C   UNL     1       7.753  15.902  18.298  0.00  0.00    +0.000 C 
ATOM      9  C   UNL     1       9.149  16.362  17.906  0.00  0.00    +0.000 C 
ATOM     10  N   UNL     1      10.169  15.392  18.199  0.00  0.00    +0.000 N 
ATOM     11  C   UNL     1      11.451  15.728  18.652  0.00  0.00    +0.000 C 
ATOM     12  O   UNL     1      12.028  16.799  18.611  0.00  0.00    +0.000 OA
ENDROOT
BRANCH   1  19
ATOM     13  C   UNL     1      10.558  15.170  21.352  0.00  0.00    +0.000 A 
ATOM     14  C   UNL     1       9.259  15.132  21.879  0.00  0.00    +0.000 A 
ATOM     15  C   UNL     1       8.441  14.032  21.690  0.00  0.00    +0.000 A 
ATOM     16  C   UNL     1       6.972  14.086  21.987  0.00  0.00    +0.000 C 
ATOM     17  C   UNL     1       9.010  12.870  21.177  0.00  0.00    +0.000 A 
ATOM     18  C   UNL     1      10.309  12.856  20.618  0.00  0.00    +0.000 A 
ATOM     19  C   UNL     1      11.017  14.078  20.530  0.00  0.00    +0.000 A 
BRANCH  13  21
ATOM     20  C   UNL     1      11.774  17.470  21.786  0.00  0.00    +0.000 C 
ATOM     21  C   UNL     1      11.232  16.429  21.513  0.00  0.00    +0.000 C 
ENDBRANCH  13  21
BRANCH  18  22
ATOM     22  C   UNL     1      10.756  11.512  20.078  0.00  0.00    +0.000 C 
ATOM     23  C   UNL     1       9.609  10.580  19.729  0.00  0.00    +0.000 C 
ENDBRANCH  18  22
ENDBRANCH   1  19
TORSDOF 3
ENDMDL
MODEL 2
REMARK VINA RESULT:      -5.3      2.012      4.709
REMARK  Name = 
REMARK  5 active torsions:
REMARK  status: ('A' for Active; 'I' for Inactive)
REMARK    1  A    between atoms: C_2  and  C_3
REMARK    2  A    between atoms: C_5  and  C_6
REMARK    3  A    between atoms: C_8  and  C_9
REMARK    4  A    between atoms: C_9  and  C_10
REMARK    5  A    between atoms: C_11  and  C_12
REMARK                            x       y       z     vdW  Elec       q    Type
REMARK                         _______ _______ _______ _____ _____    ______ ____
ROOT
ATOM      1  C   UNL     1      10.966  13.832  19.522  0.00  0.00    +0.000 C 
ATOM      2  C   UNL     1      11.124  15.061  20.436  0.00  0.00    +0.000 C 
ATOM      3  O   UNL     1      12.008  15.903  20.401  0.00  0.00    +0.000 OA
ATOM      4  N   UNL     1       9.975  15.068  21.268  0.00  0.00    +0.000 N 
ATOM      5  C   UNL     1       9.239  16.303  21.398  0.00  0.00    +0.000 C 
ATOM      6  C   UNL     1       7.721  16.325  21.279  0.00  0.00    +0.000 C 
ATOM      7  O   UNL     1       7.054  15.444  22.175  0.00  0.00    +0.000 OA
ATOM      8  C   UNL     1       6.982  14.120  21.656  0.00  0.00    +0.000 C 
ATOM      9  C   UNL     1       8.260  13.339  21.922  0.00  0.00    +0.000 C 
ATOM     10  N   UNL     1       9.378  13.800  21.145  0.00  0.00    +0.000 N 
ATOM     11  C   UNL     1      10.353  12.950  20.607  0.00  0.00    +0.000 C 
ATOM     12  O   UNL     1      10.616  11.798  20.898  0.00  0.00    +0.000 OA
ENDROOT
BRANCH   1  19
ATOM     13  C   UNL     1       8.946  13.046  18.070  0.00  0.00    +0.000 A 
ATOM     14  C   UNL     1       7.608  13.368  17.802  0.00  0.00    +0.000 A 
ATOM     15  C   UNL     1       7.179  14.683  17.771  0.00  0.00    +0.000 A 
ATOM     16  C   UNL     1       5.721  15.034  17.776  0.00  0.00    +0.000 C 
ATOM     17  C   UNL     1       8.142  15.688  17.770  0.00  0.00    +0.000 A 
ATOM     18  C   UNL     1       9.501  15.422  18.051  0.00  0.00    +0.000 A 
ATOM     19  C   UNL     1       9.871  14.102  18.399  0.00  0.00    +0.000 A 
BRANCH  13  21
ATOM     20  C   UNL     1       9.344  10.443  18.206  0.00  0.00    +0.000 C 
ATOM     21  C   UNL     1       9.208  11.640  18.204  0.00  0.00    +0.000 C 
ENDBRANCH  13  21
BRANCH  18  22
ATOM     22  C   UNL     1      10.405  16.640  18.039  0.00  0.00    +0.000 C 
ATOM     23  C   UNL     1      11.488  16.590  16.976  0.00  0.00    +0.000 C 
ENDBRANCH  18  22
ENDBRANCH   1  19
TORSDOF 3
ENDMDL
MODEL 3
REMARK VINA RESULT:      -5.1      1.516      3.945
REMARK  Name = 
REMARK  5 active torsions:
REMARK  status: ('A' for Active; 'I' for Inactive)
REMARK    1  A    between atoms: C_2  and  C_3
REMARK    2  A    between atoms: C_5  and  C_6
REMARK    3  A    between atoms: C_8  and  C_9
REMARK    4  A    between atoms: C_9  and  C_10
REMARK    5  A    between atoms: C_11  and  C_12
REMARK                            x       y       z     vdW  Elec       q    Type
REMARK                         _______ _______ _______ _____ _____    ______ ____
ROOT
ATOM      1  C   UNL     1       8.426  13.692  18.569  0.00  0.00    +0.000 C 
ATOM      2  C   UNL     1       7.595  14.818  17.926  0.00  0.00    +0.000 C 
ATOM      3  O   UNL     1       6.417  14.780  17.605  0.00  0.00    +0.000 OA
ATOM      4  N   UNL     1       8.457  15.944  17.873  0.00  0.00    +0.000 N 
ATOM      5  C   UNL     1       7.955  17.206  18.364  0.00  0.00    +0.000 C 
ATOM      6  C   UNL     1       8.794  18.070  19.296  0.00  0.00    +0.000 C 
ATOM      7  O   UNL     1      10.079  18.400  18.785  0.00  0.00    +0.000 OA
ATOM      8  C   UNL     1      11.028  17.369  19.040  0.00  0.00    +0.000 C 
ATOM      9  C   UNL     1      10.955  16.263  17.999  0.00  0.00    +0.000 C 
ATOM     10  N   UNL     1       9.761  15.469  18.099  0.00  0.00    +0.000 N 
ATOM     11  C   UNL     1       9.727  14.086  17.872  0.00  0.00    +0.000 C 
ATOM     12  O   UNL     1      10.539  13.378  17.307  0.00  0.00    +0.000 OA
ENDROOT
BRANCH   1  19
ATOM     13  C   UNL     1       9.874  13.694  20.740  0.00  0.00    +0.000 A 
ATOM     14  C   UNL     1      10.329  14.561  21.744  0.00  0.00    +0.000 A 
ATOM     15  C   UNL     1       9.536  15.591  22.215  0.00  0.00    +0.000 A 
ATOM     16  C   UNL     1      10.099  16.691  23.065  0.00  0.00    +0.000 C 
ATOM     17  C   UNL     1       8.192  15.605  21.852  0.00  0.00    +0.000 A 
ATOM     18  C   UNL     1       7.683  14.765  20.835  0.00  0.00    +0.000 A 
ATOM     19  C   UNL     1       8.587  13.933  20.134  0.00  0.00    +0.000 A 
BRANCH  13  21
ATOM     20  C   UNL     1      11.720  11.966  19.991  0.00  0.00    +0.000 C 
ATOM     21  C   UNL     1      10.858  12.764  20.260  0.00  0.00    +0.000 C 
ENDBRANCH  13  21
BRANCH  18  22
ATOM     22  C   UNL     1       6.204  14.937  20.547  0.00  0.00    +0.000 C 
ATOM     23  C   UNL     1       5.622  16.232  21.084  0.00  0.00    +0.000 C 
ENDBRANCH  18  22
ENDBRANCH   1  19
TORSDOF 3
ENDMDL
MODEL 4
REMARK VINA RESULT:      -5.0      1.452      3.281
REMARK  Name = 
REMARK  5 active torsions:
REMARK  status: ('A' for Active; 'I' for Inactive)
REMARK    1  A    between atoms: C_2  and  C_3
REMARK    2  A    between atoms: C_5  and  C_6
REMARK    3  A    between atoms: C_8  and  C_9
REMARK    4  A    between atoms: C_9  and  C_10
REMARK    5  A    between atoms: C_11  and  C_12
REMARK                            x       y       z     vdW  Elec       q    Type
REMARK                         _______ _______ _______ _____ _____    ______ ____
ROOT
ATOM      1  C   UNL     1      11.066  13.597  20.399  0.00  0.00    +0.000 C 
ATOM      2  C   UNL     1      10.907  12.988  18.993  0.00  0.00    +0.000 C 
ATOM      3  O   UNL     1      11.339  11.917  18.595  0.00  0.00    +0.000 OA
ATOM      4  N   UNL     1      10.071  13.887  18.281  0.00  0.00    +0.000 N 
ATOM      5  C   UNL     1       8.945  13.340  17.562  0.00  0.00    +0.000 C 
ATOM      6  C   UNL     1       7.565  13.976  17.672  0.00  0.00    +0.000 C 
ATOM      7  O   UNL     1       7.533  15.358  17.339  0.00  0.00    +0.000 OA
ATOM      8  C   UNL     1       7.895  16.175  18.448  0.00  0.00    +0.000 C 
ATOM      9  C   UNL     1       9.404  16.298  18.591  0.00  0.00    +0.000 C 
ATOM     10  N   UNL     1      10.033  15.080  19.023  0.00  0.00    +0.000 N 
ATOM     11  C   UNL     1      11.124  15.040  19.902  0.00  0.00    +0.000 C 
ATOM     12  O   UNL     1      11.891  15.929  20.219  0.00  0.00    +0.000 OA
ENDROOT
BRANCH   1  19
ATOM     13  C   UNL     1       9.149  12.085  21.319  0.00  0.00    +0.000 A 
ATOM     14  C   UNL     1       8.597  11.643  22.530  0.00  0.00    +0.000 A 
ATOM     15  C   UNL     1       8.538  12.473  23.636  0.00  0.00    +0.000 A 
ATOM     16  C   UNL     1       8.226  11.939  25.002  0.00  0.00    +0.000 C 
ATOM     17  C   UNL     1       8.812  13.825  23.458  0.00  0.00    +0.000 A 
ATOM     18  C   UNL     1       9.383  14.323  22.264  0.00  0.00    +0.000 A 
ATOM     19  C   UNL     1       9.737  13.400  21.252  0.00  0.00    +0.000 A 
BRANCH  13  21
ATOM     20  C   UNL     1       9.278  10.142  19.541  0.00  0.00    +0.000 C 
ATOM     21  C   UNL     1       9.265  11.070  20.309  0.00  0.00    +0.000 C 
ENDBRANCH  13  21
BRANCH  18  22
ATOM     22  C   UNL     1       9.644  15.817  22.256  0.00  0.00    +0.000 C 
ATOM     23  C   UNL     1       9.844  16.411  23.639  0.00  0.00    +0.000 C 
ENDBRANCH  18  22
ENDBRANCH   1  19
TORSDOF 3
ENDMDL
MODEL 5
REMARK VINA RESULT:      -5.0      8.870     11.680
REMARK  Name = 
REMARK  5 active torsions:
REMARK  status: ('A' for Active; 'I' for Inactive)
REMARK    1  A    between atoms: C_2  and  C_3
REMARK    2  A    between atoms: C_5  and  C_6
REMARK    3  A    between atoms: C_8  and  C_9
REMARK    4  A    between atoms: C_9  and  C_10
REMARK    5  A    between atoms: C_11  and  C_12
REMARK                            x       y       z     vdW  Elec       q    Type
REMARK                         _______ _______ _______ _____ _____    ______ ____
ROOT
ATOM      1  C   UNL     1      -1.152  11.006  19.831  0.00  0.00    +0.000 C 
ATOM      2  C   UNL     1      -1.075  11.957  18.622  0.00  0.00    +0.000 C 
ATOM      3  O   UNL     1      -1.792  11.960  17.634  0.00  0.00    +0.000 OA
ATOM      4  N   UNL     1      -0.058  12.895  18.939  0.00  0.00    +0.000 N 
ATOM      5  C   UNL     1      -0.351  14.298  18.766  0.00  0.00    +0.000 C 
ATOM      6  C   UNL     1      -0.001  15.309  19.851  0.00  0.00    +0.000 C 
ATOM      7  O   UNL     1       1.368  15.300  20.235  0.00  0.00    +0.000 OA
ATOM      8  C   UNL     1       1.633  14.299  21.213  0.00  0.00    +0.000 C 
ATOM      9  C   UNL     1       1.856  12.934  20.580  0.00  0.00    +0.000 C 
ATOM     10  N   UNL     1       0.659  12.364  20.027  0.00  0.00    +0.000 N 
ATOM     11  C   UNL     1       0.355  10.997  20.076  0.00  0.00    +0.000 C 
ATOM     12  O   UNL     1       1.090  10.052  20.297  0.00  0.00    +0.000 OA
ENDROOT
BRANCH   1  19
ATOM     13  C   UNL     1      -1.294  11.564  22.376  0.00  0.00    +0.000 A 
ATOM     14  C   UNL     1      -1.291  12.659  23.252  0.00  0.00    +0.000 A 
ATOM     15  C   UNL     1      -1.896  13.854  22.909  0.00  0.00    +0.000 A 
ATOM     16  C   UNL     1      -1.656  15.110  23.693  0.00  0.00    +0.000 C 
ATOM     17  C   UNL     1      -2.715  13.876  21.784  0.00  0.00    +0.000 A 
ATOM     18  C   UNL     1      -2.745  12.808  20.859  0.00  0.00    +0.000 A 
ATOM     19  C   UNL     1      -1.868  11.716  21.062  0.00  0.00    +0.000 A 
BRANCH  13  21
ATOM     20  C   UNL     1       0.038   9.467  23.262  0.00  0.00    +0.000 C 
ATOM     21  C   UNL     1      -0.510  10.443  22.815  0.00  0.00    +0.000 C 
ENDBRANCH  13  21
BRANCH  18  22
ATOM     22  C   UNL     1      -3.670  13.015  19.675  0.00  0.00    +0.000 C 
ATOM     23  C   UNL     1      -5.047  12.403  19.859  0.00  0.00    +0.000 C 
ENDBRANCH  18  22
ENDBRANCH   1  19
TORSDOF 3
ENDMDL
MODEL 6
REMARK VINA RESULT:      -4.9      1.222      1.365
REMARK  Name = 
REMARK  5 active torsions:
REMARK  status: ('A' for Active; 'I' for Inactive)
REMARK    1  A    between atoms: C_2  and  C_3
REMARK    2  A    between atoms: C_5  and  C_6
REMARK    3  A    between atoms: C_8  and  C_9
REMARK    4  A    between atoms: C_9  and  C_10
REMARK    5  A    between atoms: C_11  and  C_12
REMARK                            x       y       z     vdW  Elec       q    Type
REMARK                         _______ _______ _______ _____ _____    ______ ____
ROOT
ATOM      1  C   UNL     1      11.420  15.271  19.416  0.00  0.00    +0.000 C 
ATOM      2  C   UNL     1      10.768  14.779  18.110  0.00  0.00    +0.000 C 
ATOM      3  O   UNL     1      11.257  14.042  17.268  0.00  0.00    +0.000 OA
ATOM      4  N   UNL     1       9.442  15.283  18.134  0.00  0.00    +0.000 N 
ATOM      5  C   UNL     1       8.362  14.366  17.852  0.00  0.00    +0.000 C 
ATOM      6  C   UNL     1       7.121  14.325  18.734  0.00  0.00    +0.000 C 
ATOM      7  O   UNL     1       6.464  15.579  18.872  0.00  0.00    +0.000 OA
ATOM      8  C   UNL     1       7.053  16.372  19.898  0.00  0.00    +0.000 C 
ATOM      9  C   UNL     1       8.276  17.126  19.399  0.00  0.00    +0.000 C 
ATOM     10  N   UNL     1       9.400  16.271  19.133  0.00  0.00    +0.000 N 
ATOM     11  C   UNL     1      10.729  16.632  19.393  0.00  0.00    +0.000 C 
ATOM     12  O   UNL     1      11.203  17.735  19.591  0.00  0.00    +0.000 OA
ENDROOT
BRANCH   1  19
ATOM     13  C   UNL     1      10.472  15.158  21.844  0.00  0.00    +0.000 A 
ATOM     14  C   UNL     1       9.344  14.724  22.553  0.00  0.00    +0.000 A 
ATOM     15  C   UNL     1       8.662  13.578  22.185  0.00  0.00    +0.000 A 
ATOM     16  C   UNL     1       7.305  13.258  22.736  0.00  0.00    +0.000 C 
ATOM     17  C   UNL     1       9.255  12.733  21.251  0.00  0.00    +0.000 A 
ATOM     18  C   UNL     1      10.385  13.126  20.497  0.00  0.00    +0.000 A 
ATOM     19  C   UNL     1      10.880  14.441  20.662  0.00  0.00    +0.000 A 
BRANCH  13  21
ATOM     20  C   UNL     1      11.439  17.444  22.735  0.00  0.00    +0.000 C 
ATOM     21  C   UNL     1      10.987  16.434  22.261  0.00  0.00    +0.000 C 
ENDBRANCH  13  21
BRANCH  18  22
ATOM     22  C   UNL     1      10.879  12.092  19.503  0.00  0.00    +0.000 C 
ATOM     23  C   UNL     1      12.326  11.684  19.713  0.00  0.00    +0.000 C 
ENDBRANCH  18  22
ENDBRANCH   1  19
TORSDOF 3
ENDMDL
MODEL 7
REMARK VINA RESULT:      -4.9      1.947      4.242
REMARK  Name = 
REMARK  5 active torsions:
REMARK  status: ('A' for Active; 'I' for Inactive)
REMARK    1  A    between atoms: C_2  and  C_3
REMARK    2  A    between atoms: C_5  and  C_6
REMARK    3  A    between atoms: C_8  and  C_9
REMARK    4  A    between atoms: C_9  and  C_10
REMARK    5  A    between atoms: C_11  and  C_12
REMARK                            x       y       z     vdW  Elec       q    Type
REMARK                         _______ _______ _______ _____ _____    ______ ____
ROOT
ATOM      1  C   UNL     1      10.473  13.216  20.170  0.00  0.00    +0.000 C 
ATOM      2  C   UNL     1       9.287  13.255  21.152  0.00  0.00    +0.000 C 
ATOM      3  O   UNL     1       9.307  13.016  22.349  0.00  0.00    +0.000 OA
ATOM      4  N   UNL     1       8.182  13.722  20.394  0.00  0.00    +0.000 N 
ATOM      5  C   UNL     1       7.389  14.797  20.944  0.00  0.00    +0.000 C 
ATOM      6  C   UNL     1       6.991  15.991  20.087  0.00  0.00    +0.000 C 
ATOM      7  O   UNL     1       6.301  15.647  18.892  0.00  0.00    +0.000 OA
ATOM      8  C   UNL     1       7.203  15.312  17.841  0.00  0.00    +0.000 C 
ATOM      9  C   UNL     1       7.664  13.865  17.931  0.00  0.00    +0.000 C 
ATOM     10  N   UNL     1       8.545  13.619  19.040  0.00  0.00    +0.000 N 
ATOM     11  C   UNL     1       9.636  12.742  18.984  0.00  0.00    +0.000 C 
ATOM     12  O   UNL     1       9.876  11.861  18.180  0.00  0.00    +0.000 OA
ENDROOT
BRANCH   1  19
ATOM     13  C   UNL     1      11.360  15.027  18.514  0.00  0.00    +0.000 A 
ATOM     14  C   UNL     1      11.043  16.302  18.024  0.00  0.00    +0.000 A 
ATOM     15  C   UNL     1      10.469  17.261  18.839  0.00  0.00    +0.000 A 
ATOM     16  C   UNL     1       9.863  18.511  18.275  0.00  0.00    +0.000 C 
ATOM     17  C   UNL     1      10.433  17.022  20.210  0.00  0.00    +0.000 A 
ATOM     18  C   UNL     1      10.727  15.752  20.756  0.00  0.00    +0.000 A 
ATOM     19  C   UNL     1      11.005  14.686  19.869  0.00  0.00    +0.000 A 
BRANCH  13  21
ATOM     20  C   UNL     1      12.332  13.386  16.692  0.00  0.00    +0.000 C 
ATOM     21  C   UNL     1      11.821  14.100  17.517  0.00  0.00    +0.000 C 
ENDBRANCH  13  21
BRANCH  18  22
ATOM     22  C   UNL     1      10.606  15.664  22.265  0.00  0.00    +0.000 C 
ATOM     23  C   UNL     1      10.905  16.969  22.981  0.00  0.00    +0.000 C 
ENDBRANCH  18  22
ENDBRANCH   1  19
TORSDOF 3
ENDMDL
MODEL 8
REMARK VINA RESULT:      -4.8     10.470     13.017
REMARK  Name = 
REMARK  5 active torsions:
REMARK  status: ('A' for Active; 'I' for Inactive)
REMARK    1  A    between atoms: C_2  and  C_3
REMARK    2  A    between atoms: C_5  and  C_6
REMARK    3  A    between atoms: C_8  and  C_9
REMARK    4  A    between atoms: C_9  and  C_10
REMARK    5  A    between atoms: C_11  and  C_12
REMARK                            x       y       z     vdW  Elec       q    Type
REMARK                         _______ _______ _______ _____ _____    ______ ____
ROOT
ATOM      1  C   UNL     1      -1.372  13.206  19.599  0.00  0.00    +0.000 C 
ATOM      2  C   UNL     1      -0.996  13.586  21.043  0.00  0.00    +0.000 C 
ATOM      3  O   UNL     1      -1.222  14.642  21.614  0.00  0.00    +0.000 OA
ATOM      4  N   UNL     1      -0.419  12.419  21.606  0.00  0.00    +0.000 N 
ATOM      5  C   UNL     1      -0.894  11.984  22.898  0.00  0.00    +0.000 C 
ATOM      6  C   UNL     1      -1.242  10.522  23.151  0.00  0.00    +0.000 C 
ATOM      7  O   UNL     1      -0.186   9.614  22.861  0.00  0.00    +0.000 OA
ATOM      8  C   UNL     1      -0.152   9.270  21.480  0.00  0.00    +0.000 C 
ATOM      9  C   UNL     1       0.588  10.312  20.655  0.00  0.00    +0.000 C 
ATOM     10  N   UNL     1      -0.127  11.554  20.537  0.00  0.00    +0.000 N 
ATOM     11  C   UNL     1      -0.136  12.337  19.375  0.00  0.00    +0.000 C 
ATOM     12  O   UNL     1       0.617  12.306  18.420  0.00  0.00    +0.000 OA
ENDROOT
BRANCH   1  19
ATOM     13  C   UNL     1      -3.833  12.705  20.304  0.00  0.00    +0.000 A 
ATOM     14  C   UNL     1      -5.102  12.486  19.749  0.00  0.00    +0.000 A 
ATOM     15  C   UNL     1      -5.254  11.800  18.558  0.00  0.00    +0.000 A 
ATOM     16  C   UNL     1      -6.553  11.808  17.807  0.00  0.00    +0.000 C 
ATOM     17  C   UNL     1      -4.153  11.122  18.044  0.00  0.00    +0.000 A 
ATOM     18  C   UNL     1      -2.849  11.317  18.555  0.00  0.00    +0.000 A 
ATOM     19  C   UNL     1      -2.664  12.276  19.579  0.00  0.00    +0.000 A 
BRANCH  13  21
ATOM     20  C   UNL     1      -3.960  14.244  22.442  0.00  0.00    +0.000 C 
ATOM     21  C   UNL     1      -3.826  13.549  21.468  0.00  0.00    +0.000 C 
ENDBRANCH  13  21
BRANCH  18  22
ATOM     22  C   UNL     1      -1.764  10.521  17.856  0.00  0.00    +0.000 C 
ATOM     23  C   UNL     1      -2.211   9.897  16.545  0.00  0.00    +0.000 C 
ENDBRANCH  18  22
ENDBRANCH   1  19
TORSDOF 3
ENDMDL
MODEL 9
REMARK VINA RESULT:      -4.8      9.512     12.233
REMARK  Name = 
REMARK  5 active torsions:
REMARK  status: ('A' for Active; 'I' for Inactive)
REMARK    1  A    between atoms: C_2  and  C_3
REMARK    2  A    between atoms: C_5  and  C_6
REMARK    3  A    between atoms: C_8  and  C_9
REMARK    4  A    between atoms: C_9  and  C_10
REMARK    5  A    between atoms: C_11  and  C_12
REMARK                            x       y       z     vdW  Elec       q    Type
REMARK                         _______ _______ _______ _____ _____    ______ ____
ROOT
ATOM      1  C   UNL     1      -0.630  13.020  19.556  0.00  0.00    +0.000 C 
ATOM      2  C   UNL     1      -1.078  13.438  20.969  0.00  0.00    +0.000 C 
ATOM      3  O   UNL     1      -1.877  14.313  21.265  0.00  0.00    +0.000 OA
ATOM      4  N   UNL     1      -0.443  12.530  21.855  0.00  0.00    +0.000 N 
ATOM      5  C   UNL     1      -1.252  11.890  22.865  0.00  0.00    +0.000 C 
ATOM      6  C   UNL     1      -1.150  10.390  23.113  0.00  0.00    +0.000 C 
ATOM      7  O   UNL     1       0.166   9.936  23.405  0.00  0.00    +0.000 OA
ATOM      8  C   UNL     1       0.915   9.696  22.217  0.00  0.00    +0.000 C 
ATOM      9  C   UNL     1       1.533  10.973  21.670  0.00  0.00    +0.000 C 
ATOM     10  N   UNL     1       0.564  11.880  21.118  0.00  0.00    +0.000 N 
ATOM     11  C   UNL     1       0.794  12.664  19.979  0.00  0.00    +0.000 C 
ATOM     12  O   UNL     1       1.848  12.952  19.443  0.00  0.00    +0.000 OA
ENDROOT
BRANCH   1  19
ATOM     13  C   UNL     1      -2.815  11.705  19.008  0.00  0.00    +0.000 A 
ATOM     14  C   UNL     1      -3.442  11.026  17.954  0.00  0.00    +0.000 A 
ATOM     15  C   UNL     1      -2.711  10.281  17.046  0.00  0.00    +0.000 A 
ATOM     16  C   UNL     1      -3.314   9.794  15.762  0.00  0.00    +0.000 C 
ATOM     17  C   UNL     1      -1.375  10.019  17.336  0.00  0.00    +0.000 A 
ATOM     18  C   UNL     1      -0.690  10.686  18.377  0.00  0.00    +0.000 A 
ATOM     19  C   UNL     1      -1.377  11.691  19.098  0.00  0.00    +0.000 A 
BRANCH  13  21
ATOM     20  C   UNL     1      -4.508  13.137  20.437  0.00  0.00    +0.000 C 
ATOM     21  C   UNL     1      -3.689  12.543  19.782  0.00  0.00    +0.000 C 
ENDBRANCH  13  21
BRANCH  18  22
ATOM     22  C   UNL     1       0.769  10.301  18.530  0.00  0.00    +0.000 C 
ATOM     23  C   UNL     1       1.152   9.041  17.774  0.00  0.00    +0.000 C 
ENDBRANCH  18  22
ENDBRANCH   1  19
TORSDOF 3
ENDMDL
