MODEL 1
REMARK VINA RESULT:      -8.0      0.000      0.000
REMARK  Name = 
REMARK  6 active torsions:
REMARK  status: ('A' for Active; 'I' for Inactive)
REMARK    1  A    between atoms: C_2  and  C_3
REMARK    2  A    between atoms: C_3  and  C_4
REMARK    3  A    between atoms: N_15  and  C_16
REMARK    4  A    between atoms: C_16  and  C_17
REMARK    5  A    between atoms: C_17  and  C_18
REMARK    6  A    between atoms: C_18  and  N_19
REMARK                            x       y       z     vdW  Elec       q    Type
REMARK                         _______ _______ _______ _____ _____    ______ ____
ROOT
ATOM      1  O   UNL     1       2.435   5.536  19.880  0.00  0.00    +0.000 OA
ATOM      2  C   UNL     1       2.396   5.619  18.656  0.00  0.00    +0.000 C 
ATOM      3  N   UNL     1       2.363   6.826  17.991  0.00  0.00    +0.000 N 
ATOM      4  H   UNL     1       2.480   6.842  16.987  0.00  0.00    +0.000 HD
ENDROOT
BRANCH   2   5
ATOM      5  C   UNL     1       2.406   4.399  17.747  0.00  0.00    +0.000 C 
BRANCH   5   6
ATOM      6  C   UNL     1       3.864   3.998  17.506  0.00  0.00    +0.000 C 
ATOM      7  O   UNL     1       4.466   5.138  16.905  0.00  0.00    +0.000 OA
ATOM      8  C   UNL     1       5.591   5.619  17.484  0.00  0.00    +0.000 A 
ATOM      9  C   UNL     1       6.070   6.815  16.950  0.00  0.00    +0.000 A 
ATOM     10  C   UNL     1       7.227   7.389  17.460  0.00  0.00    +0.000 A 
ATOM     11  C   UNL     1       7.916   6.752  18.498  0.00  0.00    +0.000 A 
ATOM     12  C   UNL     1       7.435   5.554  19.030  0.00  0.00    +0.000 A 
ATOM     13  C   UNL     1       6.257   4.996  18.533  0.00  0.00    +0.000 A 
ATOM     14  N   UNL     1       5.725   3.840  19.114  0.00  0.00    +0.000 N 
ATOM     15  C   UNL     1       4.494   3.350  18.756  0.00  0.00    +0.000 C 
ATOM     16  O   UNL     1       3.977   2.430  19.375  0.00  0.00    +0.000 OA
ATOM     17  H   UNL     1       6.193   3.390  19.888  0.00  0.00    +0.000 HD
ENDBRANCH   5   6
ENDBRANCH   2   5
BRANCH   3  18
ATOM     18  C   UNL     1       2.386   8.095  18.705  0.00  0.00    +0.000 C 
BRANCH  18  19
ATOM     19  C   UNL     1       1.221   8.973  18.261  0.00  0.00    +0.000 C 
BRANCH  19  20
ATOM     20  C   UNL     1       1.212  10.368  18.909  0.00  0.00    +0.000 C 
BRANCH  20  21
ATOM     21  N   UNL     1       0.395  10.470  20.134  0.00  0.00    +0.000 NA
ATOM     22  C   UNL     1       0.955   9.701  21.249  0.00  0.00    +0.000 C 
ATOM     23  C   UNL     1      -0.144   9.142  22.154  0.00  0.00    +0.000 C 
ATOM     24  C   UNL     1      -0.734  10.127  23.153  0.00  0.00    +0.000 C 
ATOM     25  C   UNL     1      -1.342  11.373  22.524  0.00  0.00    +0.000 C 
ATOM     26  C   UNL     1      -0.281  12.256  21.879  0.00  0.00    +0.000 C 
ATOM     27  C   UNL     1       0.072  11.874  20.437  0.00  0.00    +0.000 C 
ENDBRANCH  20  21
ENDBRANCH  19  20
ENDBRANCH  18  19
ENDBRANCH   3  18
TORSDOF 6
ENDMDL
MODEL 2
REMARK VINA RESULT:      -7.9      4.299      7.495
REMARK  Name = 
REMARK  6 active torsions:
REMARK  status: ('A' for Active; 'I' for Inactive)
REMARK    1  A    between atoms: C_2  and  C_3
REMARK    2  A    between atoms: C_3  and  C_4
REMARK    3  A    between atoms: N_15  and  C_16
REMARK    4  A    between atoms: C_16  and  C_17
REMARK    5  A    between atoms: C_17  and  C_18
REMARK    6  A    between atoms: C_18  and  N_19
REMARK                            x       y       z     vdW  Elec       q    Type
REMARK                         _______ _______ _______ _____ _____    ______ ____
ROOT
ATOM      1  O   UNL     1       6.373   6.145  15.507  0.00  0.00    +0.000 OA
ATOM      2  C   UNL     1       5.884   6.471  16.585  0.00  0.00    +0.000 C 
ATOM      3  N   UNL     1       6.519   7.321  17.466  0.00  0.00    +0.000 N 
ATOM      4  H   UNL     1       6.013   7.673  18.267  0.00  0.00    +0.000 HD
ENDROOT
BRANCH   2   5
ATOM      5  C   UNL     1       4.516   5.993  17.047  0.00  0.00    +0.000 C 
BRANCH   5   6
ATOM      6  C   UNL     1       4.613   5.643  18.535  0.00  0.00    +0.000 C 
ATOM      7  O   UNL     1       3.274   5.687  19.012  0.00  0.00    +0.000 OA
ATOM      8  C   UNL     1       2.815   4.594  19.665  0.00  0.00    +0.000 A 
ATOM      9  C   UNL     1       1.459   4.622  19.993  0.00  0.00    +0.000 A 
ATOM     10  C   UNL     1       0.889   3.556  20.676  0.00  0.00    +0.000 A 
ATOM     11  C   UNL     1       1.683   2.466  21.047  0.00  0.00    +0.000 A 
ATOM     12  C   UNL     1       3.040   2.441  20.719  0.00  0.00    +0.000 A 
ATOM     13  C   UNL     1       3.603   3.500  20.007  0.00  0.00    +0.000 A 
ATOM     14  N   UNL     1       4.941   3.446  19.603  0.00  0.00    +0.000 N 
ATOM     15  C   UNL     1       5.487   4.395  18.774  0.00  0.00    +0.000 C 
ATOM     16  O   UNL     1       6.610   4.255  18.309  0.00  0.00    +0.000 OA
ATOM     17  H   UNL     1       5.517   2.649  19.833  0.00  0.00    +0.000 HD
ENDBRANCH   5   6
ENDBRANCH   2   5
BRANCH   3  18
ATOM     18  C   UNL     1       7.820   7.903  17.166  0.00  0.00    +0.000 C 
BRANCH  18  19
ATOM     19  C   UNL     1       8.208   8.913  18.240  0.00  0.00    +0.000 C 
BRANCH  19  20
ATOM     20  C   UNL     1       8.396  10.344  17.709  0.00  0.00    +0.000 C 
BRANCH  20  21
ATOM     21  N   UNL     1       9.628  11.013  18.169  0.00  0.00    +0.000 NA
ATOM     22  C   UNL     1       9.670  12.431  17.799  0.00  0.00    +0.000 C 
ATOM     23  C   UNL     1      11.101  12.898  17.525  0.00  0.00    +0.000 C 
ATOM     24  C   UNL     1      11.934  13.213  18.758  0.00  0.00    +0.000 C 
ATOM     25  C   UNL     1      12.082  12.052  19.732  0.00  0.00    +0.000 C 
ATOM     26  C   UNL     1      10.757  11.697  20.394  0.00  0.00    +0.000 C 
ATOM     27  C   UNL     1       9.885  10.725  19.589  0.00  0.00    +0.000 C 
ENDBRANCH  20  21
ENDBRANCH  19  20
ENDBRANCH  18  19
ENDBRANCH   3  18
TORSDOF 6
ENDMDL
MODEL 3
REMARK VINA RESULT:      -7.9      1.150      1.728
REMARK  Name = 
REMARK  6 active torsions:
REMARK  status: ('A' for Active; 'I' for Inactive)
REMARK    1  A    between atoms: C_2  and  C_3
REMARK    2  A    between atoms: C_3  and  C_4
REMARK    3  A    between atoms: N_15  and  C_16
REMARK    4  A    between atoms: C_16  and  C_17
REMARK    5  A    between atoms: C_17  and  C_18
REMARK    6  A    between atoms: C_18  and  N_19
REMARK                            x       y       z     vdW  Elec       q    Type
REMARK                         _______ _______ _______ _____ _____    ______ ____
ROOT
ATOM      1  O   UNL     1       2.648   5.598  20.030  0.00  0.00    +0.000 OA
ATOM      2  C   UNL     1       2.435   5.612  18.821  0.00  0.00    +0.000 C 
ATOM      3  N   UNL     1       2.212   6.775  18.116  0.00  0.00    +0.000 N 
ATOM      4  H   UNL     1       2.189   6.746  17.105  0.00  0.00    +0.000 HD
ENDROOT
BRANCH   2   5
ATOM      5  C   UNL     1       2.421   4.349  17.973  0.00  0.00    +0.000 C 
BRANCH   5   6
ATOM      6  C   UNL     1       3.871   3.978  17.650  0.00  0.00    +0.000 C 
ATOM      7  O   UNL     1       4.414   5.129  17.015  0.00  0.00    +0.000 OA
ATOM      8  C   UNL     1       5.560   5.634  17.529  0.00  0.00    +0.000 A 
ATOM      9  C   UNL     1       5.983   6.839  16.968  0.00  0.00    +0.000 A 
ATOM     10  C   UNL     1       7.155   7.438  17.411  0.00  0.00    +0.000 A 
ATOM     11  C   UNL     1       7.915   6.817  18.409  0.00  0.00    +0.000 A 
ATOM     12  C   UNL     1       7.490   5.610  18.968  0.00  0.00    +0.000 A 
ATOM     13  C   UNL     1       6.297   5.027  18.539  0.00  0.00    +0.000 A 
ATOM     14  N   UNL     1       5.823   3.861  19.150  0.00  0.00    +0.000 N 
ATOM     15  C   UNL     1       4.584   3.344  18.863  0.00  0.00    +0.000 C 
ATOM     16  O   UNL     1       4.122   2.415  19.510  0.00  0.00    +0.000 OA
ATOM     17  H   UNL     1       6.343   3.422  19.896  0.00  0.00    +0.000 HD
ENDBRANCH   5   6
ENDBRANCH   2   5
BRANCH   3  18
ATOM     18  C   UNL     1       2.228   8.079  18.765  0.00  0.00    +0.000 C 
BRANCH  18  19
ATOM     19  C   UNL     1       1.618   9.134  17.847  0.00  0.00    +0.000 C 
BRANCH  19  20
ATOM     20  C   UNL     1       1.753  10.572  18.378  0.00  0.00    +0.000 C 
BRANCH  20  21
ATOM     21  N   UNL     1       0.480  11.198  18.784  0.00  0.00    +0.000 NA
ATOM     22  C   UNL     1      -0.687  10.527  18.204  0.00  0.00    +0.000 C 
ATOM     23  C   UNL     1      -1.822  11.514  17.926  0.00  0.00    +0.000 C 
ATOM     24  C   UNL     1      -2.665  11.900  19.132  0.00  0.00    +0.000 C 
ATOM     25  C   UNL     1      -1.878  12.522  20.276  0.00  0.00    +0.000 C 
ATOM     26  C   UNL     1      -0.934  11.519  20.926  0.00  0.00    +0.000 C 
ATOM     27  C   UNL     1       0.433  11.397  20.241  0.00  0.00    +0.000 C 
ENDBRANCH  20  21
ENDBRANCH  19  20
ENDBRANCH  18  19
ENDBRANCH   3  18
TORSDOF 6
ENDMDL
MODEL 4
REMARK VINA RESULT:      -7.9      4.295      7.562
REMARK  Name = 
REMARK  6 active torsions:
REMARK  status: ('A' for Active; 'I' for Inactive)
REMARK    1  A    between atoms: C_2  and  C_3
REMARK    2  A    between atoms: C_3  and  C_4
REMARK    3  A    between atoms: N_15  and  C_16
REMARK    4  A    between atoms: C_16  and  C_17
REMARK    5  A    between atoms: C_17  and  C_18
REMARK    6  A    between atoms: C_18  and  N_19
REMARK                            x       y       z     vdW  Elec       q    Type
REMARK                         _______ _______ _______ _____ _____    ______ ____
ROOT
ATOM      1  O   UNL     1       7.327   6.311  16.147  0.00  0.00    +0.000 OA
ATOM      2  C   UNL     1       6.552   6.806  16.961  0.00  0.00    +0.000 C 
ATOM      3  N   UNL     1       6.928   7.798  17.841  0.00  0.00    +0.000 N 
ATOM      4  H   UNL     1       6.219   8.271  18.385  0.00  0.00    +0.000 HD
ENDROOT
BRANCH   2   5
ATOM      5  C   UNL     1       5.092   6.392  17.063  0.00  0.00    +0.000 C 
BRANCH   5   6
ATOM      6  C   UNL     1       5.019   5.110  17.896  0.00  0.00    +0.000 C 
ATOM      7  O   UNL     1       4.156   5.424  18.983  0.00  0.00    +0.000 OA
ATOM      8  C   UNL     1       3.103   4.600  19.193  0.00  0.00    +0.000 A 
ATOM      9  C   UNL     1       2.206   5.019  20.176  0.00  0.00    +0.000 A 
ATOM     10  C   UNL     1       1.098   4.240  20.481  0.00  0.00    +0.000 A 
ATOM     11  C   UNL     1       0.896   3.029  19.811  0.00  0.00    +0.000 A 
ATOM     12  C   UNL     1       1.796   2.611  18.828  0.00  0.00    +0.000 A 
ATOM     13  C   UNL     1       2.892   3.411  18.504  0.00  0.00    +0.000 A 
ATOM     14  N   UNL     1       3.752   3.039  17.466  0.00  0.00    +0.000 N 
ATOM     15  C   UNL     1       4.749   3.870  17.017  0.00  0.00    +0.000 C 
ATOM     16  O   UNL     1       5.394   3.599  16.014  0.00  0.00    +0.000 OA
ATOM     17  H   UNL     1       3.598   2.185  16.948  0.00  0.00    +0.000 HD
ENDBRANCH   5   6
ENDBRANCH   2   5
BRANCH   3  18
ATOM     18  C   UNL     1       8.279   8.339  17.853  0.00  0.00    +0.000 C 
BRANCH  18  19
ATOM     19  C   UNL     1       8.248   9.834  18.152  0.00  0.00    +0.000 C 
BRANCH  19  20
ATOM     20  C   UNL     1       9.223  10.268  19.260  0.00  0.00    +0.000 C 
BRANCH  20  21
ATOM     21  N   UNL     1       9.926  11.538  18.997  0.00  0.00    +0.000 NA
ATOM     22  C   UNL     1      10.652  11.526  17.723  0.00  0.00    +0.000 C 
ATOM     23  C   UNL     1      11.925  12.371  17.794  0.00  0.00    +0.000 C 
ATOM     24  C   UNL     1      11.725  13.871  17.645  0.00  0.00    +0.000 C 
ATOM     25  C   UNL     1      10.790  14.486  18.677  0.00  0.00    +0.000 C 
ATOM     26  C   UNL     1       9.355  14.011  18.495  0.00  0.00    +0.000 C 
ATOM     27  C   UNL     1       9.030  12.688  19.200  0.00  0.00    +0.000 C 
ENDBRANCH  20  21
ENDBRANCH  19  20
ENDBRANCH  18  19
ENDBRANCH   3  18
TORSDOF 6
ENDMDL
MODEL 5
REMARK VINA RESULT:      -7.8      5.319      7.849
REMARK  Name = 
REMARK  6 active torsions:
REMARK  status: ('A' for Active; 'I' for Inactive)
REMARK    1  A    between atoms: C_2  and  C_3
REMARK    2  A    between atoms: C_3  and  C_4
REMARK    3  A    between atoms: N_15  and  C_16
REMARK    4  A    between atoms: C_16  and  C_17
REMARK    5  A    between atoms: C_17  and  C_18
REMARK    6  A    between atoms: C_18  and  N_19
REMARK                            x       y       z     vdW  Elec       q    Type
REMARK                         _______ _______ _______ _____ _____    ______ ____
ROOT
ATOM      1  O   UNL     1       8.567   7.244  18.950  0.00  0.00    +0.000 OA
ATOM      2  C   UNL     1       7.906   7.833  18.099  0.00  0.00    +0.000 C 
ATOM      3  N   UNL     1       8.034   9.184  17.859  0.00  0.00    +0.000 N 
ATOM      4  H   UNL     1       7.577   9.589  17.053  0.00  0.00    +0.000 HD
ENDROOT
BRANCH   2   5
ATOM      5  C   UNL     1       6.898   7.127  17.206  0.00  0.00    +0.000 C 
BRANCH   5   6
ATOM      6  C   UNL     1       6.456   5.842  17.912  0.00  0.00    +0.000 C 
ATOM      7  O   UNL     1       5.133   6.104  18.362  0.00  0.00    +0.000 OA
ATOM      8  C   UNL     1       4.172   5.220  18.005  0.00  0.00    +0.000 A 
ATOM      9  C   UNL     1       2.870   5.585  18.347  0.00  0.00    +0.000 A 
ATOM     10  C   UNL     1       1.810   4.743  18.040  0.00  0.00    +0.000 A 
ATOM     11  C   UNL     1       2.057   3.522  17.402  0.00  0.00    +0.000 A 
ATOM     12  C   UNL     1       3.362   3.158  17.062  0.00  0.00    +0.000 A 
ATOM     13  C   UNL     1       4.421   4.020  17.347  0.00  0.00    +0.000 A 
ATOM     14  N   UNL     1       5.719   3.701  16.938  0.00  0.00    +0.000 N 
ATOM     15  C   UNL     1       6.759   4.589  17.063  0.00  0.00    +0.000 C 
ATOM     16  O   UNL     1       7.852   4.356  16.566  0.00  0.00    +0.000 OA
ATOM     17  H   UNL     1       5.907   2.840  16.444  0.00  0.00    +0.000 HD
ENDBRANCH   5   6
ENDBRANCH   2   5
BRANCH   3  18
ATOM     18  C   UNL     1       8.981  10.008  18.597  0.00  0.00    +0.000 C 
BRANCH  18  19
ATOM     19  C   UNL     1       9.044  11.409  17.998  0.00  0.00    +0.000 C 
BRANCH  19  20
ATOM     20  C   UNL     1      10.475  11.939  17.804  0.00  0.00    +0.000 C 
BRANCH  20  21
ATOM     21  N   UNL     1      10.741  13.238  18.450  0.00  0.00    +0.000 NA
ATOM     22  C   UNL     1       9.810  14.283  18.015  0.00  0.00    +0.000 C 
ATOM     23  C   UNL     1      10.480  15.659  17.990  0.00  0.00    +0.000 C 
ATOM     24  C   UNL     1      10.601  16.352  19.339  0.00  0.00    +0.000 C 
ATOM     25  C   UNL     1      11.371  15.561  20.386  0.00  0.00    +0.000 C 
ATOM     26  C   UNL     1      10.625  14.301  20.806  0.00  0.00    +0.000 C 
ATOM     27  C   UNL     1      10.878  13.085  19.907  0.00  0.00    +0.000 C 
ENDBRANCH  20  21
ENDBRANCH  19  20
ENDBRANCH  18  19
ENDBRANCH   3  18
TORSDOF 6
ENDMDL
MODEL 6
REMARK VINA RESULT:      -7.8      4.419      7.712
REMARK  Name = 
REMARK  6 active torsions:
REMARK  status: ('A' for Active; 'I' for Inactive)
REMARK    1  A    between atoms: C_2  and  C_3
REMARK    2  A    between atoms: C_3  and  C_4
REMARK    3  A    between atoms: N_15  and  C_16
REMARK    4  A    between atoms: C_16  and  C_17
REMARK    5  A    between atoms: C_17  and  C_18
REMARK    6  A    between atoms: C_18  and  N_19
REMARK                            x       y       z     vdW  Elec       q    Type
REMARK                         _______ _______ _______ _____ _____    ______ ____
ROOT
ATOM      1  O   UNL     1       7.473   6.093  16.417  0.00  0.00    +0.000 OA
ATOM      2  C   UNL     1       6.606   6.739  17.000  0.00  0.00    +0.000 C 
ATOM      3  N   UNL     1       6.871   7.925  17.651  0.00  0.00    +0.000 N 
ATOM      4  H   UNL     1       6.101   8.489  17.986  0.00  0.00    +0.000 HD
ENDROOT
BRANCH   2   5
ATOM      5  C   UNL     1       5.147   6.309  17.042  0.00  0.00    +0.000 C 
BRANCH   5   6
ATOM      6  C   UNL     1       5.050   5.042  17.896  0.00  0.00    +0.000 C 
ATOM      7  O   UNL     1       4.189   5.389  18.974  0.00  0.00    +0.000 OA
ATOM      8  C   UNL     1       3.122   4.586  19.194  0.00  0.00    +0.000 A 
ATOM      9  C   UNL     1       2.229   5.037  20.167  0.00  0.00    +0.000 A 
ATOM     10  C   UNL     1       1.107   4.282  20.482  0.00  0.00    +0.000 A 
ATOM     11  C   UNL     1       0.886   3.064  19.831  0.00  0.00    +0.000 A 
ATOM     12  C   UNL     1       1.782   2.614  18.858  0.00  0.00    +0.000 A 
ATOM     13  C   UNL     1       2.893   3.389  18.525  0.00  0.00    +0.000 A 
ATOM     14  N   UNL     1       3.750   2.986  17.496  0.00  0.00    +0.000 N 
ATOM     15  C   UNL     1       4.762   3.793  17.037  0.00  0.00    +0.000 C 
ATOM     16  O   UNL     1       5.406   3.494  16.041  0.00  0.00    +0.000 OA
ATOM     17  H   UNL     1       3.583   2.127  16.992  0.00  0.00    +0.000 HD
ENDBRANCH   5   6
ENDBRANCH   2   5
BRANCH   3  18
ATOM     18  C   UNL     1       8.207   8.502  17.677  0.00  0.00    +0.000 C 
BRANCH  18  19
ATOM     19  C   UNL     1       8.168   9.900  18.285  0.00  0.00    +0.000 C 
BRANCH  19  20
ATOM     20  C   UNL     1       9.534  10.399  18.786  0.00  0.00    +0.000 C 
BRANCH  20  21
ATOM     21  N   UNL     1       9.965  11.688  18.211  0.00  0.00    +0.000 NA
ATOM     22  C   UNL     1       9.400  12.838  18.922  0.00  0.00    +0.000 C 
ATOM     23  C   UNL     1       9.146  14.014  17.976  0.00  0.00    +0.000 C 
ATOM     24  C   UNL     1      10.368  14.851  17.630  0.00  0.00    +0.000 C 
ATOM     25  C   UNL     1      11.504  14.070  16.985  0.00  0.00    +0.000 C 
ATOM     26  C   UNL     1      12.132  13.078  17.956  0.00  0.00    +0.000 C 
ATOM     27  C   UNL     1      11.424  11.719  18.022  0.00  0.00    +0.000 C 
ENDBRANCH  20  21
ENDBRANCH  19  20
ENDBRANCH  18  19
ENDBRANCH   3  18
TORSDOF 6
ENDMDL
MODEL 7
REMARK VINA RESULT:      -7.7      1.531      3.451
REMARK  Name = 
REMARK  6 active torsions:
REMARK  status: ('A' for Active; 'I' for Inactive)
REMARK    1  A    between atoms: C_2  and  C_3
REMARK    2  A    between atoms: C_3  and  C_4
REMARK    3  A    between atoms: N_15  and  C_16
REMARK    4  A    between atoms: C_16  and  C_17
REMARK    5  A    between atoms: C_17  and  C_18
REMARK    6  A    between atoms: C_18  and  N_19
REMARK                            x       y       z     vdW  Elec       q    Type
REMARK                         _______ _______ _______ _____ _____    ______ ____
ROOT
ATOM      1  O   UNL     1       5.132   6.865  15.801  0.00  0.00    +0.000 OA
ATOM      2  C   UNL     1       5.219   6.683  17.012  0.00  0.00    +0.000 C 
ATOM      3  N   UNL     1       4.318   7.210  17.912  0.00  0.00    +0.000 N 
ATOM      4  H   UNL     1       4.348   6.911  18.878  0.00  0.00    +0.000 HD
ENDROOT
BRANCH   2   5
ATOM      5  C   UNL     1       6.315   5.836  17.641  0.00  0.00    +0.000 C 
BRANCH   5   6
ATOM      6  C   UNL     1       5.691   4.513  18.096  0.00  0.00    +0.000 C 
ATOM      7  O   UNL     1       4.958   4.835  19.271  0.00  0.00    +0.000 OA
ATOM      8  C   UNL     1       3.655   4.472  19.304  0.00  0.00    +0.000 A 
ATOM      9  C   UNL     1       2.938   4.927  20.411  0.00  0.00    +0.000 A 
ATOM     10  C   UNL     1       1.596   4.600  20.552  0.00  0.00    +0.000 A 
ATOM     11  C   UNL     1       0.974   3.799  19.588  0.00  0.00    +0.000 A 
ATOM     12  C   UNL     1       1.694   3.343  18.482  0.00  0.00    +0.000 A 
ATOM     13  C   UNL     1       3.034   3.698  18.330  0.00  0.00    +0.000 A 
ATOM     14  N   UNL     1       3.740   3.314  17.185  0.00  0.00    +0.000 N 
ATOM     15  C   UNL     1       5.009   3.771  16.928  0.00  0.00    +0.000 C 
ATOM     16  O   UNL     1       5.554   3.549  15.856  0.00  0.00    +0.000 OA
ATOM     17  H   UNL     1       3.293   2.766  16.463  0.00  0.00    +0.000 HD
ENDBRANCH   5   6
ENDBRANCH   2   5
BRANCH   3  18
ATOM     18  C   UNL     1       3.184   8.015  17.479  0.00  0.00    +0.000 C 
BRANCH  18  19
ATOM     19  C   UNL     1       2.148   8.114  18.594  0.00  0.00    +0.000 C 
BRANCH  19  20
ATOM     20  C   UNL     1       1.185   9.305  18.444  0.00  0.00    +0.000 C 
BRANCH  20  21
ATOM     21  N   UNL     1       0.489   9.690  19.686  0.00  0.00    +0.000 NA
ATOM     22  C   UNL     1       0.922   8.901  20.842  0.00  0.00    +0.000 C 
ATOM     23  C   UNL     1      -0.220   8.687  21.838  0.00  0.00    +0.000 C 
ATOM     24  C   UNL     1      -0.507   9.857  22.766  0.00  0.00    +0.000 C 
ATOM     25  C   UNL     1      -0.849  11.158  22.053  0.00  0.00    +0.000 C 
ATOM     26  C   UNL     1       0.346  11.715  21.290  0.00  0.00    +0.000 C 
ATOM     27  C   UNL     1       0.516  11.149  19.875  0.00  0.00    +0.000 C 
ENDBRANCH  20  21
ENDBRANCH  19  20
ENDBRANCH  18  19
ENDBRANCH   3  18
TORSDOF 6
ENDMDL
MODEL 8
REMARK VINA RESULT:      -7.7      1.668      2.346
REMARK  Name = 
REMARK  6 active torsions:
REMARK  status: ('A' for Active; 'I' for Inactive)
REMARK    1  A    between atoms: C_2  and  C_3
REMARK    2  A    between atoms: C_3  and  C_4
REMARK    3  A    between atoms: N_15  and  C_16
REMARK    4  A    between atoms: C_16  and  C_17
REMARK    5  A    between atoms: C_17  and  C_18
REMARK    6  A    between atoms: C_18  and  N_19
REMARK                            x       y       z     vdW  Elec       q    Type
REMARK                         _______ _______ _______ _____ _____    ______ ____
ROOT
ATOM      1  O   UNL     1       2.477   5.319  20.000  0.00  0.00    +0.000 OA
ATOM      2  C   UNL     1       2.474   5.381  18.773  0.00  0.00    +0.000 C 
ATOM      3  N   UNL     1       2.384   6.573  18.087  0.00  0.00    +0.000 N 
ATOM      4  H   UNL     1       2.535   6.581  17.087  0.00  0.00    +0.000 HD
ENDROOT
BRANCH   2   5
ATOM      5  C   UNL     1       2.597   4.151  17.886  0.00  0.00    +0.000 C 
BRANCH   5   6
ATOM      6  C   UNL     1       4.086   3.866  17.671  0.00  0.00    +0.000 C 
ATOM      7  O   UNL     1       4.573   4.984  16.940  0.00  0.00    +0.000 OA
ATOM      8  C   UNL     1       5.649   5.632  17.446  0.00  0.00    +0.000 A 
ATOM      9  C   UNL     1       6.009   6.801  16.776  0.00  0.00    +0.000 A 
ATOM     10  C   UNL     1       7.107   7.536  17.204  0.00  0.00    +0.000 A 
ATOM     11  C   UNL     1       7.857   7.088  18.297  0.00  0.00    +0.000 A 
ATOM     12  C   UNL     1       7.495   5.915  18.965  0.00  0.00    +0.000 A 
ATOM     13  C   UNL     1       6.375   5.196  18.549  0.00  0.00    +0.000 A 
ATOM     14  N   UNL     1       5.958   4.067  19.261  0.00  0.00    +0.000 N 
ATOM     15  C   UNL     1       4.779   3.424  18.977  0.00  0.00    +0.000 C 
ATOM     16  O   UNL     1       4.354   2.534  19.701  0.00  0.00    +0.000 OA
ATOM     17  H   UNL     1       6.469   3.753  20.074  0.00  0.00    +0.000 HD
ENDBRANCH   5   6
ENDBRANCH   2   5
BRANCH   3  18
ATOM     18  C   UNL     1       2.298   7.851  18.779  0.00  0.00    +0.000 C 
BRANCH  18  19
ATOM     19  C   UNL     1       1.410   8.816  18.001  0.00  0.00    +0.000 C 
BRANCH  19  20
ATOM     20  C   UNL     1       0.990  10.059  18.803  0.00  0.00    +0.000 C 
BRANCH  20  21
ATOM     21  N   UNL     1      -0.442  10.400  18.702  0.00  0.00    +0.000 NA
ATOM     22  C   UNL     1      -0.699  11.824  18.935  0.00  0.00    +0.000 C 
ATOM     23  C   UNL     1      -2.054  12.048  19.608  0.00  0.00    +0.000 C 
ATOM     24  C   UNL     1      -3.261  12.000  18.682  0.00  0.00    +0.000 C 
ATOM     25  C   UNL     1      -3.415  10.693  17.918  0.00  0.00    +0.000 C 
ATOM     26  C   UNL     1      -2.297  10.496  16.902  0.00  0.00    +0.000 C 
ATOM     27  C   UNL     1      -1.029   9.848  17.471  0.00  0.00    +0.000 C 
ENDBRANCH  20  21
ENDBRANCH  19  20
ENDBRANCH  18  19
ENDBRANCH   3  18
TORSDOF 6
ENDMDL
MODEL 9
REMARK VINA RESULT:      -7.7      1.544      1.914
REMARK  Name = 
REMARK  6 active torsions:
REMARK  status: ('A' for Active; 'I' for Inactive)
REMARK    1  A    between atoms: C_2  and  C_3
REMARK    2  A    between atoms: C_3  and  C_4
REMARK    3  A    between atoms: N_15  and  C_16
REMARK    4  A    between atoms: C_16  and  C_17
REMARK    5  A    between atoms: C_17  and  C_18
REMARK    6  A    between atoms: C_18  and  N_19
REMARK                            x       y       z     vdW  Elec       q    Type
REMARK                         _______ _______ _______ _____ _____    ______ ____
ROOT
ATOM      1  O   UNL     1       2.491   5.572  19.914  0.00  0.00    +0.000 OA
ATOM      2  C   UNL     1       2.396   5.610  18.690  0.00  0.00    +0.000 C 
ATOM      3  N   UNL     1       2.305   6.791  17.985  0.00  0.00    +0.000 N 
ATOM      4  H   UNL     1       2.377   6.773  16.977  0.00  0.00    +0.000 HD
ENDROOT
BRANCH   2   5
ATOM      5  C   UNL     1       2.395   4.359  17.825  0.00  0.00    +0.000 C 
BRANCH   5   6
ATOM      6  C   UNL     1       3.849   3.974  17.544  0.00  0.00    +0.000 C 
ATOM      7  O   UNL     1       4.424   5.123  16.932  0.00  0.00    +0.000 OA
ATOM      8  C   UNL     1       5.559   5.613  17.483  0.00  0.00    +0.000 A 
ATOM      9  C   UNL     1       6.011   6.817  16.941  0.00  0.00    +0.000 A 
ATOM     10  C   UNL     1       7.175   7.400  17.423  0.00  0.00    +0.000 A 
ATOM     11  C   UNL     1       7.898   6.767  18.440  0.00  0.00    +0.000 A 
ATOM     12  C   UNL     1       7.444   5.561  18.979  0.00  0.00    +0.000 A 
ATOM     13  C   UNL     1       6.258   4.994  18.512  0.00  0.00    +0.000 A 
ATOM     14  N   UNL     1       5.754   3.830  19.102  0.00  0.00    +0.000 N 
ATOM     15  C   UNL     1       4.519   3.327  18.775  0.00  0.00    +0.000 C 
ATOM     16  O   UNL     1       4.028   2.400  19.403  0.00  0.00    +0.000 OA
ATOM     17  H   UNL     1       6.247   3.382  19.861  0.00  0.00    +0.000 HD
ENDBRANCH   5   6
ENDBRANCH   2   5
BRANCH   3  18
ATOM     18  C   UNL     1       2.329   8.085  18.652  0.00  0.00    +0.000 C 
BRANCH  18  19
ATOM     19  C   UNL     1       1.577   9.122  17.824  0.00  0.00    +0.000 C 
BRANCH  19  20
ATOM     20  C   UNL     1       1.864  10.576  18.238  0.00  0.00    +0.000 C 
BRANCH  20  21
ATOM     21  N   UNL     1       0.735  11.261  18.896  0.00  0.00    +0.000 NA
ATOM     22  C   UNL     1       0.732  12.705  18.648  0.00  0.00    +0.000 C 
ATOM     23  C   UNL     1       0.171  13.480  19.842  0.00  0.00    +0.000 C 
ATOM     24  C   UNL     1      -1.346  13.512  19.948  0.00  0.00    +0.000 C 
ATOM     25  C   UNL     1      -2.000  12.140  20.030  0.00  0.00    +0.000 C 
ATOM     26  C   UNL     1      -1.845  11.360  18.731  0.00  0.00    +0.000 C 
ATOM     27  C   UNL     1      -0.535  10.571  18.618  0.00  0.00    +0.000 C 
ENDBRANCH  20  21
ENDBRANCH  19  20
ENDBRANCH  18  19
ENDBRANCH   3  18
TORSDOF 6
ENDMDL
