MODEL 1
REMARK VINA RESULT:      -6.2      0.000      0.000
REMARK  Name = 
REMARK  2 active torsions:
REMARK  status: ('A' for Active; 'I' for Inactive)
REMARK    1  A    between atoms: S_2  and  C_4
REMARK    2  A    between atoms: S_2  and  C_10
REMARK                            x       y       z     vdW  Elec       q    Type
REMARK                         _______ _______ _______ _____ _____    ______ ____
ROOT
ATOM      1  O   UNL     1       7.665   6.980  17.382  0.00  0.00    +0.000 OA
ATOM      2  S   UNL     1       7.041   5.669  17.455  0.00  0.00    +0.000 S 
ATOM      3  O   UNL     1       7.650   4.576  18.193  0.00  0.00    +0.000 OA
ENDROOT
BRANCH   2   4
ATOM      4  C   UNL     1       5.398   5.915  18.081  0.00  0.00    +0.000 A 
ATOM      5  C   UNL     1       4.970   5.161  19.178  0.00  0.00    +0.000 A 
ATOM      6  C   UNL     1       3.676   5.327  19.668  0.00  0.00    +0.000 A 
ATOM      7  C   UNL     1       2.809   6.232  19.055  0.00  0.00    +0.000 A 
ATOM      8  C   UNL     1       3.234   6.975  17.952  0.00  0.00    +0.000 A 
ATOM      9  C   UNL     1       4.532   6.820  17.460  0.00  0.00    +0.000 A 
ENDBRANCH   2   4
BRANCH   2  10
ATOM     10  C   UNL     1       6.897   5.093  15.781  0.00  0.00    +0.000 A 
ATOM     11  N   UNL     1       7.606   5.498  14.743  0.00  0.00    +0.000 NA
ATOM     12  C   UNL     1       7.216   4.786  13.625  0.00  0.00    +0.000 A 
ATOM     13  C   UNL     1       6.223   3.851  13.827  0.00  0.00    +0.000 A 
ATOM     14  S   UNL     1       5.742   3.865  15.475  0.00  0.00    +0.000 S 
ENDBRANCH   2  10
TORSDOF 2
ENDMDL
MODEL 2
REMARK VINA RESULT:      -6.1      0.424      1.363
REMARK  Name = 
REMARK  2 active torsions:
REMARK  status: ('A' for Active; 'I' for Inactive)
REMARK    1  A    between atoms: S_2  and  C_4
REMARK    2  A    between atoms: S_2  and  C_10
REMARK                            x       y       z     vdW  Elec       q    Type
REMARK                         _______ _______ _______ _____ _____    ______ ____
ROOT
ATOM      1  O   UNL     1       7.697   7.159  16.796  0.00  0.00    +0.000 OA
ATOM      2  S   UNL     1       7.147   5.829  16.997  0.00  0.00    +0.000 S 
ATOM      3  O   UNL     1       7.854   4.822  17.767  0.00  0.00    +0.000 OA
ENDROOT
BRANCH   2   4
ATOM      4  C   UNL     1       5.533   6.040  17.706  0.00  0.00    +0.000 A 
ATOM      5  C   UNL     1       4.667   6.987  17.153  0.00  0.00    +0.000 A 
ATOM      6  C   UNL     1       3.405   7.180  17.711  0.00  0.00    +0.000 A 
ATOM      7  C   UNL     1       3.016   6.438  18.826  0.00  0.00    +0.000 A 
ATOM      8  C   UNL     1       3.887   5.501  19.385  0.00  0.00    +0.000 A 
ATOM      9  C   UNL     1       5.151   5.297  18.827  0.00  0.00    +0.000 A 
ENDBRANCH   2   4
BRANCH   2  10
ATOM     10  C   UNL     1       6.934   5.129  15.378  0.00  0.00    +0.000 A 
ATOM     11  N   UNL     1       7.588   5.464  14.281  0.00  0.00    +0.000 NA
ATOM     12  C   UNL     1       7.157   4.667  13.237  0.00  0.00    +0.000 A 
ATOM     13  C   UNL     1       6.190   3.737  13.555  0.00  0.00    +0.000 A 
ATOM     14  S   UNL     1       5.786   3.867  15.218  0.00  0.00    +0.000 S 
ENDBRANCH   2  10
TORSDOF 2
ENDMDL
MODEL 3
REMARK VINA RESULT:      -6.0      1.747      5.111
REMARK  Name = 
REMARK  2 active torsions:
REMARK  status: ('A' for Active; 'I' for Inactive)
REMARK    1  A    between atoms: S_2  and  C_4
REMARK    2  A    between atoms: S_2  and  C_10
REMARK                            x       y       z     vdW  Elec       q    Type
REMARK                         _______ _______ _______ _____ _____    ______ ____
ROOT
ATOM      1  O   UNL     1       8.024   4.254  17.048  0.00  0.00    +0.000 OA
ATOM      2  S   UNL     1       7.177   5.250  16.413  0.00  0.00    +0.000 S 
ATOM      3  O   UNL     1       7.512   6.663  16.440  0.00  0.00    +0.000 OA
ENDROOT
BRANCH   2   4
ATOM      4  C   UNL     1       6.982   4.756  14.719  0.00  0.00    +0.000 A 
ATOM      5  C   UNL     1       7.802   5.333  13.746  0.00  0.00    +0.000 A 
ATOM      6  C   UNL     1       7.648   4.973  12.409  0.00  0.00    +0.000 A 
ATOM      7  C   UNL     1       6.667   4.049  12.045  0.00  0.00    +0.000 A 
ATOM      8  C   UNL     1       5.840   3.483  13.017  0.00  0.00    +0.000 A 
ATOM      9  C   UNL     1       5.994   3.834  14.360  0.00  0.00    +0.000 A 
ENDBRANCH   2   4
BRANCH   2  10
ATOM     10  C   UNL     1       5.587   5.122  17.196  0.00  0.00    +0.000 A 
ATOM     11  N   UNL     1       5.124   4.091  17.879  0.00  0.00    +0.000 NA
ATOM     12  C   UNL     1       3.862   4.395  18.354  0.00  0.00    +0.000 A 
ATOM     13  C   UNL     1       3.387   5.648  18.031  0.00  0.00    +0.000 A 
ATOM     14  S   UNL     1       4.550   6.481  17.084  0.00  0.00    +0.000 S 
ENDBRANCH   2  10
TORSDOF 2
ENDMDL
MODEL 4
REMARK VINA RESULT:      -6.0      4.250      5.866
REMARK  Name = 
REMARK  2 active torsions:
REMARK  status: ('A' for Active; 'I' for Inactive)
REMARK    1  A    between atoms: S_2  and  C_4
REMARK    2  A    between atoms: S_2  and  C_10
REMARK                            x       y       z     vdW  Elec       q    Type
REMARK                         _______ _______ _______ _____ _____    ______ ____
ROOT
ATOM      1  O   UNL     1       1.005   4.279  17.255  0.00  0.00    +0.000 OA
ATOM      2  S   UNL     1       2.172   3.490  17.614  0.00  0.00    +0.000 S 
ATOM      3  O   UNL     1       2.410   2.178  17.036  0.00  0.00    +0.000 OA
ENDROOT
BRANCH   2   4
ATOM      4  C   UNL     1       3.595   4.502  17.300  0.00  0.00    +0.000 A 
ATOM      5  C   UNL     1       4.704   3.936  16.664  0.00  0.00    +0.000 A 
ATOM      6  C   UNL     1       5.838   4.712  16.430  0.00  0.00    +0.000 A 
ATOM      7  C   UNL     1       5.868   6.044  16.842  0.00  0.00    +0.000 A 
ATOM      8  C   UNL     1       4.764   6.605  17.488  0.00  0.00    +0.000 A 
ATOM      9  C   UNL     1       3.621   5.836  17.720  0.00  0.00    +0.000 A 
ENDBRANCH   2   4
BRANCH   2  10
ATOM     10  C   UNL     1       2.075   3.228  19.368  0.00  0.00    +0.000 A 
ATOM     11  N   UNL     1       1.004   3.362  20.129  0.00  0.00    +0.000 NA
ATOM     12  C   UNL     1       1.332   3.037  21.431  0.00  0.00    +0.000 A 
ATOM     13  C   UNL     1       2.640   2.657  21.642  0.00  0.00    +0.000 A 
ATOM     14  S   UNL     1       3.506   2.719  20.161  0.00  0.00    +0.000 S 
ENDBRANCH   2  10
TORSDOF 2
ENDMDL
MODEL 5
REMARK VINA RESULT:      -5.9      1.588      5.028
REMARK  Name = 
REMARK  2 active torsions:
REMARK  status: ('A' for Active; 'I' for Inactive)
REMARK    1  A    between atoms: S_2  and  C_4
REMARK    2  A    between atoms: S_2  and  C_10
REMARK                            x       y       z     vdW  Elec       q    Type
REMARK                         _______ _______ _______ _____ _____    ______ ____
ROOT
ATOM      1  O   UNL     1       7.964   4.371  17.122  0.00  0.00    +0.000 OA
ATOM      2  S   UNL     1       7.176   5.380  16.432  0.00  0.00    +0.000 S 
ATOM      3  O   UNL     1       7.600   6.768  16.373  0.00  0.00    +0.000 OA
ENDROOT
BRANCH   2   4
ATOM      4  C   UNL     1       6.937   4.800  14.771  0.00  0.00    +0.000 A 
ATOM      5  C   UNL     1       7.753   5.302  13.754  0.00  0.00    +0.000 A 
ATOM      6  C   UNL     1       7.564   4.873  12.441  0.00  0.00    +0.000 A 
ATOM      7  C   UNL     1       6.554   3.958  12.145  0.00  0.00    +0.000 A 
ATOM      8  C   UNL     1       5.732   3.467  13.161  0.00  0.00    +0.000 A 
ATOM      9  C   UNL     1       5.919   3.886  14.481  0.00  0.00    +0.000 A 
ENDBRANCH   2   4
BRANCH   2  10
ATOM     10  C   UNL     1       5.587   5.399  17.227  0.00  0.00    +0.000 A 
ATOM     11  N   UNL     1       4.557   6.165  16.914  0.00  0.00    +0.000 NA
ATOM     12  C   UNL     1       3.497   5.857  17.746  0.00  0.00    +0.000 A 
ATOM     13  C   UNL     1       3.733   4.864  18.672  0.00  0.00    +0.000 A 
ATOM     14  S   UNL     1       5.345   4.296  18.515  0.00  0.00    +0.000 S 
ENDBRANCH   2  10
TORSDOF 2
ENDMDL
MODEL 6
REMARK VINA RESULT:      -5.8      3.640      5.377
REMARK  Name = 
REMARK  2 active torsions:
REMARK  status: ('A' for Active; 'I' for Inactive)
REMARK    1  A    between atoms: S_2  and  C_4
REMARK    2  A    between atoms: S_2  and  C_10
REMARK                            x       y       z     vdW  Elec       q    Type
REMARK                         _______ _______ _______ _____ _____    ______ ____
ROOT
ATOM      1  O   UNL     1       2.736   6.233  17.823  0.00  0.00    +0.000 OA
ATOM      2  S   UNL     1       3.596   5.071  17.977  0.00  0.00    +0.000 S 
ATOM      3  O   UNL     1       3.623   4.008  16.987  0.00  0.00    +0.000 OA
ENDROOT
BRANCH   2   4
ATOM      4  C   UNL     1       5.251   5.678  18.187  0.00  0.00    +0.000 A 
ATOM      5  C   UNL     1       5.762   6.590  17.258  0.00  0.00    +0.000 A 
ATOM      6  C   UNL     1       7.067   7.060  17.397  0.00  0.00    +0.000 A 
ATOM      7  C   UNL     1       7.861   6.609  18.451  0.00  0.00    +0.000 A 
ATOM      8  C   UNL     1       7.354   5.689  19.370  0.00  0.00    +0.000 A 
ATOM      9  C   UNL     1       6.044   5.218  19.242  0.00  0.00    +0.000 A 
ENDBRANCH   2   4
BRANCH   2  10
ATOM     10  C   UNL     1       3.113   4.293  19.499  0.00  0.00    +0.000 A 
ATOM     11  N   UNL     1       2.514   4.870  20.525  0.00  0.00    +0.000 NA
ATOM     12  C   UNL     1       2.279   3.921  21.502  0.00  0.00    +0.000 A 
ATOM     13  C   UNL     1       2.695   2.641  21.205  0.00  0.00    +0.000 A 
ATOM     14  S   UNL     1       3.424   2.615  19.652  0.00  0.00    +0.000 S 
ENDBRANCH   2  10
TORSDOF 2
ENDMDL
MODEL 7
REMARK VINA RESULT:      -5.8      2.719      3.838
REMARK  Name = 
REMARK  2 active torsions:
REMARK  status: ('A' for Active; 'I' for Inactive)
REMARK    1  A    between atoms: S_2  and  C_4
REMARK    2  A    between atoms: S_2  and  C_10
REMARK                            x       y       z     vdW  Elec       q    Type
REMARK                         _______ _______ _______ _____ _____    ______ ____
ROOT
ATOM      1  O   UNL     1       6.038   3.554  15.776  0.00  0.00    +0.000 OA
ATOM      2  S   UNL     1       5.402   4.739  16.327  0.00  0.00    +0.000 S 
ATOM      3  O   UNL     1       5.058   5.877  15.492  0.00  0.00    +0.000 OA
ENDROOT
BRANCH   2   4
ATOM      4  C   UNL     1       3.930   4.196  17.158  0.00  0.00    +0.000 A 
ATOM      5  C   UNL     1       3.083   5.148  17.731  0.00  0.00    +0.000 A 
ATOM      6  C   UNL     1       1.935   4.737  18.405  0.00  0.00    +0.000 A 
ATOM      7  C   UNL     1       1.642   3.377  18.518  0.00  0.00    +0.000 A 
ATOM      8  C   UNL     1       2.496   2.426  17.955  0.00  0.00    +0.000 A 
ATOM      9  C   UNL     1       3.645   2.831  17.272  0.00  0.00    +0.000 A 
ENDBRANCH   2   4
BRANCH   2  10
ATOM     10  C   UNL     1       6.512   5.372  17.562  0.00  0.00    +0.000 A 
ATOM     11  N   UNL     1       6.898   4.758  18.666  0.00  0.00    +0.000 NA
ATOM     12  C   UNL     1       7.788   5.567  19.344  0.00  0.00    +0.000 A 
ATOM     13  C   UNL     1       8.070   6.778  18.748  0.00  0.00    +0.000 A 
ATOM     14  S   UNL     1       7.180   6.925  17.288  0.00  0.00    +0.000 S 
ENDBRANCH   2  10
TORSDOF 2
ENDMDL
MODEL 8
REMARK VINA RESULT:      -5.8      3.140      4.075
REMARK  Name = 
REMARK  2 active torsions:
REMARK  status: ('A' for Active; 'I' for Inactive)
REMARK    1  A    between atoms: S_2  and  C_4
REMARK    2  A    between atoms: S_2  and  C_10
REMARK                            x       y       z     vdW  Elec       q    Type
REMARK                         _______ _______ _______ _____ _____    ______ ____
ROOT
ATOM      1  O   UNL     1       4.575   3.416  17.130  0.00  0.00    +0.000 OA
ATOM      2  S   UNL     1       4.269   4.636  17.860  0.00  0.00    +0.000 S 
ATOM      3  O   UNL     1       3.552   5.735  17.238  0.00  0.00    +0.000 OA
ENDROOT
BRANCH   2   4
ATOM      4  C   UNL     1       3.385   4.153  19.322  0.00  0.00    +0.000 A 
ATOM      5  C   UNL     1       3.705   2.940  19.938  0.00  0.00    +0.000 A 
ATOM      6  C   UNL     1       3.006   2.536  21.075  0.00  0.00    +0.000 A 
ATOM      7  C   UNL     1       1.983   3.336  21.584  0.00  0.00    +0.000 A 
ATOM      8  C   UNL     1       1.657   4.542  20.960  0.00  0.00    +0.000 A 
ATOM      9  C   UNL     1       2.357   4.956  19.825  0.00  0.00    +0.000 A 
ENDBRANCH   2   4
BRANCH   2  10
ATOM     10  C   UNL     1       5.828   5.313  18.374  0.00  0.00    +0.000 A 
ATOM     11  N   UNL     1       6.552   4.930  19.411  0.00  0.00    +0.000 NA
ATOM     12  C   UNL     1       7.711   5.681  19.454  0.00  0.00    +0.000 A 
ATOM     13  C   UNL     1       7.855   6.616  18.451  0.00  0.00    +0.000 A 
ATOM     14  S   UNL     1       6.486   6.573  17.418  0.00  0.00    +0.000 S 
ENDBRANCH   2  10
TORSDOF 2
ENDMDL
MODEL 9
REMARK VINA RESULT:      -5.8      2.592      3.176
REMARK  Name = 
REMARK  2 active torsions:
REMARK  status: ('A' for Active; 'I' for Inactive)
REMARK    1  A    between atoms: S_2  and  C_4
REMARK    2  A    between atoms: S_2  and  C_10
REMARK                            x       y       z     vdW  Elec       q    Type
REMARK                         _______ _______ _______ _____ _____    ______ ____
ROOT
ATOM      1  O   UNL     1       4.486   6.283  18.425  0.00  0.00    +0.000 OA
ATOM      2  S   UNL     1       4.942   4.904  18.371  0.00  0.00    +0.000 S 
ATOM      3  O   UNL     1       5.935   4.392  19.299  0.00  0.00    +0.000 OA
ENDROOT
BRANCH   2   4
ATOM      4  C   UNL     1       3.496   3.879  18.482  0.00  0.00    +0.000 A 
ATOM      5  C   UNL     1       2.241   4.447  18.246  0.00  0.00    +0.000 A 
ATOM      6  C   UNL     1       1.095   3.662  18.351  0.00  0.00    +0.000 A 
ATOM      7  C   UNL     1       1.203   2.316  18.703  0.00  0.00    +0.000 A 
ATOM      8  C   UNL     1       2.456   1.753  18.951  0.00  0.00    +0.000 A 
ATOM      9  C   UNL     1       3.610   2.532  18.841  0.00  0.00    +0.000 A 
ENDBRANCH   2   4
BRANCH   2  10
ATOM     10  C   UNL     1       5.639   4.673  16.753  0.00  0.00    +0.000 A 
ATOM     11  N   UNL     1       5.135   3.946  15.772  0.00  0.00    +0.000 NA
ATOM     12  C   UNL     1       5.956   4.049  14.666  0.00  0.00    +0.000 A 
ATOM     13  C   UNL     1       7.065   4.853  14.817  0.00  0.00    +0.000 A 
ATOM     14  S   UNL     1       7.099   5.499  16.407  0.00  0.00    +0.000 S 
ENDBRANCH   2  10
TORSDOF 2
ENDMDL
