MODEL 1
REMARK VINA RESULT:      -8.4      0.000      0.000
REMARK  Name = 
REMARK  9 active torsions:
REMARK  status: ('A' for Active; 'I' for Inactive)
REMARK    1  A    between atoms: C_1  and  C_2
REMARK    2  A    between atoms: C_2  and  C_3
REMARK    3  A    between atoms: C_7  and  N_8
REMARK    4  A    between atoms: C_9  and  C_11
REMARK    5  A    between atoms: C_15  and  O_16
REMARK    6  A    between atoms: O_16  and  C_17
REMARK    7  A    between atoms: C_19  and  C_20
REMARK    8  A    between atoms: C_20  and  N_21
REMARK    9  A    between atoms: C_23  and  C_24
REMARK                            x       y       z     vdW  Elec       q    Type
REMARK                         _______ _______ _______ _____ _____    ______ ____
ROOT
ATOM      1  C   UNL     1       2.946   3.858  18.273  0.00  0.00    +0.000 A 
ATOM      2  C   UNL     1       1.874   2.946  18.260  0.00  0.00    +0.000 A 
ATOM      3  C   UNL     1       0.832   3.051  19.183  0.00  0.00    +0.000 A 
ATOM      4  C   UNL     1       0.837   4.073  20.133  0.00  0.00    +0.000 A 
ATOM      5  C   UNL     1       1.876   5.007  20.157  0.00  0.00    +0.000 A 
ATOM      6  C   UNL     1       2.931   4.891  19.232  0.00  0.00    +0.000 A 
ENDROOT
BRANCH   1   8
ATOM      7  N   UNL     1       4.360   4.707  16.374  0.00  0.00    +0.000 N 
ATOM      8  C   UNL     1       4.042   3.710  17.259  0.00  0.00    +0.000 C 
ATOM      9  O   UNL     1       4.667   2.662  17.261  0.00  0.00    +0.000 OA
ATOM     10  H   UNL     1       3.883   5.610  16.455  0.00  0.00    +0.000 HD
BRANCH   7  15
ATOM     11  C   UNL     1       5.925   3.767  13.113  0.00  0.00    +0.000 A 
ATOM     12  C   UNL     1       7.187   4.368  13.213  0.00  0.00    +0.000 A 
ATOM     13  C   UNL     1       7.532   5.084  14.357  0.00  0.00    +0.000 A 
ATOM     14  C   UNL     1       6.625   5.219  15.404  0.00  0.00    +0.000 A 
ATOM     15  C   UNL     1       5.339   4.636  15.324  0.00  0.00    +0.000 A 
ATOM     16  C   UNL     1       5.011   3.909  14.166  0.00  0.00    +0.000 A 
BRANCH  11  18
ATOM     17  C   UNL     1       4.149   3.301  11.440  0.00  0.00    +0.000 C 
ATOM     18  C   UNL     1       5.563   2.952  11.900  0.00  0.00    +0.000 C 
ENDBRANCH  11  18
ENDBRANCH   7  15
ENDBRANCH   1   8
BRANCH   5  19
ATOM     19  O   UNL     1       1.861   6.003  21.080  0.00  0.00    +0.000 OA
BRANCH  19  20
ATOM     20  C   UNL     1       1.494   7.284  20.823  0.00  0.00    +0.000 A 
ATOM     21  C   UNL     1       0.828   8.033  21.797  0.00  0.00    +0.000 A 
ATOM     22  C   UNL     1       0.441   9.352  21.512  0.00  0.00    +0.000 A 
ATOM     23  C   UNL     1       0.717   9.891  20.246  0.00  0.00    +0.000 A 
ATOM     24  C   UNL     1       1.380   9.109  19.287  0.00  0.00    +0.000 A 
ATOM     25  N   UNL     1       1.748   7.842  19.605  0.00  0.00    +0.000 NA
BRANCH  24  26
ATOM     26  C   UNL     1       1.687   9.625  17.908  0.00  0.00    +0.000 C 
ATOM     27  F   UNL     1       2.412  10.803  17.947  0.00  0.00    +0.000 F 
ATOM     28  F   UNL     1       2.418   8.676  17.216  0.00  0.00    +0.000 F 
ATOM     29  F   UNL     1       0.502   9.856  17.235  0.00  0.00    +0.000 F 
ENDBRANCH  24  26
BRANCH  22  30
ATOM     30  C   UNL     1      -0.279  10.184  22.541  0.00  0.00    +0.000 C 
BRANCH  30  31
ATOM     31  N   UNL     1       0.026   9.712  23.889  0.00  0.00    +0.000 NA
ATOM     32  H   UNL     1       0.941   9.207  23.878  0.00  0.00    +0.000 HD
ATOM     33  H   UNL     1      -0.714   9.032  24.177  0.00  0.00    +0.000 HD
ENDBRANCH  30  31
ENDBRANCH  22  30
ENDBRANCH  19  20
ENDBRANCH   5  19
TORSDOF 8
ENDMDL
MODEL 2
REMARK VINA RESULT:      -8.4      2.824      8.517
REMARK  Name = 
REMARK  9 active torsions:
REMARK  status: ('A' for Active; 'I' for Inactive)
REMARK    1  A    between atoms: C_1  and  C_2
REMARK    2  A    between atoms: C_2  and  C_3
REMARK    3  A    between atoms: C_7  and  N_8
REMARK    4  A    between atoms: C_9  and  C_11
REMARK    5  A    between atoms: C_15  and  O_16
REMARK    6  A    between atoms: O_16  and  C_17
REMARK    7  A    between atoms: C_19  and  C_20
REMARK    8  A    between atoms: C_20  and  N_21
REMARK    9  A    between atoms: C_23  and  C_24
REMARK                            x       y       z     vdW  Elec       q    Type
REMARK                         _______ _______ _______ _____ _____    ______ ____
ROOT
ATOM      1  C   UNL     1       1.912   5.431  20.014  0.00  0.00    +0.000 A 
ATOM      2  C   UNL     1       1.399   4.447  20.881  0.00  0.00    +0.000 A 
ATOM      3  C   UNL     1       1.668   3.094  20.670  0.00  0.00    +0.000 A 
ATOM      4  C   UNL     1       2.461   2.697  19.592  0.00  0.00    +0.000 A 
ATOM      5  C   UNL     1       3.002   3.652  18.727  0.00  0.00    +0.000 A 
ATOM      6  C   UNL     1       2.720   5.014  18.936  0.00  0.00    +0.000 A 
ENDROOT
BRANCH   1   8
ATOM      7  N   UNL     1       0.629   7.261  21.168  0.00  0.00    +0.000 N 
ATOM      8  C   UNL     1       1.601   6.874  20.283  0.00  0.00    +0.000 C 
ATOM      9  O   UNL     1       2.270   7.709  19.694  0.00  0.00    +0.000 OA
ATOM     10  H   UNL     1       0.148   6.543  21.718  0.00  0.00    +0.000 HD
BRANCH   7  15
ATOM     11  C   UNL     1      -0.327  10.819  20.535  0.00  0.00    +0.000 A 
ATOM     12  C   UNL     1      -0.552  11.293  21.835  0.00  0.00    +0.000 A 
ATOM     13  C   UNL     1      -0.387  10.446  22.928  0.00  0.00    +0.000 A 
ATOM     14  C   UNL     1      -0.009   9.120  22.740  0.00  0.00    +0.000 A 
ATOM     15  C   UNL     1       0.210   8.609  21.439  0.00  0.00    +0.000 A 
ATOM     16  C   UNL     1       0.048   9.480  20.348  0.00  0.00    +0.000 A 
BRANCH  11  18
ATOM     17  C   UNL     1      -1.521  11.212  18.393  0.00  0.00    +0.000 C 
ATOM     18  C   UNL     1      -0.458  11.741  19.353  0.00  0.00    +0.000 C 
ENDBRANCH  11  18
ENDBRANCH   7  15
ENDBRANCH   1   8
BRANCH   5  19
ATOM     19  O   UNL     1       3.782   3.250  17.688  0.00  0.00    +0.000 OA
BRANCH  19  20
ATOM     20  C   UNL     1       4.902   3.895  17.274  0.00  0.00    +0.000 A 
ATOM     21  C   UNL     1       5.211   3.960  15.913  0.00  0.00    +0.000 A 
ATOM     22  C   UNL     1       6.380   4.617  15.499  0.00  0.00    +0.000 A 
ATOM     23  C   UNL     1       7.227   5.186  16.463  0.00  0.00    +0.000 A 
ATOM     24  C   UNL     1       6.892   5.095  17.822  0.00  0.00    +0.000 A 
ATOM     25  N   UNL     1       5.746   4.461  18.182  0.00  0.00    +0.000 NA
BRANCH  24  26
ATOM     26  C   UNL     1       7.768   5.669  18.903  0.00  0.00    +0.000 C 
ATOM     27  F   UNL     1       8.250   6.921  18.566  0.00  0.00    +0.000 F 
ATOM     28  F   UNL     1       7.041   5.772  20.075  0.00  0.00    +0.000 F 
ATOM     29  F   UNL     1       8.841   4.823  19.113  0.00  0.00    +0.000 F 
ENDBRANCH  24  26
BRANCH  22  30
ATOM     30  C   UNL     1       6.742   4.704  14.039  0.00  0.00    +0.000 C 
BRANCH  30  31
ATOM     31  N   UNL     1       7.958   5.492  13.856  0.00  0.00    +0.000 NA
ATOM     32  H   UNL     1       8.613   4.974  13.229  0.00  0.00    +0.000 HD
ATOM     33  H   UNL     1       8.423   5.604  14.786  0.00  0.00    +0.000 HD
ENDBRANCH  30  31
ENDBRANCH  22  30
ENDBRANCH  19  20
ENDBRANCH   5  19
TORSDOF 8
ENDMDL
MODEL 3
REMARK VINA RESULT:      -8.3      5.082      6.894
REMARK  Name = 
REMARK  9 active torsions:
REMARK  status: ('A' for Active; 'I' for Inactive)
REMARK    1  A    between atoms: C_1  and  C_2
REMARK    2  A    between atoms: C_2  and  C_3
REMARK    3  A    between atoms: C_7  and  N_8
REMARK    4  A    between atoms: C_9  and  C_11
REMARK    5  A    between atoms: C_15  and  O_16
REMARK    6  A    between atoms: O_16  and  C_17
REMARK    7  A    between atoms: C_19  and  C_20
REMARK    8  A    between atoms: C_20  and  N_21
REMARK    9  A    between atoms: C_23  and  C_24
REMARK                            x       y       z     vdW  Elec       q    Type
REMARK                         _______ _______ _______ _____ _____    ______ ____
ROOT
ATOM      1  C   UNL     1       6.957   7.108  17.495  0.00  0.00    +0.000 A 
ATOM      2  C   UNL     1       7.410   6.170  16.547  0.00  0.00    +0.000 A 
ATOM      3  C   UNL     1       6.511   5.353  15.861  0.00  0.00    +0.000 A 
ATOM      4  C   UNL     1       5.141   5.460  16.102  0.00  0.00    +0.000 A 
ATOM      5  C   UNL     1       4.658   6.397  17.021  0.00  0.00    +0.000 A 
ATOM      6  C   UNL     1       5.569   7.211  17.719  0.00  0.00    +0.000 A 
ENDROOT
BRANCH   1   8
ATOM      7  N   UNL     1       8.035   9.323  18.002  0.00  0.00    +0.000 N 
ATOM      8  C   UNL     1       7.958   7.970  18.206  0.00  0.00    +0.000 C 
ATOM      9  O   UNL     1       8.702   7.421  19.003  0.00  0.00    +0.000 OA
ATOM     10  H   UNL     1       7.339   9.772  17.400  0.00  0.00    +0.000 HD
BRANCH   7  15
ATOM     11  C   UNL     1      10.864  11.759  18.193  0.00  0.00    +0.000 A 
ATOM     12  C   UNL     1      10.980  11.959  19.575  0.00  0.00    +0.000 A 
ATOM     13  C   UNL     1      10.131  11.291  20.454  0.00  0.00    +0.000 A 
ATOM     14  C   UNL     1       9.153  10.428  19.968  0.00  0.00    +0.000 A 
ATOM     15  C   UNL     1       9.001  10.219  18.577  0.00  0.00    +0.000 A 
ATOM     16  C   UNL     1       9.873  10.894  17.706  0.00  0.00    +0.000 A 
BRANCH  11  18
ATOM     17  C   UNL     1      11.247  13.803  16.834  0.00  0.00    +0.000 C 
ATOM     18  C   UNL     1      11.808  12.442  17.241  0.00  0.00    +0.000 C 
ENDBRANCH  11  18
ENDBRANCH   7  15
ENDBRANCH   1   8
BRANCH   5  19
ATOM     19  O   UNL     1       3.320   6.497  17.236  0.00  0.00    +0.000 OA
BRANCH  19  20
ATOM     20  C   UNL     1       2.718   6.292  18.434  0.00  0.00    +0.000 A 
ATOM     21  C   UNL     1       2.517   4.992  18.906  0.00  0.00    +0.000 A 
ATOM     22  C   UNL     1       1.879   4.793  20.140  0.00  0.00    +0.000 A 
ATOM     23  C   UNL     1       1.439   5.906  20.873  0.00  0.00    +0.000 A 
ATOM     24  C   UNL     1       1.648   7.198  20.368  0.00  0.00    +0.000 A 
ATOM     25  N   UNL     1       2.279   7.349  19.175  0.00  0.00    +0.000 NA
BRANCH  24  26
ATOM     26  C   UNL     1       1.184   8.429  21.098  0.00  0.00    +0.000 C 
ATOM     27  F   UNL     1       1.221   9.552  20.290  0.00  0.00    +0.000 F 
ATOM     28  F   UNL     1      -0.114   8.240  21.537  0.00  0.00    +0.000 F 
ATOM     29  F   UNL     1       2.002   8.643  22.191  0.00  0.00    +0.000 F 
ENDBRANCH  24  26
BRANCH  22  30
ATOM     30  C   UNL     1       1.648   3.404  20.676  0.00  0.00    +0.000 C 
BRANCH  30  31
ATOM     31  N   UNL     1       2.284   3.244  21.981  0.00  0.00    +0.000 NA
ATOM     32  H   UNL     1       1.649   2.700  22.608  0.00  0.00    +0.000 HD
ATOM     33  H   UNL     1       2.420   4.191  22.402  0.00  0.00    +0.000 HD
ENDBRANCH  30  31
ENDBRANCH  22  30
ENDBRANCH  19  20
ENDBRANCH   5  19
TORSDOF 8
ENDMDL
MODEL 4
REMARK VINA RESULT:      -8.2      2.850      8.218
REMARK  Name = 
REMARK  9 active torsions:
REMARK  status: ('A' for Active; 'I' for Inactive)
REMARK    1  A    between atoms: C_1  and  C_2
REMARK    2  A    between atoms: C_2  and  C_3
REMARK    3  A    between atoms: C_7  and  N_8
REMARK    4  A    between atoms: C_9  and  C_11
REMARK    5  A    between atoms: C_15  and  O_16
REMARK    6  A    between atoms: O_16  and  C_17
REMARK    7  A    between atoms: C_19  and  C_20
REMARK    8  A    between atoms: C_20  and  N_21
REMARK    9  A    between atoms: C_23  and  C_24
REMARK                            x       y       z     vdW  Elec       q    Type
REMARK                         _______ _______ _______ _____ _____    ______ ____
ROOT
ATOM      1  C   UNL     1       1.915   5.408  20.184  0.00  0.00    +0.000 A 
ATOM      2  C   UNL     1       1.107   4.497  20.893  0.00  0.00    +0.000 A 
ATOM      3  C   UNL     1       1.313   3.121  20.784  0.00  0.00    +0.000 A 
ATOM      4  C   UNL     1       2.334   2.627  19.971  0.00  0.00    +0.000 A 
ATOM      5  C   UNL     1       3.166   3.506  19.273  0.00  0.00    +0.000 A 
ATOM      6  C   UNL     1       2.949   4.892  19.376  0.00  0.00    +0.000 A 
ENDROOT
BRANCH   1   8
ATOM      7  N   UNL     1       0.774   7.378  21.252  0.00  0.00    +0.000 N 
ATOM      8  C   UNL     1       1.662   6.878  20.335  0.00  0.00    +0.000 C 
ATOM      9  O   UNL     1       2.300   7.632  19.618  0.00  0.00    +0.000 OA
ATOM     10  H   UNL     1       0.322   6.731  21.905  0.00  0.00    +0.000 HD
BRANCH   7  15
ATOM     11  C   UNL     1       0.454  11.027  20.507  0.00  0.00    +0.000 A 
ATOM     12  C   UNL     1      -0.193  11.501  21.657  0.00  0.00    +0.000 A 
ATOM     13  C   UNL     1      -0.526  10.623  22.686  0.00  0.00    +0.000 A 
ATOM     14  C   UNL     1      -0.229   9.267  22.578  0.00  0.00    +0.000 A 
ATOM     15  C   UNL     1       0.410   8.758  21.423  0.00  0.00    +0.000 A 
ATOM     16  C   UNL     1       0.746   9.660  20.399  0.00  0.00    +0.000 A 
BRANCH  11  18
ATOM     17  C   UNL     1      -0.131  13.139  19.338  0.00  0.00    +0.000 C 
ATOM     18  C   UNL     1       0.858  11.978  19.413  0.00  0.00    +0.000 C 
ENDBRANCH  11  18
ENDBRANCH   7  15
ENDBRANCH   1   8
BRANCH   5  19
ATOM     19  O   UNL     1       4.164   3.009  18.495  0.00  0.00    +0.000 OA
BRANCH  19  20
ATOM     20  C   UNL     1       5.170   3.752  17.968  0.00  0.00    +0.000 A 
ATOM     21  C   UNL     1       6.026   4.470  18.808  0.00  0.00    +0.000 A 
ATOM     22  C   UNL     1       7.054   5.246  18.250  0.00  0.00    +0.000 A 
ATOM     23  C   UNL     1       7.193   5.300  16.854  0.00  0.00    +0.000 A 
ATOM     24  C   UNL     1       6.311   4.575  16.039  0.00  0.00    +0.000 A 
ATOM     25  N   UNL     1       5.337   3.826  16.618  0.00  0.00    +0.000 NA
BRANCH  24  26
ATOM     26  C   UNL     1       6.399   4.607  14.537  0.00  0.00    +0.000 C 
ATOM     27  F   UNL     1       6.378   3.335  13.993  0.00  0.00    +0.000 F 
ATOM     28  F   UNL     1       5.332   5.325  14.031  0.00  0.00    +0.000 F 
ATOM     29  F   UNL     1       7.576   5.228  14.165  0.00  0.00    +0.000 F 
ENDBRANCH  24  26
BRANCH  22  30
ATOM     30  C   UNL     1       7.993   6.031  19.128  0.00  0.00    +0.000 C 
BRANCH  30  31
ATOM     31  N   UNL     1       8.102   5.412  20.446  0.00  0.00    +0.000 NA
ATOM     32  H   UNL     1       9.094   5.470  20.772  0.00  0.00    +0.000 HD
ATOM     33  H   UNL     1       7.851   4.400  20.359  0.00  0.00    +0.000 HD
ENDBRANCH  30  31
ENDBRANCH  22  30
ENDBRANCH  19  20
ENDBRANCH   5  19
TORSDOF 8
ENDMDL
MODEL 5
REMARK VINA RESULT:      -8.1      3.586      8.791
REMARK  Name = 
REMARK  9 active torsions:
REMARK  status: ('A' for Active; 'I' for Inactive)
REMARK    1  A    between atoms: C_1  and  C_2
REMARK    2  A    between atoms: C_2  and  C_3
REMARK    3  A    between atoms: C_7  and  N_8
REMARK    4  A    between atoms: C_9  and  C_11
REMARK    5  A    between atoms: C_15  and  O_16
REMARK    6  A    between atoms: O_16  and  C_17
REMARK    7  A    between atoms: C_19  and  C_20
REMARK    8  A    between atoms: C_20  and  N_21
REMARK    9  A    between atoms: C_23  and  C_24
REMARK                            x       y       z     vdW  Elec       q    Type
REMARK                         _______ _______ _______ _____ _____    ______ ____
ROOT
ATOM      1  C   UNL     1       1.868   7.947  19.064  0.00  0.00    +0.000 A 
ATOM      2  C   UNL     1       1.486   7.542  20.358  0.00  0.00    +0.000 A 
ATOM      3  C   UNL     1       1.679   6.227  20.784  0.00  0.00    +0.000 A 
ATOM      4  C   UNL     1       2.262   5.291  19.929  0.00  0.00    +0.000 A 
ATOM      5  C   UNL     1       2.672   5.668  18.647  0.00  0.00    +0.000 A 
ATOM      6  C   UNL     1       2.467   6.992  18.217  0.00  0.00    +0.000 A 
ENDROOT
BRANCH   1   8
ATOM      7  N   UNL     1       1.163  10.318  19.515  0.00  0.00    +0.000 N 
ATOM      8  C   UNL     1       1.648   9.371  18.650  0.00  0.00    +0.000 C 
ATOM      9  O   UNL     1       1.940   9.672  17.504  0.00  0.00    +0.000 OA
ATOM     10  H   UNL     1       1.015  10.062  20.495  0.00  0.00    +0.000 HD
BRANCH   7  15
ATOM     11  C   UNL     1       1.654  13.989  19.005  0.00  0.00    +0.000 A 
ATOM     12  C   UNL     1       0.363  14.407  18.655  0.00  0.00    +0.000 A 
ATOM     13  C   UNL     1      -0.678  13.484  18.587  0.00  0.00    +0.000 A 
ATOM     14  C   UNL     1      -0.445  12.139  18.856  0.00  0.00    +0.000 A 
ATOM     15  C   UNL     1       0.851  11.685  19.196  0.00  0.00    +0.000 A 
ATOM     16  C   UNL     1       1.888  12.631  19.269  0.00  0.00    +0.000 A 
BRANCH  11  18
ATOM     17  C   UNL     1       3.901  14.626  18.160  0.00  0.00    +0.000 C 
ATOM     18  C   UNL     1       2.773  14.987  19.125  0.00  0.00    +0.000 C 
ENDBRANCH  11  18
ENDBRANCH   7  15
ENDBRANCH   1   8
BRANCH   5  19
ATOM     19  O   UNL     1       3.250   4.748  17.831  0.00  0.00    +0.000 OA
BRANCH  19  20
ATOM     20  C   UNL     1       4.536   4.802  17.401  0.00  0.00    +0.000 A 
ATOM     21  C   UNL     1       4.850   4.467  16.081  0.00  0.00    +0.000 A 
ATOM     22  C   UNL     1       6.186   4.513  15.654  0.00  0.00    +0.000 A 
ATOM     23  C   UNL     1       7.187   4.880  16.567  0.00  0.00    +0.000 A 
ATOM     24  C   UNL     1       6.840   5.201  17.888  0.00  0.00    +0.000 A 
ATOM     25  N   UNL     1       5.534   5.156  18.259  0.00  0.00    +0.000 NA
BRANCH  24  26
ATOM     26  C   UNL     1       7.869   5.584  18.916  0.00  0.00    +0.000 C 
ATOM     27  F   UNL     1       8.903   4.667  18.976  0.00  0.00    +0.000 F 
ATOM     28  F   UNL     1       8.392   6.825  18.602  0.00  0.00    +0.000 F 
ATOM     29  F   UNL     1       7.265   5.652  20.158  0.00  0.00    +0.000 F 
ENDBRANCH  24  26
BRANCH  22  30
ATOM     30  C   UNL     1       6.556   4.158  14.237  0.00  0.00    +0.000 C 
BRANCH  30  31
ATOM     31  N   UNL     1       7.397   5.198  13.650  0.00  0.00    +0.000 NA
ATOM     32  H   UNL     1       6.826   5.765  12.982  0.00  0.00    +0.000 HD
ATOM     33  H   UNL     1       8.164   4.739  13.108  0.00  0.00    +0.000 HD
ENDBRANCH  30  31
ENDBRANCH  22  30
ENDBRANCH  19  20
ENDBRANCH   5  19
TORSDOF 8
ENDMDL
MODEL 6
REMARK VINA RESULT:      -8.1      2.854      8.523
REMARK  Name = 
REMARK  9 active torsions:
REMARK  status: ('A' for Active; 'I' for Inactive)
REMARK    1  A    between atoms: C_1  and  C_2
REMARK    2  A    between atoms: C_2  and  C_3
REMARK    3  A    between atoms: C_7  and  N_8
REMARK    4  A    between atoms: C_9  and  C_11
REMARK    5  A    between atoms: C_15  and  O_16
REMARK    6  A    between atoms: O_16  and  C_17
REMARK    7  A    between atoms: C_19  and  C_20
REMARK    8  A    between atoms: C_20  and  N_21
REMARK    9  A    between atoms: C_23  and  C_24
REMARK                            x       y       z     vdW  Elec       q    Type
REMARK                         _______ _______ _______ _____ _____    ______ ____
ROOT
ATOM      1  C   UNL     1       1.884   5.837  20.003  0.00  0.00    +0.000 A 
ATOM      2  C   UNL     1       1.006   4.998  20.716  0.00  0.00    +0.000 A 
ATOM      3  C   UNL     1       1.160   3.611  20.691  0.00  0.00    +0.000 A 
ATOM      4  C   UNL     1       2.198   3.034  19.959  0.00  0.00    +0.000 A 
ATOM      5  C   UNL     1       3.099   3.841  19.259  0.00  0.00    +0.000 A 
ATOM      6  C   UNL     1       2.934   5.238  19.277  0.00  0.00    +0.000 A 
ENDROOT
BRANCH   1   8
ATOM      7  N   UNL     1       0.918   7.920  21.029  0.00  0.00    +0.000 N 
ATOM      8  C   UNL     1       1.684   7.322  20.062  0.00  0.00    +0.000 C 
ATOM      9  O   UNL     1       2.253   7.997  19.220  0.00  0.00    +0.000 OA
ATOM     10  H   UNL     1       0.529   7.340  21.779  0.00  0.00    +0.000 HD
BRANCH   7  15
ATOM     11  C   UNL     1      -0.693  11.066  22.245  0.00  0.00    +0.000 A 
ATOM     12  C   UNL     1      -0.132  12.026  21.393  0.00  0.00    +0.000 A 
ATOM     13  C   UNL     1       0.778  11.644  20.410  0.00  0.00    +0.000 A 
ATOM     14  C   UNL     1       1.147  10.309  20.273  0.00  0.00    +0.000 A 
ATOM     15  C   UNL     1       0.609   9.320  21.129  0.00  0.00    +0.000 A 
ATOM     16  C   UNL     1      -0.315   9.722  22.109  0.00  0.00    +0.000 A 
BRANCH  11  18
ATOM     17  C   UNL     1      -2.689  12.478  22.684  0.00  0.00    +0.000 C 
ATOM     18  C   UNL     1      -1.712  11.465  23.278  0.00  0.00    +0.000 C 
ENDBRANCH  11  18
ENDBRANCH   7  15
ENDBRANCH   1   8
BRANCH   5  19
ATOM     19  O   UNL     1       4.112   3.264  18.561  0.00  0.00    +0.000 OA
BRANCH  19  20
ATOM     20  C   UNL     1       5.158   3.942  18.023  0.00  0.00    +0.000 A 
ATOM     21  C   UNL     1       6.077   4.589  18.854  0.00  0.00    +0.000 A 
ATOM     22  C   UNL     1       7.146   5.298  18.285  0.00  0.00    +0.000 A 
ATOM     23  C   UNL     1       7.264   5.358  16.888  0.00  0.00    +0.000 A 
ATOM     24  C   UNL     1       6.320   4.706  16.081  0.00  0.00    +0.000 A 
ATOM     25  N   UNL     1       5.306   4.020  16.670  0.00  0.00    +0.000 NA
BRANCH  24  26
ATOM     26  C   UNL     1       6.383   4.749  14.579  0.00  0.00    +0.000 C 
ATOM     27  F   UNL     1       7.637   5.117  14.126  0.00  0.00    +0.000 F 
ATOM     28  F   UNL     1       6.076   3.500  14.071  0.00  0.00    +0.000 F 
ATOM     29  F   UNL     1       5.457   5.663  14.112  0.00  0.00    +0.000 F 
ENDBRANCH  24  26
BRANCH  22  30
ATOM     30  C   UNL     1       8.152   6.006  19.154  0.00  0.00    +0.000 C 
BRANCH  30  31
ATOM     31  N   UNL     1       8.068   5.529  20.532  0.00  0.00    +0.000 NA
ATOM     32  H   UNL     1       7.607   6.259  21.121  0.00  0.00    +0.000 HD
ATOM     33  H   UNL     1       9.039   5.388  20.894  0.00  0.00    +0.000 HD
ENDBRANCH  30  31
ENDBRANCH  22  30
ENDBRANCH  19  20
ENDBRANCH   5  19
TORSDOF 8
ENDMDL
MODEL 7
REMARK VINA RESULT:      -8.0      3.744      5.726
REMARK  Name = 
REMARK  9 active torsions:
REMARK  status: ('A' for Active; 'I' for Inactive)
REMARK    1  A    between atoms: C_1  and  C_2
REMARK    2  A    between atoms: C_2  and  C_3
REMARK    3  A    between atoms: C_7  and  N_8
REMARK    4  A    between atoms: C_9  and  C_11
REMARK    5  A    between atoms: C_15  and  O_16
REMARK    6  A    between atoms: O_16  and  C_17
REMARK    7  A    between atoms: C_19  and  C_20
REMARK    8  A    between atoms: C_20  and  N_21
REMARK    9  A    between atoms: C_23  and  C_24
REMARK                            x       y       z     vdW  Elec       q    Type
REMARK                         _______ _______ _______ _____ _____    ______ ____
ROOT
ATOM      1  C   UNL     1       1.490   8.622  19.949  0.00  0.00    +0.000 A 
ATOM      2  C   UNL     1       1.385   8.268  21.308  0.00  0.00    +0.000 A 
ATOM      3  C   UNL     1       0.696   9.081  22.209  0.00  0.00    +0.000 A 
ATOM      4  C   UNL     1       0.093  10.260  21.771  0.00  0.00    +0.000 A 
ATOM      5  C   UNL     1       0.161  10.627  20.424  0.00  0.00    +0.000 A 
ATOM      6  C   UNL     1       0.865   9.811  19.520  0.00  0.00    +0.000 A 
ENDROOT
BRANCH   1   8
ATOM      7  N   UNL     1       2.689   6.480  19.398  0.00  0.00    +0.000 N 
ATOM      8  C   UNL     1       2.236   7.716  19.015  0.00  0.00    +0.000 C 
ATOM      9  O   UNL     1       2.410   8.111  17.873  0.00  0.00    +0.000 OA
ATOM     10  H   UNL     1       2.448   6.134  20.332  0.00  0.00    +0.000 HD
BRANCH   7  15
ATOM     11  C   UNL     1       5.699   4.879  17.866  0.00  0.00    +0.000 A 
ATOM     12  C   UNL     1       5.120   3.898  17.050  0.00  0.00    +0.000 A 
ATOM     13  C   UNL     1       3.735   3.759  16.996  0.00  0.00    +0.000 A 
ATOM     14  C   UNL     1       2.915   4.584  17.759  0.00  0.00    +0.000 A 
ATOM     15  C   UNL     1       3.471   5.573  18.604  0.00  0.00    +0.000 A 
ATOM     16  C   UNL     1       4.870   5.705  18.639  0.00  0.00    +0.000 A 
BRANCH  11  18
ATOM     17  C   UNL     1       7.530   6.536  18.129  0.00  0.00    +0.000 C 
ATOM     18  C   UNL     1       7.192   5.065  17.894  0.00  0.00    +0.000 C 
ENDBRANCH  11  18
ENDBRANCH   7  15
ENDBRANCH   1   8
BRANCH   5  19
ATOM     19  O   UNL     1      -0.442  11.772  20.009  0.00  0.00    +0.000 OA
BRANCH  19  20
ATOM     20  C   UNL     1      -1.687  11.834  19.473  0.00  0.00    +0.000 A 
ATOM     21  C   UNL     1      -2.729  12.436  20.185  0.00  0.00    +0.000 A 
ATOM     22  C   UNL     1      -4.015  12.480  19.625  0.00  0.00    +0.000 A 
ATOM     23  C   UNL     1      -4.236  11.905  18.364  0.00  0.00    +0.000 A 
ATOM     24  C   UNL     1      -3.171  11.301  17.679  0.00  0.00    +0.000 A 
ATOM     25  N   UNL     1      -1.938  11.289  18.250  0.00  0.00    +0.000 NA
BRANCH  24  26
ATOM     26  C   UNL     1      -3.348  10.653  16.333  0.00  0.00    +0.000 C 
ATOM     27  F   UNL     1      -4.628  10.833  15.839  0.00  0.00    +0.000 F 
ATOM     28  F   UNL     1      -2.445  11.197  15.439  0.00  0.00    +0.000 F 
ATOM     29  F   UNL     1      -3.105   9.297  16.448  0.00  0.00    +0.000 F 
ENDBRANCH  24  26
BRANCH  22  30
ATOM     30  C   UNL     1      -5.159  13.121  20.367  0.00  0.00    +0.000 C 
BRANCH  30  31
ATOM     31  N   UNL     1      -5.275  14.533  20.012  0.00  0.00    +0.000 NA
ATOM     32  H   UNL     1      -5.803  15.034  20.763  0.00  0.00    +0.000 HD
ATOM     33  H   UNL     1      -5.826  14.608  19.126  0.00  0.00    +0.000 HD
ENDBRANCH  30  31
ENDBRANCH  22  30
ENDBRANCH  19  20
ENDBRANCH   5  19
TORSDOF 8
ENDMDL
MODEL 8
REMARK VINA RESULT:      -8.0      4.675      6.851
REMARK  Name = 
REMARK  9 active torsions:
REMARK  status: ('A' for Active; 'I' for Inactive)
REMARK    1  A    between atoms: C_1  and  C_2
REMARK    2  A    between atoms: C_2  and  C_3
REMARK    3  A    between atoms: C_7  and  N_8
REMARK    4  A    between atoms: C_9  and  C_11
REMARK    5  A    between atoms: C_15  and  O_16
REMARK    6  A    between atoms: O_16  and  C_17
REMARK    7  A    between atoms: C_19  and  C_20
REMARK    8  A    between atoms: C_20  and  N_21
REMARK    9  A    between atoms: C_23  and  C_24
REMARK                            x       y       z     vdW  Elec       q    Type
REMARK                         _______ _______ _______ _____ _____    ______ ____
ROOT
ATOM      1  C   UNL     1       0.960   9.487  19.362  0.00  0.00    +0.000 A 
ATOM      2  C   UNL     1       1.173   9.509  20.754  0.00  0.00    +0.000 A 
ATOM      3  C   UNL     1       0.456  10.380  21.576  0.00  0.00    +0.000 A 
ATOM      4  C   UNL     1      -0.492  11.243  21.025  0.00  0.00    +0.000 A 
ATOM      5  C   UNL     1      -0.741  11.230  19.650  0.00  0.00    +0.000 A 
ATOM      6  C   UNL     1      -0.009  10.358  18.823  0.00  0.00    +0.000 A 
ENDROOT
BRANCH   1   8
ATOM      7  N   UNL     1       2.139   7.299  18.976  0.00  0.00    +0.000 N 
ATOM      8  C   UNL     1       1.749   8.531  18.518  0.00  0.00    +0.000 C 
ATOM      9  O   UNL     1       2.020   8.881  17.381  0.00  0.00    +0.000 OA
ATOM     10  H   UNL     1       1.819   6.992  19.900  0.00  0.00    +0.000 HD
BRANCH   7  15
ATOM     11  C   UNL     1       3.206   4.045  17.478  0.00  0.00    +0.000 A 
ATOM     12  C   UNL     1       4.473   4.363  16.970  0.00  0.00    +0.000 A 
ATOM     13  C   UNL     1       4.986   5.649  17.121  0.00  0.00    +0.000 A 
ATOM     14  C   UNL     1       4.242   6.633  17.766  0.00  0.00    +0.000 A 
ATOM     15  C   UNL     1       2.953   6.346  18.274  0.00  0.00    +0.000 A 
ATOM     16  C   UNL     1       2.456   5.040  18.122  0.00  0.00    +0.000 A 
BRANCH  11  18
ATOM     17  C   UNL     1       3.465   1.700  18.254  0.00  0.00    +0.000 C 
ATOM     18  C   UNL     1       2.666   2.646  17.360  0.00  0.00    +0.000 C 
ENDBRANCH  11  18
ENDBRANCH   7  15
ENDBRANCH   1   8
BRANCH   5  19
ATOM     19  O   UNL     1      -1.676  12.068  19.130  0.00  0.00    +0.000 OA
BRANCH  19  20
ATOM     20  C   UNL     1      -2.655  11.688  18.270  0.00  0.00    +0.000 A 
ATOM     21  C   UNL     1      -2.329  11.246  16.986  0.00  0.00    +0.000 A 
ATOM     22  C   UNL     1      -3.352  10.870  16.102  0.00  0.00    +0.000 A 
ATOM     23  C   UNL     1      -4.689  10.961  16.520  0.00  0.00    +0.000 A 
ATOM     24  C   UNL     1      -4.983  11.418  17.813  0.00  0.00    +0.000 A 
ATOM     25  N   UNL     1      -3.964  11.761  18.642  0.00  0.00    +0.000 NA
BRANCH  24  26
ATOM     26  C   UNL     1      -6.396  11.554  18.312  0.00  0.00    +0.000 C 
ATOM     27  F   UNL     1      -7.152  12.380  17.500  0.00  0.00    +0.000 F 
ATOM     28  F   UNL     1      -6.990  10.306  18.353  0.00  0.00    +0.000 F 
ATOM     29  F   UNL     1      -6.377  12.084  19.588  0.00  0.00    +0.000 F 
ENDBRANCH  24  26
BRANCH  22  30
ATOM     30  C   UNL     1      -3.033  10.389  14.710  0.00  0.00    +0.000 C 
BRANCH  30  31
ATOM     31  N   UNL     1      -4.248   9.963  14.022  0.00  0.00    +0.000 NA
ATOM     32  H   UNL     1      -4.940   9.619  14.725  0.00  0.00    +0.000 HD
ATOM     33  H   UNL     1      -4.009   9.166  13.388  0.00  0.00    +0.000 HD
ENDBRANCH  30  31
ENDBRANCH  22  30
ENDBRANCH  19  20
ENDBRANCH   5  19
TORSDOF 8
ENDMDL
MODEL 9
REMARK VINA RESULT:      -8.0      2.913      8.617
REMARK  Name = 
REMARK  9 active torsions:
REMARK  status: ('A' for Active; 'I' for Inactive)
REMARK    1  A    between atoms: C_1  and  C_2
REMARK    2  A    between atoms: C_2  and  C_3
REMARK    3  A    between atoms: C_7  and  N_8
REMARK    4  A    between atoms: C_9  and  C_11
REMARK    5  A    between atoms: C_15  and  O_16
REMARK    6  A    between atoms: O_16  and  C_17
REMARK    7  A    between atoms: C_19  and  C_20
REMARK    8  A    between atoms: C_20  and  N_21
REMARK    9  A    between atoms: C_23  and  C_24
REMARK                            x       y       z     vdW  Elec       q    Type
REMARK                         _______ _______ _______ _____ _____    ______ ____
ROOT
ATOM      1  C   UNL     1       2.237   5.937  20.136  0.00  0.00    +0.000 A 
ATOM      2  C   UNL     1       1.469   5.038  20.900  0.00  0.00    +0.000 A 
ATOM      3  C   UNL     1       1.816   3.688  20.981  0.00  0.00    +0.000 A 
ATOM      4  C   UNL     1       2.941   3.211  20.308  0.00  0.00    +0.000 A 
ATOM      5  C   UNL     1       3.736   4.083  19.560  0.00  0.00    +0.000 A 
ATOM      6  C   UNL     1       3.377   5.441  19.470  0.00  0.00    +0.000 A 
ENDROOT
BRANCH   1   8
ATOM      7  N   UNL     1       1.012   7.947  21.023  0.00  0.00    +0.000 N 
ATOM      8  C   UNL     1       1.830   7.380  20.081  0.00  0.00    +0.000 C 
ATOM      9  O   UNL     1       2.278   8.052  19.165  0.00  0.00    +0.000 OA
ATOM     10  H   UNL     1       0.727   7.385  21.831  0.00  0.00    +0.000 HD
BRANCH   7  15
ATOM     11  C   UNL     1      -0.838  10.991  22.154  0.00  0.00    +0.000 A 
ATOM     12  C   UNL     1      -0.587  11.887  21.107  0.00  0.00    +0.000 A 
ATOM     13  C   UNL     1       0.190  11.495  20.020  0.00  0.00    +0.000 A 
ATOM     14  C   UNL     1       0.733  10.214  19.968  0.00  0.00    +0.000 A 
ATOM     15  C   UNL     1       0.510   9.293  21.018  0.00  0.00    +0.000 A 
ATOM     16  C   UNL     1      -0.284   9.703  22.103  0.00  0.00    +0.000 A 
BRANCH  11  18
ATOM     17  C   UNL     1      -2.281  12.792  23.073  0.00  0.00    +0.000 C 
ATOM     18  C   UNL     1      -1.715  11.393  23.309  0.00  0.00    +0.000 C 
ENDBRANCH  11  18
ENDBRANCH   7  15
ENDBRANCH   1   8
BRANCH   5  19
ATOM     19  O   UNL     1       4.835   3.606  18.919  0.00  0.00    +0.000 OA
BRANCH  19  20
ATOM     20  C   UNL     1       5.620   4.340  18.090  0.00  0.00    +0.000 A 
ATOM     21  C   UNL     1       6.417   5.366  18.604  0.00  0.00    +0.000 A 
ATOM     22  C   UNL     1       7.214   6.127  17.734  0.00  0.00    +0.000 A 
ATOM     23  C   UNL     1       7.183   5.852  16.358  0.00  0.00    +0.000 A 
ATOM     24  C   UNL     1       6.366   4.820  15.873  0.00  0.00    +0.000 A 
ATOM     25  N   UNL     1       5.619   4.099  16.748  0.00  0.00    +0.000 NA
BRANCH  24  26
ATOM     26  C   UNL     1       6.277   4.490  14.408  0.00  0.00    +0.000 C 
ATOM     27  F   UNL     1       5.027   4.777  13.889  0.00  0.00    +0.000 F 
ATOM     28  F   UNL     1       7.225   5.220  13.715  0.00  0.00    +0.000 F 
ATOM     29  F   UNL     1       6.531   3.143  14.231  0.00  0.00    +0.000 F 
ENDBRANCH  24  26
BRANCH  22  30
ATOM     30  C   UNL     1       8.083   7.240  18.257  0.00  0.00    +0.000 C 
BRANCH  30  31
ATOM     31  N   UNL     1       7.883   8.459  17.477  0.00  0.00    +0.000 NA
ATOM     32  H   UNL     1       7.862   8.217  16.460  0.00  0.00    +0.000 HD
ATOM     33  H   UNL     1       8.697   9.095  17.640  0.00  0.00    +0.000 HD
ENDBRANCH  30  31
ENDBRANCH  22  30
ENDBRANCH  19  20
ENDBRANCH   5  19
TORSDOF 8
ENDMDL
