MODEL 1
REMARK VINA RESULT:      -6.4      0.000      0.000
REMARK  Name = 
REMARK  12 active torsions:
REMARK  status: ('A' for Active; 'I' for Inactive)
REMARK    1  A    between atoms: C_1  and  C_2
REMARK    2  A    between atoms: C_2  and  C_3
REMARK    3  A    between atoms: C_4  and  C_5
REMARK    4  A    between atoms: C_5  and  O_7
REMARK    5  A    between atoms: O_7  and  C_8
REMARK    6  A    between atoms: C_15  and  C_16
REMARK    7  A    between atoms: C_17  and  O_18
REMARK    8  A    between atoms: C_19  and  O_20
REMARK    9  A    between atoms: C_25  and  C_26
REMARK   10  A    between atoms: C_28  and  C_29
REMARK   11  A    between atoms: C_31  and  O_32
REMARK   12  A    between atoms: C_33  and  O_34
REMARK                            x       y       z     vdW  Elec       q    Type
REMARK                         _______ _______ _______ _____ _____    ______ ____
ROOT
ATOM      1  C   UNL     1       9.715  15.823  21.597  0.00  0.00    +0.000 C 
ATOM      2  C   UNL     1      10.900  15.708  20.181  0.00  0.00    +0.000 C 
ATOM      3  O   UNL     1      12.084  16.362  19.709  0.00  0.00    +0.000 OA
ATOM      4  C   UNL     1      12.094  16.493  18.295  0.00  0.00    +0.000 C 
ATOM      5  O   UNL     1      12.305  17.591  17.763  0.00  0.00    +0.000 OA
ATOM      6  C   UNL     1      11.727  15.210  17.385  0.00  0.00    +0.000 C 
ATOM      7  C   UNL     1      10.476  14.509  17.916  0.00  0.00    +0.000 C 
ATOM      8  C   UNL     1       9.475  13.072  17.396  0.00  0.00    +0.000 C 
ATOM      9  C   UNL     1       7.914  12.424  17.424  0.00  0.00    +0.000 C 
ATOM     10  C   UNL     1      10.121  11.908  18.099  0.00  0.00    +0.000 C 
ATOM     11  C   UNL     1      10.021  12.311  19.602  0.00  0.00    +0.000 C 
ATOM     12  O   UNL     1      11.361  12.213  20.135  0.00  0.00    +0.000 OA
ATOM     13  C   UNL     1      12.001  13.427  19.722  0.00  0.00    +0.000 C 
ATOM     14  C   UNL     1      10.842  14.399  19.425  0.00  0.00    +0.000 C 
ATOM     15  C   UNL     1       9.631  13.817  19.934  0.00  0.00    +0.000 C 
ATOM     16  C   UNL     1       8.379  15.145  19.588  0.00  0.00    +0.000 C 
ATOM     17  C   UNL     1       8.453  16.914  19.595  0.00  0.00    +0.000 C 
ATOM     18  C   UNL     1       8.090  15.119  21.070  0.00  0.00    +0.000 C 
ATOM     19  C   UNL     1       6.547  14.954  21.143  0.00  0.00    +0.000 C 
ATOM     20  C   UNL     1       6.018  14.077  22.261  0.00  0.00    +0.000 C 
ATOM     21  C   UNL     1       5.676  15.015  20.099  0.00  0.00    +0.000 C 
ATOM     22  C   UNL     1       5.914  15.331  18.664  0.00  0.00    +0.000 C 
ATOM     23  C   UNL     1       7.378  15.328  18.290  0.00  0.00    +0.000 C 
ENDROOT
BRANCH  10  24
ATOM     24  O   UNL     1      11.362  11.783  17.426  0.00  0.00    +0.000 OA
ATOM     25  H   UNL     1      11.189  12.117  16.521  0.00  0.00    +0.000 HD
ENDBRANCH  10  24
BRANCH  11  26
ATOM     26  O   UNL     1       9.214  11.424  20.344  0.00  0.00    +0.000 OA
ATOM     27  H   UNL     1       9.162  10.627  19.786  0.00  0.00    +0.000 HD
ENDBRANCH  11  26
BRANCH  22  28
ATOM     28  O   UNL     1       5.258  14.376  17.810  0.00  0.00    +0.000 OA
ATOM     29  H   UNL     1       5.571  13.500  18.144  0.00  0.00    +0.000 HD
ENDBRANCH  22  28
BRANCH  23  30
ATOM     30  O   UNL     1       7.583  14.849  16.954  0.00  0.00    +0.000 OA
ATOM     31  H   UNL     1       7.888  13.911  16.980  0.00  0.00    +0.000 HD
ENDBRANCH  23  30
BRANCH   1  32
ATOM     32  O   UNL     1      10.177  15.212  22.831  0.00  0.00    +0.000 OA
BRANCH  32  33
ATOM     33  C   UNL     1      10.068  16.013  23.891  0.00  0.00    +0.000 C 
ATOM     34  O   UNL     1      10.999  16.763  24.300  0.00  0.00    +0.000 OA
BRANCH  33  38
ATOM     35  C   UNL     1       6.657  15.544  25.773  0.00  0.00    +0.000 C 
ATOM     36  C   UNL     1       7.999  15.163  25.187  0.00  0.00    +0.000 C 
ATOM     37  C   UNL     1       8.411  13.730  25.385  0.00  0.00    +0.000 C 
ATOM     38  C   UNL     1       8.737  16.096  24.565  0.00  0.00    +0.000 C 
ENDBRANCH  33  38
ENDBRANCH  32  33
ENDBRANCH   1  32
TORSDOF 7
ENDMDL
MODEL 2
REMARK VINA RESULT:      -6.3      7.128     10.270
REMARK  Name = 
REMARK  12 active torsions:
REMARK  status: ('A' for Active; 'I' for Inactive)
REMARK    1  A    between atoms: C_1  and  C_2
REMARK    2  A    between atoms: C_2  and  C_3
REMARK    3  A    between atoms: C_4  and  C_5
REMARK    4  A    between atoms: C_5  and  O_7
REMARK    5  A    between atoms: O_7  and  C_8
REMARK    6  A    between atoms: C_15  and  C_16
REMARK    7  A    between atoms: C_17  and  O_18
REMARK    8  A    between atoms: C_19  and  O_20
REMARK    9  A    between atoms: C_25  and  C_26
REMARK   10  A    between atoms: C_28  and  C_29
REMARK   11  A    between atoms: C_31  and  O_32
REMARK   12  A    between atoms: C_33  and  O_34
REMARK                            x       y       z     vdW  Elec       q    Type
REMARK                         _______ _______ _______ _____ _____    ______ ____
ROOT
ATOM      1  C   UNL     1      -1.313  14.283  22.482  0.00  0.00    +0.000 C 
ATOM      2  C   UNL     1      -0.900  15.637  21.292  0.00  0.00    +0.000 C 
ATOM      3  O   UNL     1      -1.350  16.955  20.959  0.00  0.00    +0.000 OA
ATOM      4  C   UNL     1      -1.320  17.192  19.558  0.00  0.00    +0.000 C 
ATOM      5  O   UNL     1      -2.319  17.626  18.969  0.00  0.00    +0.000 OA
ATOM      6  C   UNL     1       0.003  16.793  18.723  0.00  0.00    +0.000 C 
ATOM      7  C   UNL     1       0.487  15.394  19.108  0.00  0.00    +0.000 C 
ATOM      8  C   UNL     1       1.842  14.296  18.568  0.00  0.00    +0.000 C 
ATOM      9  C   UNL     1       2.292  12.675  18.403  0.00  0.00    +0.000 C 
ATOM     10  C   UNL     1       2.990  14.667  19.470  0.00  0.00    +0.000 C 
ATOM     11  C   UNL     1       2.412  14.402  20.894  0.00  0.00    +0.000 C 
ATOM     12  O   UNL     1       2.609  15.622  21.642  0.00  0.00    +0.000 OA
ATOM     13  C   UNL     1       1.534  16.475  21.228  0.00  0.00    +0.000 C 
ATOM     14  C   UNL     1       0.470  15.515  20.660  0.00  0.00    +0.000 C 
ATOM     15  C   UNL     1       0.842  14.175  21.019  0.00  0.00    +0.000 C 
ATOM     16  C   UNL     1      -0.579  13.179  20.355  0.00  0.00    +0.000 C 
ATOM     17  C   UNL     1      -2.315  13.489  20.211  0.00  0.00    +0.000 C 
ATOM     18  C   UNL     1      -0.753  12.673  21.767  0.00  0.00    +0.000 C 
ATOM     19  C   UNL     1      -0.782  11.128  21.605  0.00  0.00    +0.000 C 
ATOM     20  C   UNL     1      -0.106  10.326  22.700  0.00  0.00    +0.000 C 
ATOM     21  C   UNL     1      -0.830  10.437  20.434  0.00  0.00    +0.000 C 
ATOM     22  C   UNL     1      -0.953  10.925  19.033  0.00  0.00    +0.000 C 
ATOM     23  C   UNL     1      -0.733  12.415  18.901  0.00  0.00    +0.000 C 
ENDROOT
BRANCH  10  24
ATOM     24  O   UNL     1       3.336  15.966  19.020  0.00  0.00    +0.000 OA
ATOM     25  H   UNL     1       2.830  16.085  18.189  0.00  0.00    +0.000 HD
ENDBRANCH  10  24
BRANCH  11  26
ATOM     26  O   UNL     1       3.107  13.381  21.575  0.00  0.00    +0.000 OA
ATOM     27  H   UNL     1       2.540  13.179  22.341  0.00  0.00    +0.000 HD
ENDBRANCH  11  26
BRANCH  22  28
ATOM     28  O   UNL     1       0.006  10.280  18.176  0.00  0.00    +0.000 OA
ATOM     29  H   UNL     1       0.002   9.338  18.475  0.00  0.00    +0.000 HD
ENDBRANCH  22  28
BRANCH  23  30
ATOM     30  O   UNL     1      -0.087  12.748  17.666  0.00  0.00    +0.000 OA
ATOM     31  H   UNL     1      -0.202  12.009  17.020  0.00  0.00    +0.000 HD
ENDBRANCH  23  30
BRANCH   1  32
ATOM     32  O   UNL     1      -0.793  14.470  23.825  0.00  0.00    +0.000 OA
BRANCH  32  33
ATOM     33  C   UNL     1      -1.715  14.877  24.697  0.00  0.00    +0.000 C 
ATOM     34  O   UNL     1      -1.449  15.256  25.872  0.00  0.00    +0.000 OA
BRANCH  33  38
ATOM     35  C   UNL     1      -5.455  14.462  23.581  0.00  0.00    +0.000 C 
ATOM     36  C   UNL     1      -4.104  14.063  24.132  0.00  0.00    +0.000 C 
ATOM     37  C   UNL     1      -3.981  12.631  24.575  0.00  0.00    +0.000 C 
ATOM     38  C   UNL     1      -3.127  14.980  24.218  0.00  0.00    +0.000 C 
ENDBRANCH  33  38
ENDBRANCH  32  33
ENDBRANCH   1  32
TORSDOF 7
ENDMDL
MODEL 3
REMARK VINA RESULT:      -6.3      8.015     11.623
REMARK  Name = 
REMARK  12 active torsions:
REMARK  status: ('A' for Active; 'I' for Inactive)
REMARK    1  A    between atoms: C_1  and  C_2
REMARK    2  A    between atoms: C_2  and  C_3
REMARK    3  A    between atoms: C_4  and  C_5
REMARK    4  A    between atoms: C_5  and  O_7
REMARK    5  A    between atoms: O_7  and  C_8
REMARK    6  A    between atoms: C_15  and  C_16
REMARK    7  A    between atoms: C_17  and  O_18
REMARK    8  A    between atoms: C_19  and  O_20
REMARK    9  A    between atoms: C_25  and  C_26
REMARK   10  A    between atoms: C_28  and  C_29
REMARK   11  A    between atoms: C_31  and  O_32
REMARK   12  A    between atoms: C_33  and  O_34
REMARK                            x       y       z     vdW  Elec       q    Type
REMARK                         _______ _______ _______ _____ _____    ______ ____
ROOT
ATOM      1  C   UNL     1      -2.789  12.897  21.777  0.00  0.00    +0.000 C 
ATOM      2  C   UNL     1      -1.559  11.515  21.776  0.00  0.00    +0.000 C 
ATOM      3  O   UNL     1      -1.369  10.240  22.399  0.00  0.00    +0.000 OA
ATOM      4  C   UNL     1      -0.007  10.004  22.729  0.00  0.00    +0.000 C 
ATOM      5  O   UNL     1       0.315   9.656  23.872  0.00  0.00    +0.000 OA
ATOM      6  C   UNL     1       1.130  10.293  21.620  0.00  0.00    +0.000 C 
ATOM      7  C   UNL     1       0.899  11.647  20.946  0.00  0.00    +0.000 C 
ATOM      8  C   UNL     1       1.772  12.629  19.677  0.00  0.00    +0.000 C 
ATOM      9  C   UNL     1       2.070  14.208  19.151  0.00  0.00    +0.000 C 
ATOM     10  C   UNL     1       1.167  12.162  18.380  0.00  0.00    +0.000 C 
ATOM     11  C   UNL     1      -0.349  12.472  18.571  0.00  0.00    +0.000 C 
ATOM     12  O   UNL     1      -1.050  11.238  18.298  0.00  0.00    +0.000 OA
ATOM     13  C   UNL     1      -0.923  10.478  19.507  0.00  0.00    +0.000 C 
ATOM     14  C   UNL     1      -0.612  11.525  20.595  0.00  0.00    +0.000 C 
ATOM     15  C   UNL     1      -0.846  12.829  20.039  0.00  0.00    +0.000 C 
ATOM     16  C   UNL     1      -0.528  13.940  21.494  0.00  0.00    +0.000 C 
ATOM     17  C   UNL     1      -0.814  13.775  23.233  0.00  0.00    +0.000 C 
ATOM     18  C   UNL     1      -1.930  14.456  21.279  0.00  0.00    +0.000 C 
ATOM     19  C   UNL     1      -1.752  15.998  21.221  0.00  0.00    +0.000 C 
ATOM     20  C   UNL     1      -2.636  16.740  20.237  0.00  0.00    +0.000 C 
ATOM     21  C   UNL     1      -0.615  16.693  21.495  0.00  0.00    +0.000 C 
ATOM     22  C   UNL     1       0.705  16.220  21.994  0.00  0.00    +0.000 C 
ATOM     23  C   UNL     1       0.859  14.717  21.933  0.00  0.00    +0.000 C 
ENDROOT
BRANCH  10  24
ATOM     24  O   UNL     1       1.664  10.841  18.259  0.00  0.00    +0.000 OA
ATOM     25  H   UNL     1       2.440  10.811  18.856  0.00  0.00    +0.000 HD
ENDBRANCH  10  24
BRANCH  11  26
ATOM     26  O   UNL     1      -0.823  13.430  17.651  0.00  0.00    +0.000 OA
ATOM     27  H   UNL     1      -0.762  14.274  18.135  0.00  0.00    +0.000 HD
ENDBRANCH  11  26
BRANCH  22  28
ATOM     28  O   UNL     1       1.781  16.785  21.222  0.00  0.00    +0.000 OA
ATOM     29  H   UNL     1       1.523  16.609  20.284  0.00  0.00    +0.000 HD
ENDBRANCH  22  28
BRANCH  23  30
ATOM     30  O   UNL     1       2.208  14.334  21.636  0.00  0.00    +0.000 OA
ATOM     31  H   UNL     1       2.216  13.440  21.217  0.00  0.00    +0.000 HD
ENDBRANCH  23  30
BRANCH   1  32
ATOM     32  O   UNL     1      -3.969  12.665  20.963  0.00  0.00    +0.000 OA
BRANCH  32  33
ATOM     33  C   UNL     1      -5.108  12.729  21.654  0.00  0.00    +0.000 C 
ATOM     34  O   UNL     1      -6.064  11.917  21.504  0.00  0.00    +0.000 OA
BRANCH  33  38
ATOM     35  C   UNL     1      -5.567  15.872  23.959  0.00  0.00    +0.000 C 
ATOM     36  C   UNL     1      -5.573  15.054  22.686  0.00  0.00    +0.000 C 
ATOM     37  C   UNL     1      -6.026  15.780  21.450  0.00  0.00    +0.000 C 
ATOM     38  C   UNL     1      -5.211  13.761  22.729  0.00  0.00    +0.000 C 
ENDBRANCH  33  38
ENDBRANCH  32  33
ENDBRANCH   1  32
TORSDOF 7
ENDMDL
MODEL 4
REMARK VINA RESULT:      -6.1      8.137     12.234
REMARK  Name = 
REMARK  12 active torsions:
REMARK  status: ('A' for Active; 'I' for Inactive)
REMARK    1  A    between atoms: C_1  and  C_2
REMARK    2  A    between atoms: C_2  and  C_3
REMARK    3  A    between atoms: C_4  and  C_5
REMARK    4  A    between atoms: C_5  and  O_7
REMARK    5  A    between atoms: O_7  and  C_8
REMARK    6  A    between atoms: C_15  and  C_16
REMARK    7  A    between atoms: C_17  and  O_18
REMARK    8  A    between atoms: C_19  and  O_20
REMARK    9  A    between atoms: C_25  and  C_26
REMARK   10  A    between atoms: C_28  and  C_29
REMARK   11  A    between atoms: C_31  and  O_32
REMARK   12  A    between atoms: C_33  and  O_34
REMARK                            x       y       z     vdW  Elec       q    Type
REMARK                         _______ _______ _______ _____ _____    ______ ____
ROOT
ATOM      1  C   UNL     1      -1.188  12.409  20.121  0.00  0.00    +0.000 C 
ATOM      2  C   UNL     1       0.258  13.538  20.358  0.00  0.00    +0.000 C 
ATOM      3  O   UNL     1       1.682  13.515  20.202  0.00  0.00    +0.000 OA
ATOM      4  C   UNL     1       2.345  14.218  21.242  0.00  0.00    +0.000 C 
ATOM      5  O   UNL     1       3.263  13.686  21.881  0.00  0.00    +0.000 OA
ATOM      6  C   UNL     1       1.821  15.690  21.652  0.00  0.00    +0.000 C 
ATOM      7  C   UNL     1       0.298  15.705  21.791  0.00  0.00    +0.000 C 
ATOM      8  C   UNL     1      -0.950  16.954  22.258  0.00  0.00    +0.000 C 
ATOM      9  C   UNL     1      -2.474  17.152  22.961  0.00  0.00    +0.000 C 
ATOM     10  C   UNL     1      -1.313  17.607  20.951  0.00  0.00    +0.000 C 
ATOM     11  C   UNL     1      -1.823  16.409  20.093  0.00  0.00    +0.000 C 
ATOM     12  O   UNL     1      -1.065  16.443  18.863  0.00  0.00    +0.000 OA
ATOM     13  C   UNL     1       0.188  15.835  19.197  0.00  0.00    +0.000 C 
ATOM     14  C   UNL     1      -0.106  15.003  20.462  0.00  0.00    +0.000 C 
ATOM     15  C   UNL     1      -1.530  14.942  20.634  0.00  0.00    +0.000 C 
ATOM     16  C   UNL     1      -1.702  13.836  22.116  0.00  0.00    +0.000 C 
ATOM     17  C   UNL     1      -0.790  12.435  22.697  0.00  0.00    +0.000 C 
ATOM     18  C   UNL     1      -2.557  12.956  21.236  0.00  0.00    +0.000 C 
ATOM     19  C   UNL     1      -3.852  12.747  22.068  0.00  0.00    +0.000 C 
ATOM     20  C   UNL     1      -5.152  12.707  21.288  0.00  0.00    +0.000 C 
ATOM     21  C   UNL     1      -4.054  13.124  23.360  0.00  0.00    +0.000 C 
ATOM     22  C   UNL     1      -3.118  13.736  24.342  0.00  0.00    +0.000 C 
ATOM     23  C   UNL     1      -1.838  14.237  23.711  0.00  0.00    +0.000 C 
ENDROOT
BRANCH  10  24
ATOM     24  O   UNL     1      -0.139  18.331  20.625  0.00  0.00    +0.000 OA
ATOM     25  H   UNL     1       0.592  17.693  20.754  0.00  0.00    +0.000 HD
ENDBRANCH  10  24
BRANCH  11  26
ATOM     26  O   UNL     1      -3.184  16.537  19.745  0.00  0.00    +0.000 OA
ATOM     27  H   UNL     1      -3.297  15.919  19.001  0.00  0.00    +0.000 HD
ENDBRANCH  11  26
BRANCH  22  28
ATOM     28  O   UNL     1      -3.727  14.858  25.005  0.00  0.00    +0.000 OA
ATOM     29  H   UNL     1      -3.347  14.835  25.917  0.00  0.00    +0.000 HD
ENDBRANCH  22  28
BRANCH  23  30
ATOM     30  O   UNL     1      -1.355  15.420  24.360  0.00  0.00    +0.000 OA
ATOM     31  H   UNL     1      -0.477  15.237  24.773  0.00  0.00    +0.000 HD
ENDBRANCH  23  30
BRANCH   1  32
ATOM     32  O   UNL     1      -1.646  12.283  18.749  0.00  0.00    +0.000 OA
BRANCH  32  33
ATOM     33  C   UNL     1      -1.598  11.033  18.289  0.00  0.00    +0.000 C 
ATOM     34  O   UNL     1      -1.241  10.043  18.988  0.00  0.00    +0.000 OA
BRANCH  33  38
ATOM     35  C   UNL     1      -3.520  10.514  14.907  0.00  0.00    +0.000 C 
ATOM     36  C   UNL     1      -3.322  10.837  16.371  0.00  0.00    +0.000 C 
ATOM     37  C   UNL     1      -4.564  11.227  17.124  0.00  0.00    +0.000 C 
ATOM     38  C   UNL     1      -2.088  10.785  16.899  0.00  0.00    +0.000 C 
ENDBRANCH  33  38
ENDBRANCH  32  33
ENDBRANCH   1  32
TORSDOF 7
ENDMDL
MODEL 5
REMARK VINA RESULT:      -6.1      8.709     12.595
REMARK  Name = 
REMARK  12 active torsions:
REMARK  status: ('A' for Active; 'I' for Inactive)
REMARK    1  A    between atoms: C_1  and  C_2
REMARK    2  A    between atoms: C_2  and  C_3
REMARK    3  A    between atoms: C_4  and  C_5
REMARK    4  A    between atoms: C_5  and  O_7
REMARK    5  A    between atoms: O_7  and  C_8
REMARK    6  A    between atoms: C_15  and  C_16
REMARK    7  A    between atoms: C_17  and  O_18
REMARK    8  A    between atoms: C_19  and  O_20
REMARK    9  A    between atoms: C_25  and  C_26
REMARK   10  A    between atoms: C_28  and  C_29
REMARK   11  A    between atoms: C_31  and  O_32
REMARK   12  A    between atoms: C_33  and  O_34
REMARK                            x       y       z     vdW  Elec       q    Type
REMARK                         _______ _______ _______ _____ _____    ______ ____
ROOT
ATOM      1  C   UNL     1      -3.155  12.347  20.020  0.00  0.00    +0.000 C 
ATOM      2  C   UNL     1      -1.315  12.161  20.055  0.00  0.00    +0.000 C 
ATOM      3  O   UNL     1      -0.327  11.161  19.780  0.00  0.00    +0.000 OA
ATOM      4  C   UNL     1       0.746  11.201  20.710  0.00  0.00    +0.000 C 
ATOM      5  O   UNL     1       1.108  10.177  21.304  0.00  0.00    +0.000 OA
ATOM      6  C   UNL     1       1.428  12.623  21.060  0.00  0.00    +0.000 C 
ATOM      7  C   UNL     1       0.360  13.685  21.326  0.00  0.00    +0.000 C 
ATOM      8  C   UNL     1       0.376  15.446  21.810  0.00  0.00    +0.000 C 
ATOM      9  C   UNL     1      -0.505  16.638  22.624  0.00  0.00    +0.000 C 
ATOM     10  C   UNL     1       0.422  16.182  20.497  0.00  0.00    +0.000 C 
ATOM     11  C   UNL     1      -0.861  15.676  19.770  0.00  0.00    +0.000 C 
ATOM     12  O   UNL     1      -0.428  15.188  18.481  0.00  0.00    +0.000 OA
ATOM     13  C   UNL     1       0.089  13.878  18.748  0.00  0.00    +0.000 C 
ATOM     14  C   UNL     1      -0.557  13.470  20.088  0.00  0.00    +0.000 C 
ATOM     15  C   UNL     1      -1.602  14.410  20.383  0.00  0.00    +0.000 C 
ATOM     16  C   UNL     1      -2.325  13.716  21.948  0.00  0.00    +0.000 C 
ATOM     17  C   UNL     1      -2.572  12.068  22.545  0.00  0.00    +0.000 C 
ATOM     18  C   UNL     1      -3.639  13.680  21.206  0.00  0.00    +0.000 C 
ATOM     19  C   UNL     1      -4.622  14.417  22.157  0.00  0.00    +0.000 C 
ATOM     20  C   UNL     1      -5.667  15.293  21.494  0.00  0.00    +0.000 C 
ATOM     21  C   UNL     1      -4.367  14.818  23.432  0.00  0.00    +0.000 C 
ATOM     22  C   UNL     1      -3.167  14.604  24.287  0.00  0.00    +0.000 C 
ATOM     23  C   UNL     1      -1.974  14.086  23.517  0.00  0.00    +0.000 C 
ENDROOT
BRANCH  10  24
ATOM     24  O   UNL     1       1.727  15.896  20.023  0.00  0.00    +0.000 OA
ATOM     25  H   UNL     1       2.078  15.227  20.648  0.00  0.00    +0.000 HD
ENDBRANCH  10  24
BRANCH  11  26
ATOM     26  O   UNL     1      -1.787  16.713  19.531  0.00  0.00    +0.000 OA
ATOM     27  H   UNL     1      -1.319  17.311  18.919  0.00  0.00    +0.000 HD
ENDBRANCH  11  26
BRANCH  22  28
ATOM     28  O   UNL     1      -2.760  15.830  24.921  0.00  0.00    +0.000 OA
ATOM     29  H   UNL     1      -2.412  15.542  25.800  0.00  0.00    +0.000 HD
ENDBRANCH  22  28
BRANCH  23  30
ATOM     30  O   UNL     1      -0.742  14.600  24.039  0.00  0.00    +0.000 OA
ATOM     31  H   UNL     1      -0.508  15.439  23.574  0.00  0.00    +0.000 HD
ENDBRANCH  23  30
BRANCH   1  32
ATOM     32  O   UNL     1      -3.720  12.586  18.703  0.00  0.00    +0.000 OA
BRANCH  32  33
ATOM     33  C   UNL     1      -4.436  11.560  18.242  0.00  0.00    +0.000 C 
ATOM     34  O   UNL     1      -5.366  11.006  18.895  0.00  0.00    +0.000 OA
BRANCH  33  38
ATOM     35  C   UNL     1      -3.175  10.134  14.811  0.00  0.00    +0.000 C 
ATOM     36  C   UNL     1      -3.161  10.437  16.293  0.00  0.00    +0.000 C 
ATOM     37  C   UNL     1      -1.974   9.914  17.052  0.00  0.00    +0.000 C 
ATOM     38  C   UNL     1      -4.186  11.113  16.839  0.00  0.00    +0.000 C 
ENDBRANCH  33  38
ENDBRANCH  32  33
ENDBRANCH   1  32
TORSDOF 7
ENDMDL
MODEL 6
REMARK VINA RESULT:      -6.1     11.725     15.122
REMARK  Name = 
REMARK  12 active torsions:
REMARK  status: ('A' for Active; 'I' for Inactive)
REMARK    1  A    between atoms: C_1  and  C_2
REMARK    2  A    between atoms: C_2  and  C_3
REMARK    3  A    between atoms: C_4  and  C_5
REMARK    4  A    between atoms: C_5  and  O_7
REMARK    5  A    between atoms: O_7  and  C_8
REMARK    6  A    between atoms: C_15  and  C_16
REMARK    7  A    between atoms: C_17  and  O_18
REMARK    8  A    between atoms: C_19  and  O_20
REMARK    9  A    between atoms: C_25  and  C_26
REMARK   10  A    between atoms: C_28  and  C_29
REMARK   11  A    between atoms: C_31  and  O_32
REMARK   12  A    between atoms: C_33  and  O_34
REMARK                            x       y       z     vdW  Elec       q    Type
REMARK                         _______ _______ _______ _____ _____    ______ ____
ROOT
ATOM      1  C   UNL     1      -5.169  12.785  20.338  0.00  0.00    +0.000 C 
ATOM      2  C   UNL     1      -4.276  12.952  21.949  0.00  0.00    +0.000 C 
ATOM      3  O   UNL     1      -3.826  12.120  23.025  0.00  0.00    +0.000 OA
ATOM      4  C   UNL     1      -3.986  12.748  24.289  0.00  0.00    +0.000 C 
ATOM      5  O   UNL     1      -4.566  12.167  25.215  0.00  0.00    +0.000 OA
ATOM      6  C   UNL     1      -3.488  14.273  24.476  0.00  0.00    +0.000 C 
ATOM      7  C   UNL     1      -3.954  15.144  23.308  0.00  0.00    +0.000 C 
ATOM      8  C   UNL     1      -3.816  16.912  22.871  0.00  0.00    +0.000 C 
ATOM      9  C   UNL     1      -4.582  18.168  22.040  0.00  0.00    +0.000 C 
ATOM     10  C   UNL     1      -2.531  16.992  22.091  0.00  0.00    +0.000 C 
ATOM     11  C   UNL     1      -2.781  16.006  20.908  0.00  0.00    +0.000 C 
ATOM     12  O   UNL     1      -1.668  15.085  20.911  0.00  0.00    +0.000 OA
ATOM     13  C   UNL     1      -1.990  14.136  21.935  0.00  0.00    +0.000 C 
ATOM     14  C   UNL     1      -3.518  14.252  22.109  0.00  0.00    +0.000 C 
ATOM     15  C   UNL     1      -4.032  15.031  21.017  0.00  0.00    +0.000 C 
ATOM     16  C   UNL     1      -5.863  14.981  21.326  0.00  0.00    +0.000 C 
ATOM     17  C   UNL     1      -6.951  13.747  21.979  0.00  0.00    +0.000 C 
ATOM     18  C   UNL     1      -5.980  14.397  19.939  0.00  0.00    +0.000 C 
ATOM     19  C   UNL     1      -7.042  15.295  19.247  0.00  0.00    +0.000 C 
ATOM     20  C   UNL     1      -6.813  15.598  17.779  0.00  0.00    +0.000 C 
ATOM     21  C   UNL     1      -7.805  16.252  19.843  0.00  0.00    +0.000 C 
ATOM     22  C   UNL     1      -7.912  16.645  21.274  0.00  0.00    +0.000 C 
ATOM     23  C   UNL     1      -6.818  16.056  22.135  0.00  0.00    +0.000 C 
ENDROOT
BRANCH  10  24
ATOM     24  O   UNL     1      -1.546  16.757  23.082  0.00  0.00    +0.000 OA
ATOM     25  H   UNL     1      -0.833  17.397  22.882  0.00  0.00    +0.000 HD
ENDBRANCH  10  24
BRANCH  11  26
ATOM     26  O   UNL     1      -2.778  16.656  19.657  0.00  0.00    +0.000 OA
ATOM     27  H   UNL     1      -1.833  16.720  19.425  0.00  0.00    +0.000 HD
ENDBRANCH  11  26
BRANCH  22  28
ATOM     28  O   UNL     1      -7.842  18.074  21.424  0.00  0.00    +0.000 OA
ATOM     29  H   UNL     1      -6.915  18.299  21.166  0.00  0.00    +0.000 HD
ENDBRANCH  22  28
BRANCH  23  30
ATOM     30  O   UNL     1      -6.430  16.951  23.186  0.00  0.00    +0.000 OA
ATOM     31  H   UNL     1      -6.158  16.432  23.981  0.00  0.00    +0.000 HD
ENDBRANCH  23  30
BRANCH   1  32
ATOM     32  O   UNL     1      -4.351  12.320  19.232  0.00  0.00    +0.000 OA
BRANCH  32  33
ATOM     33  C   UNL     1      -4.953  11.398  18.480  0.00  0.00    +0.000 C 
ATOM     34  O   UNL     1      -5.984  10.764  18.843  0.00  0.00    +0.000 OA
BRANCH  33  38
ATOM     35  C   UNL     1      -3.030  10.538  15.169  0.00  0.00    +0.000 C 
ATOM     36  C   UNL     1      -3.303  10.601  16.656  0.00  0.00    +0.000 C 
ATOM     37  C   UNL     1      -2.263   9.962  17.535  0.00  0.00    +0.000 C 
ATOM     38  C   UNL     1      -4.431  11.180  17.097  0.00  0.00    +0.000 C 
ENDBRANCH  33  38
ENDBRANCH  32  33
ENDBRANCH   1  32
TORSDOF 7
ENDMDL
MODEL 7
REMARK VINA RESULT:      -6.0      7.200     10.100
REMARK  Name = 
REMARK  12 active torsions:
REMARK  status: ('A' for Active; 'I' for Inactive)
REMARK    1  A    between atoms: C_1  and  C_2
REMARK    2  A    between atoms: C_2  and  C_3
REMARK    3  A    between atoms: C_4  and  C_5
REMARK    4  A    between atoms: C_5  and  O_7
REMARK    5  A    between atoms: O_7  and  C_8
REMARK    6  A    between atoms: C_15  and  C_16
REMARK    7  A    between atoms: C_17  and  O_18
REMARK    8  A    between atoms: C_19  and  O_20
REMARK    9  A    between atoms: C_25  and  C_26
REMARK   10  A    between atoms: C_28  and  C_29
REMARK   11  A    between atoms: C_31  and  O_32
REMARK   12  A    between atoms: C_33  and  O_34
REMARK                            x       y       z     vdW  Elec       q    Type
REMARK                         _______ _______ _______ _____ _____    ______ ____
ROOT
ATOM      1  C   UNL     1      -1.443  14.071  22.581  0.00  0.00    +0.000 C 
ATOM      2  C   UNL     1      -1.115  15.506  21.460  0.00  0.00    +0.000 C 
ATOM      3  O   UNL     1      -1.646  16.809  21.192  0.00  0.00    +0.000 OA
ATOM      4  C   UNL     1      -1.631  17.117  19.806  0.00  0.00    +0.000 C 
ATOM      5  O   UNL     1      -2.655  17.517  19.236  0.00  0.00    +0.000 OA
ATOM      6  C   UNL     1      -0.286  16.842  18.955  0.00  0.00    +0.000 C 
ATOM      7  C   UNL     1       0.282  15.457  19.271  0.00  0.00    +0.000 C 
ATOM      8  C   UNL     1       1.702  14.473  18.680  0.00  0.00    +0.000 C 
ATOM      9  C   UNL     1       2.251  12.893  18.436  0.00  0.00    +0.000 C 
ATOM     10  C   UNL     1       2.825  14.868  19.602  0.00  0.00    +0.000 C 
ATOM     11  C   UNL     1       2.266  14.497  21.009  0.00  0.00    +0.000 C 
ATOM     12  O   UNL     1       2.388  15.689  21.818  0.00  0.00    +0.000 OA
ATOM     13  C   UNL     1       1.263  16.493  21.444  0.00  0.00    +0.000 C 
ATOM     14  C   UNL     1       0.259  15.499  20.827  0.00  0.00    +0.000 C 
ATOM     15  C   UNL     1       0.713  14.168  21.119  0.00  0.00    +0.000 C 
ATOM     16  C   UNL     1      -0.645  13.122  20.403  0.00  0.00    +0.000 C 
ATOM     17  C   UNL     1      -2.397  13.332  20.271  0.00  0.00    +0.000 C 
ATOM     18  C   UNL     1      -0.786  12.536  21.788  0.00  0.00    +0.000 C 
ATOM     19  C   UNL     1      -0.721  11.003  21.549  0.00  0.00    +0.000 C 
ATOM     20  C   UNL     1       0.004  10.189  22.604  0.00  0.00    +0.000 C 
ATOM     21  C   UNL     1      -0.727  10.369  20.345  0.00  0.00    +0.000 C 
ATOM     22  C   UNL     1      -0.881  10.918  18.970  0.00  0.00    +0.000 C 
ATOM     23  C   UNL     1      -0.752  12.423  18.913  0.00  0.00    +0.000 C 
ENDROOT
BRANCH  10  24
ATOM     24  O   UNL     1       3.091  16.206  19.218  0.00  0.00    +0.000 OA
ATOM     25  H   UNL     1       3.298  16.670  20.055  0.00  0.00    +0.000 HD
ENDBRANCH  10  24
BRANCH  11  26
ATOM     26  O   UNL     1       3.023  13.489  21.640  0.00  0.00    +0.000 OA
ATOM     27  H   UNL     1       2.598  12.659  21.354  0.00  0.00    +0.000 HD
ENDBRANCH  11  26
BRANCH  22  28
ATOM     28  O   UNL     1       0.116  10.376  18.084  0.00  0.00    +0.000 OA
ATOM     29  H   UNL     1       0.974  10.607  18.517  0.00  0.00    +0.000 HD
ENDBRANCH  22  28
BRANCH  23  30
ATOM     30  O   UNL     1      -0.129  12.856  17.697  0.00  0.00    +0.000 OA
ATOM     31  H   UNL     1      -0.026  13.838  17.707  0.00  0.00    +0.000 HD
ENDBRANCH  23  30
BRANCH   1  32
ATOM     32  O   UNL     1      -0.935  14.223  23.933  0.00  0.00    +0.000 OA
BRANCH  32  33
ATOM     33  C   UNL     1      -1.841  14.697  24.788  0.00  0.00    +0.000 C 
ATOM     34  O   UNL     1      -3.068  14.400  24.743  0.00  0.00    +0.000 OA
BRANCH  33  38
ATOM     35  C   UNL     1      -0.413  17.396  27.253  0.00  0.00    +0.000 C 
ATOM     36  C   UNL     1      -0.843  16.788  25.936  0.00  0.00    +0.000 C 
ATOM     37  C   UNL     1      -0.681  17.670  24.729  0.00  0.00    +0.000 C 
ATOM     38  C   UNL     1      -1.353  15.546  25.917  0.00  0.00    +0.000 C 
ENDBRANCH  33  38
ENDBRANCH  32  33
ENDBRANCH   1  32
TORSDOF 7
ENDMDL
MODEL 8
REMARK VINA RESULT:      -6.0      8.516     12.552
REMARK  Name = 
REMARK  12 active torsions:
REMARK  status: ('A' for Active; 'I' for Inactive)
REMARK    1  A    between atoms: C_1  and  C_2
REMARK    2  A    between atoms: C_2  and  C_3
REMARK    3  A    between atoms: C_4  and  C_5
REMARK    4  A    between atoms: C_5  and  O_7
REMARK    5  A    between atoms: O_7  and  C_8
REMARK    6  A    between atoms: C_15  and  C_16
REMARK    7  A    between atoms: C_17  and  O_18
REMARK    8  A    between atoms: C_19  and  O_20
REMARK    9  A    between atoms: C_25  and  C_26
REMARK   10  A    between atoms: C_28  and  C_29
REMARK   11  A    between atoms: C_31  and  O_32
REMARK   12  A    between atoms: C_33  and  O_34
REMARK                            x       y       z     vdW  Elec       q    Type
REMARK                         _______ _______ _______ _____ _____    ______ ____
ROOT
ATOM      1  C   UNL     1      -1.721  12.364  19.731  0.00  0.00    +0.000 C 
ATOM      2  C   UNL     1      -0.157  13.309  20.024  0.00  0.00    +0.000 C 
ATOM      3  O   UNL     1       1.248  13.169  19.786  0.00  0.00    +0.000 OA
ATOM      4  C   UNL     1       2.025  13.666  20.866  0.00  0.00    +0.000 C 
ATOM      5  O   UNL     1       2.910  12.970  21.382  0.00  0.00    +0.000 OA
ATOM      6  C   UNL     1       1.673  15.116  21.483  0.00  0.00    +0.000 C 
ATOM      7  C   UNL     1       0.167  15.260  21.708  0.00  0.00    +0.000 C 
ATOM      8  C   UNL     1      -0.925  16.553  22.395  0.00  0.00    +0.000 C 
ATOM      9  C   UNL     1      -2.388  16.806  23.201  0.00  0.00    +0.000 C 
ATOM     10  C   UNL     1      -1.276  17.401  21.201  0.00  0.00    +0.000 C 
ATOM     11  C   UNL     1      -1.943  16.377  20.232  0.00  0.00    +0.000 C 
ATOM     12  O   UNL     1      -1.239  16.496  18.975  0.00  0.00    +0.000 OA
ATOM     13  C   UNL     1      -0.042  15.731  19.160  0.00  0.00    +0.000 C 
ATOM     14  C   UNL     1      -0.364  14.776  20.327  0.00  0.00    +0.000 C 
ATOM     15  C   UNL     1      -1.779  14.832  20.570  0.00  0.00    +0.000 C 
ATOM     16  C   UNL     1      -1.999  13.566  21.912  0.00  0.00    +0.000 C 
ATOM     17  C   UNL     1      -1.211  12.021  22.264  0.00  0.00    +0.000 C 
ATOM     18  C   UNL     1      -2.976  12.894  20.980  0.00  0.00    +0.000 C 
ATOM     19  C   UNL     1      -4.249  12.705  21.850  0.00  0.00    +0.000 C 
ATOM     20  C   UNL     1      -5.579  12.890  21.145  0.00  0.00    +0.000 C 
ATOM     21  C   UNL     1      -4.355  12.931  23.188  0.00  0.00    +0.000 C 
ATOM     22  C   UNL     1      -3.319  13.319  24.184  0.00  0.00    +0.000 C 
ATOM     23  C   UNL     1      -2.024  13.771  23.549  0.00  0.00    +0.000 C 
ENDROOT
BRANCH  10  24
ATOM     24  O   UNL     1      -0.049  18.044  20.901  0.00  0.00    +0.000 OA
ATOM     25  H   UNL     1      -0.021  18.820  21.499  0.00  0.00    +0.000 HD
ENDBRANCH  10  24
BRANCH  11  26
ATOM     26  O   UNL     1      -3.296  16.680  19.979  0.00  0.00    +0.000 OA
ATOM     27  H   UNL     1      -3.605  15.940  19.424  0.00  0.00    +0.000 HD
ENDBRANCH  11  26
BRANCH  22  28
ATOM     28  O   UNL     1      -3.781  14.400  25.014  0.00  0.00    +0.000 OA
ATOM     29  H   UNL     1      -4.126  13.952  25.824  0.00  0.00    +0.000 HD
ENDBRANCH  22  28
BRANCH  23  30
ATOM     30  O   UNL     1      -1.394  14.808  24.311  0.00  0.00    +0.000 OA
ATOM     31  H   UNL     1      -0.572  15.106  23.851  0.00  0.00    +0.000 HD
ENDBRANCH  23  30
BRANCH   1  32
ATOM     32  O   UNL     1      -2.249  12.460  18.381  0.00  0.00    +0.000 OA
BRANCH  32  33
ATOM     33  C   UNL     1      -2.622  11.285  17.875  0.00  0.00    +0.000 C 
ATOM     34  O   UNL     1      -1.875  10.565  17.153  0.00  0.00    +0.000 OA
BRANCH  33  38
ATOM     35  C   UNL     1      -6.393  10.421  18.536  0.00  0.00    +0.000 C 
ATOM     36  C   UNL     1      -5.203  11.163  17.967  0.00  0.00    +0.000 C 
ATOM     37  C   UNL     1      -5.530  12.319  17.062  0.00  0.00    +0.000 C 
ATOM     38  C   UNL     1      -3.961  10.752  18.269  0.00  0.00    +0.000 C 
ENDBRANCH  33  38
ENDBRANCH  32  33
ENDBRANCH   1  32
TORSDOF 7
ENDMDL
MODEL 9
REMARK VINA RESULT:      -5.8      7.752     11.811
REMARK  Name = 
REMARK  12 active torsions:
REMARK  status: ('A' for Active; 'I' for Inactive)
REMARK    1  A    between atoms: C_1  and  C_2
REMARK    2  A    between atoms: C_2  and  C_3
REMARK    3  A    between atoms: C_4  and  C_5
REMARK    4  A    between atoms: C_5  and  O_7
REMARK    5  A    between atoms: O_7  and  C_8
REMARK    6  A    between atoms: C_15  and  C_16
REMARK    7  A    between atoms: C_17  and  O_18
REMARK    8  A    between atoms: C_19  and  O_20
REMARK    9  A    between atoms: C_25  and  C_26
REMARK   10  A    between atoms: C_28  and  C_29
REMARK   11  A    between atoms: C_31  and  O_32
REMARK   12  A    between atoms: C_33  and  O_34
REMARK                            x       y       z     vdW  Elec       q    Type
REMARK                         _______ _______ _______ _____ _____    ______ ____
ROOT
ATOM      1  C   UNL     1      -1.168  12.456  20.131  0.00  0.00    +0.000 C 
ATOM      2  C   UNL     1       0.270  13.591  20.387  0.00  0.00    +0.000 C 
ATOM      3  O   UNL     1       1.694  13.580  20.236  0.00  0.00    +0.000 OA
ATOM      4  C   UNL     1       2.349  14.274  21.288  0.00  0.00    +0.000 C 
ATOM      5  O   UNL     1       3.267  13.740  21.923  0.00  0.00    +0.000 OA
ATOM      6  C   UNL     1       1.813  15.737  21.714  0.00  0.00    +0.000 C 
ATOM      7  C   UNL     1       0.290  15.740  21.847  0.00  0.00    +0.000 C 
ATOM      8  C   UNL     1      -0.968  16.975  22.325  0.00  0.00    +0.000 C 
ATOM      9  C   UNL     1      -2.496  17.155  23.024  0.00  0.00    +0.000 C 
ATOM     10  C   UNL     1      -1.331  17.643  21.026  0.00  0.00    +0.000 C 
ATOM     11  C   UNL     1      -1.830  16.452  20.150  0.00  0.00    +0.000 C 
ATOM     12  O   UNL     1      -1.067  16.507  18.924  0.00  0.00    +0.000 OA
ATOM     13  C   UNL     1       0.189  15.902  19.255  0.00  0.00    +0.000 C 
ATOM     14  C   UNL     1      -0.104  15.053  20.508  0.00  0.00    +0.000 C 
ATOM     15  C   UNL     1      -1.529  14.981  20.673  0.00  0.00    +0.000 C 
ATOM     16  C   UNL     1      -1.699  13.854  22.141  0.00  0.00    +0.000 C 
ATOM     17  C   UNL     1      -0.780  12.452  22.708  0.00  0.00    +0.000 C 
ATOM     18  C   UNL     1      -2.545  12.981  21.247  0.00  0.00    +0.000 C 
ATOM     19  C   UNL     1      -3.842  12.752  22.071  0.00  0.00    +0.000 C 
ATOM     20  C   UNL     1      -5.138  12.713  21.285  0.00  0.00    +0.000 C 
ATOM     21  C   UNL     1      -4.052  13.112  23.366  0.00  0.00    +0.000 C 
ATOM     22  C   UNL     1      -3.123  13.717  24.360  0.00  0.00    +0.000 C 
ATOM     23  C   UNL     1      -1.845  14.234  23.740  0.00  0.00    +0.000 C 
ENDROOT
BRANCH  10  24
ATOM     24  O   UNL     1      -0.161  18.379  20.713  0.00  0.00    +0.000 OA
ATOM     25  H   UNL     1       0.155  18.722  21.574  0.00  0.00    +0.000 HD
ENDBRANCH  10  24
BRANCH  11  26
ATOM     26  O   UNL     1      -3.190  16.576  19.799  0.00  0.00    +0.000 OA
ATOM     27  H   UNL     1      -3.309  15.926  19.082  0.00  0.00    +0.000 HD
ENDBRANCH  11  26
BRANCH  22  28
ATOM     28  O   UNL     1      -3.742  14.827  25.035  0.00  0.00    +0.000 OA
ATOM     29  H   UNL     1      -3.236  15.615  24.719  0.00  0.00    +0.000 HD
ENDBRANCH  22  28
BRANCH  23  30
ATOM     30  O   UNL     1      -1.371  15.412  24.406  0.00  0.00    +0.000 OA
ATOM     31  H   UNL     1      -1.911  16.191  24.128  0.00  0.00    +0.000 HD
ENDBRANCH  23  30
BRANCH   1  32
ATOM     32  O   UNL     1      -1.620  12.345  18.755  0.00  0.00    +0.000 OA
BRANCH  32  33
ATOM     33  C   UNL     1      -1.678  11.087  18.318  0.00  0.00    +0.000 C 
ATOM     34  O   UNL     1      -2.757  10.446  18.167  0.00  0.00    +0.000 OA
BRANCH  33  38
ATOM     35  C   UNL     1       1.766   9.254  17.884  0.00  0.00    +0.000 C 
ATOM     36  C   UNL     1       0.551   9.804  18.598  0.00  0.00    +0.000 C 
ATOM     37  C   UNL     1       0.501   9.557  20.081  0.00  0.00    +0.000 C 
ATOM     38  C   UNL     1      -0.399  10.439  17.893  0.00  0.00    +0.000 C 
ENDBRANCH  33  38
ENDBRANCH  32  33
ENDBRANCH   1  32
TORSDOF 7
ENDMDL
