MODEL 1
REMARK VINA RESULT:      -7.2      0.000      0.000
REMARK  Name = 
REMARK  6 active torsions:
REMARK  status: ('A' for Active; 'I' for Inactive)
REMARK    1  A    between atoms: C_1  and  N_2
REMARK    2  A    between atoms: N_2  and  C_3
REMARK    3  A    between atoms: N_2  and  C_4
REMARK    4  A    between atoms: C_4  and  C_5
REMARK    5  A    between atoms: C_5  and  S_6
REMARK    6  A    between atoms: S_6  and  C_7
REMARK                            x       y       z     vdW  Elec       q    Type
REMARK                         _______ _______ _______ _____ _____    ______ ____
ROOT
ATOM      1  C   UNL     1       2.347   6.094  18.040  0.00  0.00    +0.000 C 
ATOM      2  C   UNL     1       2.068   4.746  18.714  0.00  0.00    +0.000 A 
ATOM      3  C   UNL     1       2.116   3.545  17.979  0.00  0.00    +0.000 A 
ATOM      4  C   UNL     1       1.948   2.312  18.605  0.00  0.00    +0.000 A 
ATOM      5  C   UNL     1       1.684   2.254  19.970  0.00  0.00    +0.000 A 
ATOM      6  C   UNL     1       1.558   3.433  20.705  0.00  0.00    +0.000 A 
ATOM      7  C   UNL     1       1.732   4.675  20.083  0.00  0.00    +0.000 A 
ATOM      8  O   UNL     1       1.561   5.798  20.813  0.00  0.00    +0.000 OA
ATOM      9  C   UNL     1       1.563   7.041  20.280  0.00  0.00    +0.000 A 
ATOM     10  C   UNL     1       1.187   8.120  21.085  0.00  0.00    +0.000 A 
ATOM     11  C   UNL     1       1.165   9.416  20.569  0.00  0.00    +0.000 A 
ATOM     12  C   UNL     1       1.524   9.641  19.237  0.00  0.00    +0.000 A 
ATOM     13 CL   UNL     1       1.483  11.270  18.587  0.00  0.00    +0.000 Cl
ATOM     14  C   UNL     1       1.912   8.567  18.425  0.00  0.00    +0.000 A 
ATOM     15  C   UNL     1       1.930   7.255  18.933  0.00  0.00    +0.000 A 
ENDROOT
BRANCH   1  16
ATOM     16  S   UNL     1       4.161   6.356  17.642  0.00  0.00    +0.000 S 
BRANCH  16  17
ATOM     17  C   UNL     1       4.935   5.539  19.079  0.00  0.00    +0.000 C 
BRANCH  17  18
ATOM     18  C   UNL     1       5.709   4.251  18.791  0.00  0.00    +0.000 C 
BRANCH  18  20
ATOM     19  C   UNL     1       7.431   4.561  17.103  0.00  0.00    +0.000 C 
ATOM     20  N   UNL     1       7.148   4.543  18.545  0.00  0.00    +0.000 NA
ATOM     21  C   UNL     1       7.614   5.810  19.150  0.00  0.00    +0.000 C 
ENDBRANCH  18  20
ENDBRANCH  17  18
ENDBRANCH  16  17
ENDBRANCH   1  16
TORSDOF 4
ENDMDL
MODEL 2
REMARK VINA RESULT:      -7.1      3.273      6.376
REMARK  Name = 
REMARK  6 active torsions:
REMARK  status: ('A' for Active; 'I' for Inactive)
REMARK    1  A    between atoms: C_1  and  N_2
REMARK    2  A    between atoms: N_2  and  C_3
REMARK    3  A    between atoms: N_2  and  C_4
REMARK    4  A    between atoms: C_4  and  C_5
REMARK    5  A    between atoms: C_5  and  S_6
REMARK    6  A    between atoms: S_6  and  C_7
REMARK                            x       y       z     vdW  Elec       q    Type
REMARK                         _______ _______ _______ _____ _____    ______ ____
ROOT
ATOM      1  C   UNL     1       3.844   5.946  17.953  0.00  0.00    +0.000 C 
ATOM      2  C   UNL     1       5.343   6.249  18.026  0.00  0.00    +0.000 A 
ATOM      3  C   UNL     1       5.895   7.346  17.334  0.00  0.00    +0.000 A 
ATOM      4  C   UNL     1       7.242   7.677  17.466  0.00  0.00    +0.000 A 
ATOM      5  C   UNL     1       8.077   6.892  18.256  0.00  0.00    +0.000 A 
ATOM      6  C   UNL     1       7.570   5.758  18.891  0.00  0.00    +0.000 A 
ATOM      7  C   UNL     1       6.216   5.424  18.767  0.00  0.00    +0.000 A 
ATOM      8  O   UNL     1       5.766   4.297  19.359  0.00  0.00    +0.000 OA
ATOM      9  C   UNL     1       4.517   3.809  19.182  0.00  0.00    +0.000 A 
ATOM     10  C   UNL     1       4.212   2.539  19.681  0.00  0.00    +0.000 A 
ATOM     11  C   UNL     1       2.938   1.998  19.509  0.00  0.00    +0.000 A 
ATOM     12  C   UNL     1       1.956   2.729  18.835  0.00  0.00    +0.000 A 
ATOM     13 CL   UNL     1       0.359   2.038  18.609  0.00  0.00    +0.000 Cl
ATOM     14  C   UNL     1       2.249   4.006  18.340  0.00  0.00    +0.000 A 
ATOM     15  C   UNL     1       3.533   4.560  18.501  0.00  0.00    +0.000 A 
ENDROOT
BRANCH   1  16
ATOM     16  S   UNL     1       2.800   7.152  18.940  0.00  0.00    +0.000 S 
BRANCH  16  17
ATOM     17  C   UNL     1       2.260   8.282  17.614  0.00  0.00    +0.000 C 
BRANCH  17  18
ATOM     18  C   UNL     1       1.849   9.691  18.049  0.00  0.00    +0.000 C 
BRANCH  18  20
ATOM     19  C   UNL     1       0.820  10.271  20.173  0.00  0.00    +0.000 C 
ATOM     20  N   UNL     1       0.601   9.651  18.858  0.00  0.00    +0.000 NA
ATOM     21  C   UNL     1      -0.559  10.295  18.203  0.00  0.00    +0.000 C 
ENDBRANCH  18  20
ENDBRANCH  17  18
ENDBRANCH  16  17
ENDBRANCH   1  16
TORSDOF 4
ENDMDL
MODEL 3
REMARK VINA RESULT:      -7.0      3.045      5.584
REMARK  Name = 
REMARK  6 active torsions:
REMARK  status: ('A' for Active; 'I' for Inactive)
REMARK    1  A    between atoms: C_1  and  N_2
REMARK    2  A    between atoms: N_2  and  C_3
REMARK    3  A    between atoms: N_2  and  C_4
REMARK    4  A    between atoms: C_4  and  C_5
REMARK    5  A    between atoms: C_5  and  S_6
REMARK    6  A    between atoms: S_6  and  C_7
REMARK                            x       y       z     vdW  Elec       q    Type
REMARK                         _______ _______ _______ _____ _____    ______ ____
ROOT
ATOM      1  C   UNL     1       3.399   5.848  18.900  0.00  0.00    +0.000 C 
ATOM      2  C   UNL     1       2.606   4.538  18.881  0.00  0.00    +0.000 A 
ATOM      3  C   UNL     1       1.585   4.295  19.822  0.00  0.00    +0.000 A 
ATOM      4  C   UNL     1       0.804   3.144  19.756  0.00  0.00    +0.000 A 
ATOM      5  C   UNL     1       1.056   2.187  18.776  0.00  0.00    +0.000 A 
ATOM      6  C   UNL     1       2.109   2.371  17.879  0.00  0.00    +0.000 A 
ATOM      7  C   UNL     1       2.893   3.529  17.937  0.00  0.00    +0.000 A 
ATOM      8  O   UNL     1       3.931   3.656  17.083  0.00  0.00    +0.000 OA
ATOM      9  C   UNL     1       4.834   4.661  17.151  0.00  0.00    +0.000 A 
ATOM     10  C   UNL     1       5.976   4.597  16.347  0.00  0.00    +0.000 A 
ATOM     11  C   UNL     1       6.935   5.609  16.397  0.00  0.00    +0.000 A 
ATOM     12  C   UNL     1       6.754   6.698  17.253  0.00  0.00    +0.000 A 
ATOM     13 CL   UNL     1       7.969   7.962  17.323  0.00  0.00    +0.000 Cl
ATOM     14  C   UNL     1       5.608   6.776  18.056  0.00  0.00    +0.000 A 
ATOM     15  C   UNL     1       4.638   5.758  18.019  0.00  0.00    +0.000 A 
ENDROOT
BRANCH   1  16
ATOM     16  S   UNL     1       2.411   7.315  18.275  0.00  0.00    +0.000 S 
BRANCH  16  17
ATOM     17  C   UNL     1       1.893   8.062  19.858  0.00  0.00    +0.000 C 
BRANCH  17  18
ATOM     18  C   UNL     1       1.028   9.320  19.763  0.00  0.00    +0.000 C 
BRANCH  18  20
ATOM     19  C   UNL     1       0.907   9.140  22.184  0.00  0.00    +0.000 C 
ATOM     20  N   UNL     1       0.154   9.453  20.961  0.00  0.00    +0.000 NA
ATOM     21  C   UNL     1      -0.472  10.786  21.101  0.00  0.00    +0.000 C 
ENDBRANCH  18  20
ENDBRANCH  17  18
ENDBRANCH  16  17
ENDBRANCH   1  16
TORSDOF 4
ENDMDL
MODEL 4
REMARK VINA RESULT:      -7.0      2.942      5.394
REMARK  Name = 
REMARK  6 active torsions:
REMARK  status: ('A' for Active; 'I' for Inactive)
REMARK    1  A    between atoms: C_1  and  N_2
REMARK    2  A    between atoms: N_2  and  C_3
REMARK    3  A    between atoms: N_2  and  C_4
REMARK    4  A    between atoms: C_4  and  C_5
REMARK    5  A    between atoms: C_5  and  S_6
REMARK    6  A    between atoms: S_6  and  C_7
REMARK                            x       y       z     vdW  Elec       q    Type
REMARK                         _______ _______ _______ _____ _____    ______ ____
ROOT
ATOM      1  C   UNL     1       3.390   5.862  18.989  0.00  0.00    +0.000 C 
ATOM      2  C   UNL     1       2.572   4.567  18.959  0.00  0.00    +0.000 A 
ATOM      3  C   UNL     1       1.577   4.317  19.924  0.00  0.00    +0.000 A 
ATOM      4  C   UNL     1       0.772   3.182  19.851  0.00  0.00    +0.000 A 
ATOM      5  C   UNL     1       0.975   2.249  18.838  0.00  0.00    +0.000 A 
ATOM      6  C   UNL     1       2.004   2.438  17.914  0.00  0.00    +0.000 A 
ATOM      7  C   UNL     1       2.811   3.580  17.979  0.00  0.00    +0.000 A 
ATOM      8  O   UNL     1       3.825   3.711  17.097  0.00  0.00    +0.000 OA
ATOM      9  C   UNL     1       4.748   4.698  17.164  0.00  0.00    +0.000 A 
ATOM     10  C   UNL     1       5.864   4.635  16.324  0.00  0.00    +0.000 A 
ATOM     11  C   UNL     1       6.842   5.628  16.371  0.00  0.00    +0.000 A 
ATOM     12  C   UNL     1       6.709   6.696  17.262  0.00  0.00    +0.000 A 
ATOM     13 CL   UNL     1       7.949   7.936  17.328  0.00  0.00    +0.000 Cl
ATOM     14  C   UNL     1       5.590   6.773  18.102  0.00  0.00    +0.000 A 
ATOM     15  C   UNL     1       4.599   5.773  18.068  0.00  0.00    +0.000 A 
ENDROOT
BRANCH   1  16
ATOM     16  S   UNL     1       2.411   7.364  18.436  0.00  0.00    +0.000 S 
BRANCH  16  17
ATOM     17  C   UNL     1       1.809   7.975  20.046  0.00  0.00    +0.000 C 
BRANCH  17  18
ATOM     18  C   UNL     1       1.023   9.288  20.021  0.00  0.00    +0.000 C 
BRANCH  18  20
ATOM     19  C   UNL     1      -0.389  10.048  18.194  0.00  0.00    +0.000 C 
ATOM     20  N   UNL     1       0.997   9.863  18.648  0.00  0.00    +0.000 NA
ATOM     21  C   UNL     1       1.727  11.143  18.521  0.00  0.00    +0.000 C 
ENDBRANCH  18  20
ENDBRANCH  17  18
ENDBRANCH  16  17
ENDBRANCH   1  16
TORSDOF 4
ENDMDL
MODEL 5
REMARK VINA RESULT:      -6.8      3.104      6.047
REMARK  Name = 
REMARK  6 active torsions:
REMARK  status: ('A' for Active; 'I' for Inactive)
REMARK    1  A    between atoms: C_1  and  N_2
REMARK    2  A    between atoms: N_2  and  C_3
REMARK    3  A    between atoms: N_2  and  C_4
REMARK    4  A    between atoms: C_4  and  C_5
REMARK    5  A    between atoms: C_5  and  S_6
REMARK    6  A    between atoms: S_6  and  C_7
REMARK                            x       y       z     vdW  Elec       q    Type
REMARK                         _______ _______ _______ _____ _____    ______ ____
ROOT
ATOM      1  C   UNL     1       3.958   5.745  17.608  0.00  0.00    +0.000 C 
ATOM      2  C   UNL     1       5.429   6.085  17.872  0.00  0.00    +0.000 A 
ATOM      3  C   UNL     1       6.107   7.032  17.079  0.00  0.00    +0.000 A 
ATOM      4  C   UNL     1       7.417   7.408  17.369  0.00  0.00    +0.000 A 
ATOM      5  C   UNL     1       8.094   6.811  18.429  0.00  0.00    +0.000 A 
ATOM      6  C   UNL     1       7.468   5.817  19.182  0.00  0.00    +0.000 A 
ATOM      7  C   UNL     1       6.150   5.440  18.900  0.00  0.00    +0.000 A 
ATOM      8  O   UNL     1       5.589   4.445  19.620  0.00  0.00    +0.000 OA
ATOM      9  C   UNL     1       4.380   3.910  19.335  0.00  0.00    +0.000 A 
ATOM     10  C   UNL     1       3.975   2.759  20.018  0.00  0.00    +0.000 A 
ATOM     11  C   UNL     1       2.740   2.170  19.744  0.00  0.00    +0.000 A 
ATOM     12  C   UNL     1       1.898   2.734  18.782  0.00  0.00    +0.000 A 
ATOM     13 CL   UNL     1       0.351   1.983  18.430  0.00  0.00    +0.000 Cl
ATOM     14  C   UNL     1       2.291   3.892  18.098  0.00  0.00    +0.000 A 
ATOM     15  C   UNL     1       3.537   4.491  18.361  0.00  0.00    +0.000 A 
ENDROOT
BRANCH   1  16
ATOM     16  S   UNL     1       2.782   7.105  18.144  0.00  0.00    +0.000 S 
BRANCH  16  17
ATOM     17  C   UNL     1       2.664   6.753  19.931  0.00  0.00    +0.000 C 
BRANCH  17  18
ATOM     18  C   UNL     1       1.409   7.265  20.641  0.00  0.00    +0.000 C 
BRANCH  18  20
ATOM     19  C   UNL     1       0.659   9.490  20.012  0.00  0.00    +0.000 C 
ATOM     20  N   UNL     1       1.520   8.723  20.923  0.00  0.00    +0.000 NA
ATOM     21  C   UNL     1       1.199   9.089  22.320  0.00  0.00    +0.000 C 
ENDBRANCH  18  20
ENDBRANCH  17  18
ENDBRANCH  16  17
ENDBRANCH   1  16
TORSDOF 4
ENDMDL
MODEL 6
REMARK VINA RESULT:      -6.7      1.471      1.846
REMARK  Name = 
REMARK  6 active torsions:
REMARK  status: ('A' for Active; 'I' for Inactive)
REMARK    1  A    between atoms: C_1  and  N_2
REMARK    2  A    between atoms: N_2  and  C_3
REMARK    3  A    between atoms: N_2  and  C_4
REMARK    4  A    between atoms: C_4  and  C_5
REMARK    5  A    between atoms: C_5  and  S_6
REMARK    6  A    between atoms: S_6  and  C_7
REMARK                            x       y       z     vdW  Elec       q    Type
REMARK                         _______ _______ _______ _____ _____    ______ ____
ROOT
ATOM      1  C   UNL     1       2.598   5.954  18.226  0.00  0.00    +0.000 C 
ATOM      2  C   UNL     1       2.204   4.687  18.991  0.00  0.00    +0.000 A 
ATOM      3  C   UNL     1       2.307   3.416  18.391  0.00  0.00    +0.000 A 
ATOM      4  C   UNL     1       2.032   2.256  19.111  0.00  0.00    +0.000 A 
ATOM      5  C   UNL     1       1.602   2.342  20.432  0.00  0.00    +0.000 A 
ATOM      6  C   UNL     1       1.421   3.592  21.024  0.00  0.00    +0.000 A 
ATOM      7  C   UNL     1       1.702   4.761  20.308  0.00  0.00    +0.000 A 
ATOM      8  O   UNL     1       1.475   5.955  20.896  0.00  0.00    +0.000 OA
ATOM      9  C   UNL     1       1.575   7.137  20.246  0.00  0.00    +0.000 A 
ATOM     10  C   UNL     1       1.133   8.299  20.887  0.00  0.00    +0.000 A 
ATOM     11  C   UNL     1       1.210   9.535  20.245  0.00  0.00    +0.000 A 
ATOM     12  C   UNL     1       1.734   9.617  18.952  0.00  0.00    +0.000 A 
ATOM     13 CL   UNL     1       1.816  11.172  18.143  0.00  0.00    +0.000 Cl
ATOM     14  C   UNL     1       2.188   8.460  18.305  0.00  0.00    +0.000 A 
ATOM     15  C   UNL     1       2.109   7.206  18.940  0.00  0.00    +0.000 A 
ENDROOT
BRANCH   1  16
ATOM     16  S   UNL     1       4.454   6.147  18.030  0.00  0.00    +0.000 S 
BRANCH  16  17
ATOM     17  C   UNL     1       4.728   5.172  16.512  0.00  0.00    +0.000 C 
BRANCH  17  18
ATOM     18  C   UNL     1       5.383   5.909  15.342  0.00  0.00    +0.000 C 
BRANCH  18  20
ATOM     19  C   UNL     1       7.321   4.600  16.005  0.00  0.00    +0.000 C 
ATOM     20  N   UNL     1       6.592   5.181  14.868  0.00  0.00    +0.000 NA
ATOM     21  C   UNL     1       6.303   4.119  13.880  0.00  0.00    +0.000 C 
ENDBRANCH  18  20
ENDBRANCH  17  18
ENDBRANCH  16  17
ENDBRANCH   1  16
TORSDOF 4
ENDMDL
MODEL 7
REMARK VINA RESULT:      -6.7      2.214      3.917
REMARK  Name = 
REMARK  6 active torsions:
REMARK  status: ('A' for Active; 'I' for Inactive)
REMARK    1  A    between atoms: C_1  and  N_2
REMARK    2  A    between atoms: N_2  and  C_3
REMARK    3  A    between atoms: N_2  and  C_4
REMARK    4  A    between atoms: C_4  and  C_5
REMARK    5  A    between atoms: C_5  and  S_6
REMARK    6  A    between atoms: S_6  and  C_7
REMARK                            x       y       z     vdW  Elec       q    Type
REMARK                         _______ _______ _______ _____ _____    ______ ____
ROOT
ATOM      1  C   UNL     1       3.059   6.234  20.076  0.00  0.00    +0.000 C 
ATOM      2  C   UNL     1       4.051   5.874  18.966  0.00  0.00    +0.000 A 
ATOM      3  C   UNL     1       5.086   4.945  19.193  0.00  0.00    +0.000 A 
ATOM      4  C   UNL     1       5.937   4.550  18.162  0.00  0.00    +0.000 A 
ATOM      5  C   UNL     1       5.802   5.109  16.895  0.00  0.00    +0.000 A 
ATOM      6  C   UNL     1       4.833   6.086  16.665  0.00  0.00    +0.000 A 
ATOM      7  C   UNL     1       3.970   6.482  17.695  0.00  0.00    +0.000 A 
ATOM      8  O   UNL     1       3.072   7.460  17.452  0.00  0.00    +0.000 OA
ATOM      9  C   UNL     1       2.296   8.015  18.410  0.00  0.00    +0.000 A 
ATOM     10  C   UNL     1       1.541   9.148  18.095  0.00  0.00    +0.000 A 
ATOM     11  C   UNL     1       0.737   9.755  19.060  0.00  0.00    +0.000 A 
ATOM     12  C   UNL     1       0.681   9.227  20.352  0.00  0.00    +0.000 A 
ATOM     13 CL   UNL     1      -0.321  10.002  21.567  0.00  0.00    +0.000 Cl
ATOM     14  C   UNL     1       1.427   8.086  20.676  0.00  0.00    +0.000 A 
ATOM     15  C   UNL     1       2.247   7.470  19.713  0.00  0.00    +0.000 A 
ENDROOT
BRANCH   1  16
ATOM     16  S   UNL     1       1.820   4.870  20.426  0.00  0.00    +0.000 S 
BRANCH  16  17
ATOM     17  C   UNL     1       1.493   4.279  18.731  0.00  0.00    +0.000 C 
BRANCH  17  18
ATOM     18  C   UNL     1       1.197   2.785  18.579  0.00  0.00    +0.000 C 
BRANCH  18  20
ATOM     19  C   UNL     1       2.872   2.958  16.826  0.00  0.00    +0.000 C 
ATOM     20  N   UNL     1       2.312   2.094  17.875  0.00  0.00    +0.000 NA
ATOM     21  C   UNL     1       3.400   1.646  18.770  0.00  0.00    +0.000 C 
ENDBRANCH  18  20
ENDBRANCH  17  18
ENDBRANCH  16  17
ENDBRANCH   1  16
TORSDOF 4
ENDMDL
MODEL 8
REMARK VINA RESULT:      -6.6      0.691      1.027
REMARK  Name = 
REMARK  6 active torsions:
REMARK  status: ('A' for Active; 'I' for Inactive)
REMARK    1  A    between atoms: C_1  and  N_2
REMARK    2  A    between atoms: N_2  and  C_3
REMARK    3  A    between atoms: N_2  and  C_4
REMARK    4  A    between atoms: C_4  and  C_5
REMARK    5  A    between atoms: C_5  and  S_6
REMARK    6  A    between atoms: S_6  and  C_7
REMARK                            x       y       z     vdW  Elec       q    Type
REMARK                         _______ _______ _______ _____ _____    ______ ____
ROOT
ATOM      1  C   UNL     1       2.283   6.329  18.074  0.00  0.00    +0.000 C 
ATOM      2  C   UNL     1       2.048   4.950  18.698  0.00  0.00    +0.000 A 
ATOM      3  C   UNL     1       2.124   3.779  17.917  0.00  0.00    +0.000 A 
ATOM      4  C   UNL     1       1.997   2.519  18.496  0.00  0.00    +0.000 A 
ATOM      5  C   UNL     1       1.745   2.401  19.860  0.00  0.00    +0.000 A 
ATOM      6  C   UNL     1       1.592   3.548  20.640  0.00  0.00    +0.000 A 
ATOM      7  C   UNL     1       1.725   4.817  20.066  0.00  0.00    +0.000 A 
ATOM      8  O   UNL     1       1.529   5.906  20.839  0.00  0.00    +0.000 OA
ATOM      9  C   UNL     1       1.491   7.168  20.354  0.00  0.00    +0.000 A 
ATOM     10  C   UNL     1       1.090   8.205  21.202  0.00  0.00    +0.000 A 
ATOM     11  C   UNL     1       1.028   9.518  20.735  0.00  0.00    +0.000 A 
ATOM     12  C   UNL     1       1.370   9.803  19.411  0.00  0.00    +0.000 A 
ATOM     13 CL   UNL     1       1.277  11.454  18.824  0.00  0.00    +0.000 Cl
ATOM     14  C   UNL     1       1.781   8.773  18.556  0.00  0.00    +0.000 A 
ATOM     15  C   UNL     1       1.841   7.443  19.013  0.00  0.00    +0.000 A 
ENDROOT
BRANCH   1  16
ATOM     16  S   UNL     1       4.086   6.658  17.674  0.00  0.00    +0.000 S 
BRANCH  16  17
ATOM     17  C   UNL     1       4.898   5.669  18.974  0.00  0.00    +0.000 C 
BRANCH  17  18
ATOM     18  C   UNL     1       5.717   4.467  18.500  0.00  0.00    +0.000 C 
BRANCH  18  20
ATOM     19  C   UNL     1       7.606   4.523  16.971  0.00  0.00    +0.000 C 
ATOM     20  N   UNL     1       6.146   4.644  17.085  0.00  0.00    +0.000 NA
ATOM     21  C   UNL     1       5.504   3.703  16.142  0.00  0.00    +0.000 C 
ENDBRANCH  18  20
ENDBRANCH  17  18
ENDBRANCH  16  17
ENDBRANCH   1  16
TORSDOF 4
ENDMDL
MODEL 9
REMARK VINA RESULT:      -6.5      2.232      3.932
REMARK  Name = 
REMARK  6 active torsions:
REMARK  status: ('A' for Active; 'I' for Inactive)
REMARK    1  A    between atoms: C_1  and  N_2
REMARK    2  A    between atoms: N_2  and  C_3
REMARK    3  A    between atoms: N_2  and  C_4
REMARK    4  A    between atoms: C_4  and  C_5
REMARK    5  A    between atoms: C_5  and  S_6
REMARK    6  A    between atoms: S_6  and  C_7
REMARK                            x       y       z     vdW  Elec       q    Type
REMARK                         _______ _______ _______ _____ _____    ______ ____
ROOT
ATOM      1  C   UNL     1       2.959   6.289  19.689  0.00  0.00    +0.000 C 
ATOM      2  C   UNL     1       3.988   6.031  18.584  0.00  0.00    +0.000 A 
ATOM      3  C   UNL     1       4.966   5.027  18.726  0.00  0.00    +0.000 A 
ATOM      4  C   UNL     1       5.849   4.731  17.690  0.00  0.00    +0.000 A 
ATOM      5  C   UNL     1       5.805   5.463  16.507  0.00  0.00    +0.000 A 
ATOM      6  C   UNL     1       4.894   6.512  16.372  0.00  0.00    +0.000 A 
ATOM      7  C   UNL     1       4.000   6.809  17.407  0.00  0.00    +0.000 A 
ATOM      8  O   UNL     1       3.161   7.857  17.262  0.00  0.00    +0.000 OA
ATOM      9  C   UNL     1       2.363   8.317  18.252  0.00  0.00    +0.000 A 
ATOM     10  C   UNL     1       1.678   9.520  18.063  0.00  0.00    +0.000 A 
ATOM     11  C   UNL     1       0.855  10.032  19.066  0.00  0.00    +0.000 A 
ATOM     12  C   UNL     1       0.710   9.338  20.270  0.00  0.00    +0.000 A 
ATOM     13 CL   UNL     1      -0.316   9.992  21.534  0.00  0.00    +0.000 Cl
ATOM     14  C   UNL     1       1.385   8.126  20.466  0.00  0.00    +0.000 A 
ATOM     15  C   UNL     1       2.224   7.603  19.464  0.00  0.00    +0.000 A 
ENDROOT
BRANCH   1  16
ATOM     16  S   UNL     1       1.642   4.957  19.793  0.00  0.00    +0.000 S 
BRANCH  16  17
ATOM     17  C   UNL     1       2.217   4.039  21.261  0.00  0.00    +0.000 C 
BRANCH  17  18
ATOM     18  C   UNL     1       2.575   2.568  21.044  0.00  0.00    +0.000 C 
BRANCH  18  20
ATOM     19  C   UNL     1       4.794   1.733  20.508  0.00  0.00    +0.000 C 
ATOM     20  N   UNL     1       3.609   2.426  19.983  0.00  0.00    +0.000 NA
ATOM     21  C   UNL     1       3.132   1.727  18.770  0.00  0.00    +0.000 C 
ENDBRANCH  18  20
ENDBRANCH  17  18
ENDBRANCH  16  17
ENDBRANCH   1  16
TORSDOF 4
ENDMDL
