MODEL 1
REMARK VINA RESULT:      -8.3      0.000      0.000
REMARK  Name = 
REMARK  8 active torsions:
REMARK  status: ('A' for Active; 'I' for Inactive)
REMARK    1  A    between atoms: C_1  and  C_2
REMARK    2  A    between atoms: N_7  and  C_8
REMARK    3  A    between atoms: C_10  and  C_11
REMARK    4  A    between atoms: C_13  and  C_14
REMARK    5  A    between atoms: C_16  and  C_17
REMARK    6  A    between atoms: N_22  and  C_23
REMARK    7  A    between atoms: C_25  and  C_26
REMARK    8  A    between atoms: C_28  and  C_29
REMARK                            x       y       z     vdW  Elec       q    Type
REMARK                         _______ _______ _______ _____ _____    ______ ____
ROOT
ATOM      1  C   UNL     1       0.799   9.369  22.938  0.00  0.00    +0.000 C 
ATOM      2  C   UNL     1       0.350  10.096  21.695  0.00  0.00    +0.000 C 
ATOM      3  N   UNL     1      -0.536  11.048  21.787  0.00  0.00    +0.000 NA
ATOM      4  N   UNL     1      -0.721  11.777  20.614  0.00  0.00    +0.000 N 
ATOM      5  C   UNL     1      -1.928  12.470  20.405  0.00  0.00    +0.000 C 
ATOM      6  O   UNL     1      -2.143  13.107  19.374  0.00  0.00    +0.000 OA
ATOM      7  N   UNL     1      -2.878  12.317  21.414  0.00  0.00    +0.000 N 
ATOM      8  C   UNL     1       0.266  11.720  19.638  0.00  0.00    +0.000 C 
ATOM      9  C   UNL     1       0.436  12.863  18.661  0.00  0.00    +0.000 C 
ATOM     10  N   UNL     1       1.086  10.719  19.515  0.00  0.00    +0.000 NA
ATOM     11  N   UNL     1       0.965   9.748  20.492  0.00  0.00    +0.000 N 
ATOM     12  C   UNL     1       1.451   8.452  20.191  0.00  0.00    +0.000 C 
ATOM     13  O   UNL     1       1.331   7.505  20.966  0.00  0.00    +0.000 OA
ATOM     14  N   UNL     1       2.014   8.367  18.921  0.00  0.00    +0.000 N 
ATOM     15  H   UNL     1      -2.524  12.021  22.316  0.00  0.00    +0.000 HD
ATOM     16  H   UNL     1       2.207   9.268  18.501  0.00  0.00    +0.000 HD
ENDROOT
BRANCH   7  17
ATOM     17  C   UNL     1      -4.210  12.813  21.309  0.00  0.00    +0.000 A 
ATOM     18  C   UNL     1      -4.686  13.793  22.193  0.00  0.00    +0.000 A 
ATOM     19  C   UNL     1      -6.028  14.187  22.209  0.00  0.00    +0.000 A 
ATOM     20  C   UNL     1      -6.514  15.135  23.266  0.00  0.00    +0.000 C 
ATOM     21  C   UNL     1      -6.898  13.636  21.273  0.00  0.00    +0.000 A 
ATOM     22  C   UNL     1      -6.433  12.713  20.323  0.00  0.00    +0.000 A 
ATOM     23  C   UNL     1      -7.393  12.124  19.332  0.00  0.00    +0.000 C 
ATOM     24  C   UNL     1      -5.079  12.318  20.336  0.00  0.00    +0.000 A 
ENDBRANCH   7  17
BRANCH  14  25
ATOM     25  C   UNL     1       2.527   7.199  18.319  0.00  0.00    +0.000 A 
ATOM     26  C   UNL     1       1.874   5.966  18.405  0.00  0.00    +0.000 A 
ATOM     27  C   UNL     1       2.460   4.796  17.908  0.00  0.00    +0.000 A 
ATOM     28  C   UNL     1       1.772   3.475  18.087  0.00  0.00    +0.000 C 
ATOM     29  C   UNL     1       3.712   4.872  17.294  0.00  0.00    +0.000 A 
ATOM     30  C   UNL     1       4.362   6.104  17.148  0.00  0.00    +0.000 A 
ATOM     31  C   UNL     1       5.720   6.173  16.510  0.00  0.00    +0.000 C 
ATOM     32  C   UNL     1       3.748   7.270  17.639  0.00  0.00    +0.000 A 
ENDBRANCH  14  25
TORSDOF 2
ENDMDL
MODEL 2
REMARK VINA RESULT:      -8.3      0.978      2.416
REMARK  Name = 
REMARK  8 active torsions:
REMARK  status: ('A' for Active; 'I' for Inactive)
REMARK    1  A    between atoms: C_1  and  C_2
REMARK    2  A    between atoms: N_7  and  C_8
REMARK    3  A    between atoms: C_10  and  C_11
REMARK    4  A    between atoms: C_13  and  C_14
REMARK    5  A    between atoms: C_16  and  C_17
REMARK    6  A    between atoms: N_22  and  C_23
REMARK    7  A    between atoms: C_25  and  C_26
REMARK    8  A    between atoms: C_28  and  C_29
REMARK                            x       y       z     vdW  Elec       q    Type
REMARK                         _______ _______ _______ _____ _____    ______ ____
ROOT
ATOM      1  C   UNL     1       0.578   9.208  22.661  0.00  0.00    +0.000 C 
ATOM      2  C   UNL     1       0.340   9.909  21.347  0.00  0.00    +0.000 C 
ATOM      3  N   UNL     1      -0.503  10.901  21.287  0.00  0.00    +0.000 NA
ATOM      4  N   UNL     1      -0.489  11.595  20.079  0.00  0.00    +0.000 N 
ATOM      5  C   UNL     1      -1.622  12.332  19.683  0.00  0.00    +0.000 C 
ATOM      6  O   UNL     1      -1.660  12.941  18.614  0.00  0.00    +0.000 OA
ATOM      7  N   UNL     1      -2.708  12.257  20.553  0.00  0.00    +0.000 N 
ATOM      8  C   UNL     1       0.620  11.462  19.253  0.00  0.00    +0.000 C 
ATOM      9  C   UNL     1       0.979  12.561  18.277  0.00  0.00    +0.000 C 
ATOM     10  N   UNL     1       1.400  10.422  19.275  0.00  0.00    +0.000 NA
ATOM     11  N   UNL     1       1.099   9.492  20.253  0.00  0.00    +0.000 N 
ATOM     12  C   UNL     1       1.560   8.167  20.061  0.00  0.00    +0.000 C 
ATOM     13  O   UNL     1       1.287   7.254  20.838  0.00  0.00    +0.000 OA
ATOM     14  N   UNL     1       2.289   8.012  18.885  0.00  0.00    +0.000 N 
ATOM     15  H   UNL     1      -2.497  11.977  21.503  0.00  0.00    +0.000 HD
ATOM     16  H   UNL     1       2.580   8.889  18.470  0.00  0.00    +0.000 HD
ENDROOT
BRANCH   7  17
ATOM     17  C   UNL     1      -3.987  12.806  20.248  0.00  0.00    +0.000 A 
ATOM     18  C   UNL     1      -4.845  12.172  19.335  0.00  0.00    +0.000 A 
ATOM     19  C   UNL     1      -6.036  12.764  18.905  0.00  0.00    +0.000 A 
ATOM     20  C   UNL     1      -6.846  12.109  17.825  0.00  0.00    +0.000 C 
ATOM     21  C   UNL     1      -6.410  13.989  19.451  0.00  0.00    +0.000 A 
ATOM     22  C   UNL     1      -5.612  14.609  20.425  0.00  0.00    +0.000 A 
ATOM     23  C   UNL     1      -6.030  15.935  20.991  0.00  0.00    +0.000 C 
ATOM     24  C   UNL     1      -4.406  14.001  20.833  0.00  0.00    +0.000 A 
ENDBRANCH   7  17
BRANCH  14  25
ATOM     25  C   UNL     1       2.823   6.803  18.395  0.00  0.00    +0.000 A 
ATOM     26  C   UNL     1       4.011   6.756  17.659  0.00  0.00    +0.000 A 
ATOM     27  C   UNL     1       4.458   5.565  17.075  0.00  0.00    +0.000 A 
ATOM     28  C   UNL     1       5.693   5.562  16.223  0.00  0.00    +0.000 C 
ATOM     29  C   UNL     1       3.712   4.398  17.255  0.00  0.00    +0.000 A 
ATOM     30  C   UNL     1       2.547   4.410  18.033  0.00  0.00    +0.000 A 
ATOM     31  C   UNL     1       1.736   3.156  18.200  0.00  0.00    +0.000 C 
ATOM     32  C   UNL     1       2.124   5.613  18.625  0.00  0.00    +0.000 A 
ENDBRANCH  14  25
TORSDOF 2
ENDMDL
MODEL 3
REMARK VINA RESULT:      -8.2      0.841      1.779
REMARK  Name = 
REMARK  8 active torsions:
REMARK  status: ('A' for Active; 'I' for Inactive)
REMARK    1  A    between atoms: C_1  and  C_2
REMARK    2  A    between atoms: N_7  and  C_8
REMARK    3  A    between atoms: C_10  and  C_11
REMARK    4  A    between atoms: C_13  and  C_14
REMARK    5  A    between atoms: C_16  and  C_17
REMARK    6  A    between atoms: N_22  and  C_23
REMARK    7  A    between atoms: C_25  and  C_26
REMARK    8  A    between atoms: C_28  and  C_29
REMARK                            x       y       z     vdW  Elec       q    Type
REMARK                         _______ _______ _______ _____ _____    ______ ____
ROOT
ATOM      1  C   UNL     1       0.662   9.219  22.640  0.00  0.00    +0.000 C 
ATOM      2  C   UNL     1       0.416   9.930  21.332  0.00  0.00    +0.000 C 
ATOM      3  N   UNL     1      -0.422  10.927  21.286  0.00  0.00    +0.000 NA
ATOM      4  N   UNL     1      -0.416  11.629  20.083  0.00  0.00    +0.000 N 
ATOM      5  C   UNL     1      -1.548  12.374  19.702  0.00  0.00    +0.000 C 
ATOM      6  O   UNL     1      -1.593  12.991  18.638  0.00  0.00    +0.000 OA
ATOM      7  N   UNL     1      -2.627  12.299  20.582  0.00  0.00    +0.000 N 
ATOM      8  C   UNL     1       0.685  11.495  19.246  0.00  0.00    +0.000 C 
ATOM      9  C   UNL     1       1.041  12.599  18.273  0.00  0.00    +0.000 C 
ATOM     10  N   UNL     1       1.460  10.451  19.254  0.00  0.00    +0.000 NA
ATOM     11  N   UNL     1       1.162   9.516  20.228  0.00  0.00    +0.000 N 
ATOM     12  C   UNL     1       1.614   8.190  20.023  0.00  0.00    +0.000 C 
ATOM     13  O   UNL     1       1.344   7.273  20.797  0.00  0.00    +0.000 OA
ATOM     14  N   UNL     1       2.331   8.039  18.840  0.00  0.00    +0.000 N 
ATOM     15  H   UNL     1      -2.408  12.012  21.529  0.00  0.00    +0.000 HD
ATOM     16  H   UNL     1       2.624   8.917  18.427  0.00  0.00    +0.000 HD
ENDROOT
BRANCH   7  17
ATOM     17  C   UNL     1      -3.905  12.857  20.292  0.00  0.00    +0.000 A 
ATOM     18  C   UNL     1      -4.337  14.035  20.921  0.00  0.00    +0.000 A 
ATOM     19  C   UNL     1      -5.640  14.520  20.770  0.00  0.00    +0.000 A 
ATOM     20  C   UNL     1      -6.092  15.703  21.574  0.00  0.00    +0.000 C 
ATOM     21  C   UNL     1      -6.510  13.847  19.917  0.00  0.00    +0.000 A 
ATOM     22  C   UNL     1      -6.081  12.712  19.212  0.00  0.00    +0.000 A 
ATOM     23  C   UNL     1      -7.041  11.997  18.306  0.00  0.00    +0.000 C 
ATOM     24  C   UNL     1      -4.767  12.231  19.391  0.00  0.00    +0.000 A 
ENDBRANCH   7  17
BRANCH  14  25
ATOM     25  C   UNL     1       2.855   6.830  18.336  0.00  0.00    +0.000 A 
ATOM     26  C   UNL     1       4.045   6.779  17.604  0.00  0.00    +0.000 A 
ATOM     27  C   UNL     1       4.481   5.591  17.008  0.00  0.00    +0.000 A 
ATOM     28  C   UNL     1       5.719   5.585  16.160  0.00  0.00    +0.000 C 
ATOM     29  C   UNL     1       3.721   4.430  17.170  0.00  0.00    +0.000 A 
ATOM     30  C   UNL     1       2.554   4.445  17.945  0.00  0.00    +0.000 A 
ATOM     31  C   UNL     1       1.730   3.198  18.093  0.00  0.00    +0.000 C 
ATOM     32  C   UNL     1       2.142   5.645  18.550  0.00  0.00    +0.000 A 
ENDBRANCH  14  25
TORSDOF 2
ENDMDL
MODEL 4
REMARK VINA RESULT:      -8.2      1.152      9.963
REMARK  Name = 
REMARK  8 active torsions:
REMARK  status: ('A' for Active; 'I' for Inactive)
REMARK    1  A    between atoms: C_1  and  C_2
REMARK    2  A    between atoms: N_7  and  C_8
REMARK    3  A    between atoms: C_10  and  C_11
REMARK    4  A    between atoms: C_13  and  C_14
REMARK    5  A    between atoms: C_16  and  C_17
REMARK    6  A    between atoms: N_22  and  C_23
REMARK    7  A    between atoms: C_25  and  C_26
REMARK    8  A    between atoms: C_28  and  C_29
REMARK                            x       y       z     vdW  Elec       q    Type
REMARK                         _______ _______ _______ _____ _____    ______ ____
ROOT
ATOM      1  C   UNL     1       1.425  12.477  18.153  0.00  0.00    +0.000 C 
ATOM      2  C   UNL     1       1.020  11.265  18.955  0.00  0.00    +0.000 C 
ATOM      3  N   UNL     1       1.798  10.220  18.984  0.00  0.00    +0.000 NA
ATOM      4  N   UNL     1       1.422   9.249  19.910  0.00  0.00    +0.000 N 
ATOM      5  C   UNL     1       1.834   7.915  19.731  0.00  0.00    +0.000 C 
ATOM      6  O   UNL     1       1.506   7.022  20.511  0.00  0.00    +0.000 OA
ATOM      7  N   UNL     1       2.573   7.676  18.572  0.00  0.00    +0.000 N 
ATOM      8  C   UNL     1       0.567   9.616  20.942  0.00  0.00    +0.000 C 
ATOM      9  C   UNL     1       0.577   8.851  22.248  0.00  0.00    +0.000 C 
ATOM     10  N   UNL     1      -0.261  10.615  20.856  0.00  0.00    +0.000 NA
ATOM     11  N   UNL     1      -0.163  11.350  19.689  0.00  0.00    +0.000 N 
ATOM     12  C   UNL     1      -1.288  12.120  19.304  0.00  0.00    +0.000 C 
ATOM     13  O   UNL     1      -1.324  12.754  18.251  0.00  0.00    +0.000 OA
ATOM     14  N   UNL     1      -2.342  12.027  20.208  0.00  0.00    +0.000 N 
ATOM     15  H   UNL     1       3.017   8.485  18.155  0.00  0.00    +0.000 HD
ATOM     16  H   UNL     1      -2.078  11.628  21.101  0.00  0.00    +0.000 HD
ENDROOT
BRANCH   7  17
ATOM     17  C   UNL     1       2.944   6.369  18.143  0.00  0.00    +0.000 A 
ATOM     18  C   UNL     1       2.041   5.299  18.230  0.00  0.00    +0.000 A 
ATOM     19  C   UNL     1       2.425   3.982  17.958  0.00  0.00    +0.000 A 
ATOM     20  C   UNL     1       1.460   2.859  18.201  0.00  0.00    +0.000 C 
ATOM     21  C   UNL     1       3.726   3.740  17.526  0.00  0.00    +0.000 A 
ATOM     22  C   UNL     1       4.629   4.801  17.353  0.00  0.00    +0.000 A 
ATOM     23  C   UNL     1       6.029   4.514  16.896  0.00  0.00    +0.000 C 
ATOM     24  C   UNL     1       4.224   6.120  17.648  0.00  0.00    +0.000 A 
ENDBRANCH   7  17
BRANCH  14  25
ATOM     25  C   UNL     1      -3.609  12.631  20.067  0.00  0.00    +0.000 A 
ATOM     26  C   UNL     1      -3.996  13.740  20.824  0.00  0.00    +0.000 A 
ATOM     27  C   UNL     1      -5.299  14.247  20.760  0.00  0.00    +0.000 A 
ATOM     28  C   UNL     1      -5.708  15.387  21.643  0.00  0.00    +0.000 C 
ATOM     29  C   UNL     1      -6.221  13.641  19.902  0.00  0.00    +0.000 A 
ATOM     30  C   UNL     1      -5.841  12.562  19.094  0.00  0.00    +0.000 A 
ATOM     31  C   UNL     1      -6.846  11.901  18.195  0.00  0.00    +0.000 C 
ATOM     32  C   UNL     1      -4.522  12.080  19.161  0.00  0.00    +0.000 A 
ENDBRANCH  14  25
TORSDOF 2
ENDMDL
MODEL 5
REMARK VINA RESULT:      -8.2      1.145      9.936
REMARK  Name = 
REMARK  8 active torsions:
REMARK  status: ('A' for Active; 'I' for Inactive)
REMARK    1  A    between atoms: C_1  and  C_2
REMARK    2  A    between atoms: N_7  and  C_8
REMARK    3  A    between atoms: C_10  and  C_11
REMARK    4  A    between atoms: C_13  and  C_14
REMARK    5  A    between atoms: C_16  and  C_17
REMARK    6  A    between atoms: N_22  and  C_23
REMARK    7  A    between atoms: C_25  and  C_26
REMARK    8  A    between atoms: C_28  and  C_29
REMARK                            x       y       z     vdW  Elec       q    Type
REMARK                         _______ _______ _______ _____ _____    ______ ____
ROOT
ATOM      1  C   UNL     1       1.393  12.491  18.135  0.00  0.00    +0.000 C 
ATOM      2  C   UNL     1       0.989  11.287  18.949  0.00  0.00    +0.000 C 
ATOM      3  N   UNL     1       1.774  10.247  18.998  0.00  0.00    +0.000 NA
ATOM      4  N   UNL     1       1.397   9.286  19.934  0.00  0.00    +0.000 N 
ATOM      5  C   UNL     1       1.819   7.952  19.775  0.00  0.00    +0.000 C 
ATOM      6  O   UNL     1       1.491   7.068  20.565  0.00  0.00    +0.000 OA
ATOM      7  N   UNL     1       2.568   7.704  18.626  0.00  0.00    +0.000 N 
ATOM      8  C   UNL     1       0.531   9.661  20.954  0.00  0.00    +0.000 C 
ATOM      9  C   UNL     1       0.537   8.913  22.270  0.00  0.00    +0.000 C 
ATOM     10  N   UNL     1      -0.302  10.653  20.849  0.00  0.00    +0.000 NA
ATOM     11  N   UNL     1      -0.200  11.373  19.673  0.00  0.00    +0.000 N 
ATOM     12  C   UNL     1      -1.327  12.131  19.269  0.00  0.00    +0.000 C 
ATOM     13  O   UNL     1      -1.359  12.751  18.208  0.00  0.00    +0.000 OA
ATOM     14  N   UNL     1      -2.387  12.043  20.166  0.00  0.00    +0.000 N 
ATOM     15  H   UNL     1       3.010   8.511  18.201  0.00  0.00    +0.000 HD
ATOM     16  H   UNL     1      -2.128  11.658  21.066  0.00  0.00    +0.000 HD
ENDROOT
BRANCH   7  17
ATOM     17  C   UNL     1       2.951   6.394  18.217  0.00  0.00    +0.000 A 
ATOM     18  C   UNL     1       4.128   6.183  17.481  0.00  0.00    +0.000 A 
ATOM     19  C   UNL     1       4.449   4.935  16.940  0.00  0.00    +0.000 A 
ATOM     20  C   UNL     1       5.645   4.796  16.045  0.00  0.00    +0.000 C 
ATOM     21  C   UNL     1       3.606   3.857  17.196  0.00  0.00    +0.000 A 
ATOM     22  C   UNL     1       2.464   4.020  17.995  0.00  0.00    +0.000 A 
ATOM     23  C   UNL     1       1.564   2.846  18.249  0.00  0.00    +0.000 C 
ATOM     24  C   UNL     1       2.150   5.292  18.519  0.00  0.00    +0.000 A 
ENDBRANCH   7  17
BRANCH  14  25
ATOM     25  C   UNL     1      -3.657  12.636  20.008  0.00  0.00    +0.000 A 
ATOM     26  C   UNL     1      -4.046  13.772  20.725  0.00  0.00    +0.000 A 
ATOM     27  C   UNL     1      -5.351  14.271  20.646  0.00  0.00    +0.000 A 
ATOM     28  C   UNL     1      -5.761  15.441  21.489  0.00  0.00    +0.000 C 
ATOM     29  C   UNL     1      -6.274  13.630  19.815  0.00  0.00    +0.000 A 
ATOM     30  C   UNL     1      -5.892  12.524  19.046  0.00  0.00    +0.000 A 
ATOM     31  C   UNL     1      -6.898  11.826  18.175  0.00  0.00    +0.000 C 
ATOM     32  C   UNL     1      -4.572  12.049  19.126  0.00  0.00    +0.000 A 
ENDBRANCH  14  25
TORSDOF 2
ENDMDL
MODEL 6
REMARK VINA RESULT:      -8.2      1.037      1.049
REMARK  Name = 
REMARK  8 active torsions:
REMARK  status: ('A' for Active; 'I' for Inactive)
REMARK    1  A    between atoms: C_1  and  C_2
REMARK    2  A    between atoms: N_7  and  C_8
REMARK    3  A    between atoms: C_10  and  C_11
REMARK    4  A    between atoms: C_13  and  C_14
REMARK    5  A    between atoms: C_16  and  C_17
REMARK    6  A    between atoms: N_22  and  C_23
REMARK    7  A    between atoms: C_25  and  C_26
REMARK    8  A    between atoms: C_28  and  C_29
REMARK                            x       y       z     vdW  Elec       q    Type
REMARK                         _______ _______ _______ _____ _____    ______ ____
ROOT
ATOM      1  C   UNL     1       0.819   9.017  22.350  0.00  0.00    +0.000 C 
ATOM      2  C   UNL     1       0.580   9.782  21.071  0.00  0.00    +0.000 C 
ATOM      3  N   UNL     1      -0.262  10.777  21.062  0.00  0.00    +0.000 NA
ATOM      4  N   UNL     1      -0.250  11.529  19.890  0.00  0.00    +0.000 N 
ATOM      5  C   UNL     1      -1.382  12.286  19.533  0.00  0.00    +0.000 C 
ATOM      6  O   UNL     1      -1.423  12.947  18.495  0.00  0.00    +0.000 OA
ATOM      7  N   UNL     1      -2.467  12.171  20.402  0.00  0.00    +0.000 N 
ATOM      8  C   UNL     1       0.856  11.434  19.055  0.00  0.00    +0.000 C 
ATOM      9  C   UNL     1       1.214  12.579  18.132  0.00  0.00    +0.000 C 
ATOM     10  N   UNL     1       1.635  10.393  19.024  0.00  0.00    +0.000 NA
ATOM     11  N   UNL     1       1.334   9.417  19.956  0.00  0.00    +0.000 N 
ATOM     12  C   UNL     1       1.792   8.102  19.698  0.00  0.00    +0.000 C 
ATOM     13  O   UNL     1       1.520   7.152  20.431  0.00  0.00    +0.000 OA
ATOM     14  N   UNL     1       2.517   8.004  18.515  0.00  0.00    +0.000 N 
ATOM     15  H   UNL     1      -2.253  11.845  21.337  0.00  0.00    +0.000 HD
ATOM     16  H   UNL     1       2.809   8.899  18.141  0.00  0.00    +0.000 HD
ENDROOT
BRANCH   7  17
ATOM     17  C   UNL     1      -3.745  12.736  20.127  0.00  0.00    +0.000 A 
ATOM     18  C   UNL     1      -4.160  13.920  20.757  0.00  0.00    +0.000 A 
ATOM     19  C   UNL     1      -5.461  14.413  20.622  0.00  0.00    +0.000 A 
ATOM     20  C   UNL     1      -5.894  15.603  21.428  0.00  0.00    +0.000 C 
ATOM     21  C   UNL     1      -6.348  13.743  19.784  0.00  0.00    +0.000 A 
ATOM     22  C   UNL     1      -5.937  12.602  19.077  0.00  0.00    +0.000 A 
ATOM     23  C   UNL     1      -6.913  11.890  18.188  0.00  0.00    +0.000 C 
ATOM     24  C   UNL     1      -4.624  12.112  19.241  0.00  0.00    +0.000 A 
ENDBRANCH   7  17
BRANCH  14  25
ATOM     25  C   UNL     1       3.048   6.818  17.964  0.00  0.00    +0.000 A 
ATOM     26  C   UNL     1       2.379   5.594  18.042  0.00  0.00    +0.000 A 
ATOM     27  C   UNL     1       2.978   4.408  17.601  0.00  0.00    +0.000 A 
ATOM     28  C   UNL     1       2.268   3.098  17.771  0.00  0.00    +0.000 C 
ATOM     29  C   UNL     1       4.261   4.459  17.051  0.00  0.00    +0.000 A 
ATOM     30  C   UNL     1       4.929   5.683  16.913  0.00  0.00    +0.000 A 
ATOM     31  C   UNL     1       6.319   5.725  16.344  0.00  0.00    +0.000 C 
ATOM     32  C   UNL     1       4.303   6.864  17.347  0.00  0.00    +0.000 A 
ENDBRANCH  14  25
TORSDOF 2
ENDMDL
MODEL 7
REMARK VINA RESULT:      -8.2      1.186      9.893
REMARK  Name = 
REMARK  8 active torsions:
REMARK  status: ('A' for Active; 'I' for Inactive)
REMARK    1  A    between atoms: C_1  and  C_2
REMARK    2  A    between atoms: N_7  and  C_8
REMARK    3  A    between atoms: C_10  and  C_11
REMARK    4  A    between atoms: C_13  and  C_14
REMARK    5  A    between atoms: C_16  and  C_17
REMARK    6  A    between atoms: N_22  and  C_23
REMARK    7  A    between atoms: C_25  and  C_26
REMARK    8  A    between atoms: C_28  and  C_29
REMARK                            x       y       z     vdW  Elec       q    Type
REMARK                         _______ _______ _______ _____ _____    ______ ____
ROOT
ATOM      1  C   UNL     1       1.331  12.493  18.148  0.00  0.00    +0.000 C 
ATOM      2  C   UNL     1       0.936  11.299  18.982  0.00  0.00    +0.000 C 
ATOM      3  N   UNL     1       1.721  10.260  19.034  0.00  0.00    +0.000 NA
ATOM      4  N   UNL     1       1.355   9.311  19.986  0.00  0.00    +0.000 N 
ATOM      5  C   UNL     1       1.774   7.975  19.839  0.00  0.00    +0.000 C 
ATOM      6  O   UNL     1       1.455   7.100  20.643  0.00  0.00    +0.000 OA
ATOM      7  N   UNL     1       2.509   7.711  18.684  0.00  0.00    +0.000 N 
ATOM      8  C   UNL     1       0.502   9.698  21.012  0.00  0.00    +0.000 C 
ATOM      9  C   UNL     1       0.523   8.967  22.337  0.00  0.00    +0.000 C 
ATOM     10  N   UNL     1      -0.333  10.690  20.905  0.00  0.00    +0.000 NA
ATOM     11  N   UNL     1      -0.244  11.396  19.720  0.00  0.00    +0.000 N 
ATOM     12  C   UNL     1      -1.375  12.149  19.320  0.00  0.00    +0.000 C 
ATOM     13  O   UNL     1      -1.420  12.756  18.252  0.00  0.00    +0.000 OA
ATOM     14  N   UNL     1      -2.425  12.073  20.231  0.00  0.00    +0.000 N 
ATOM     15  H   UNL     1       2.946   8.512  18.244  0.00  0.00    +0.000 HD
ATOM     16  H   UNL     1      -2.154  11.699  21.133  0.00  0.00    +0.000 HD
ENDROOT
BRANCH   7  17
ATOM     17  C   UNL     1       2.886   6.396  18.286  0.00  0.00    +0.000 A 
ATOM     18  C   UNL     1       4.072   6.171  17.571  0.00  0.00    +0.000 A 
ATOM     19  C   UNL     1       4.390   4.918  17.040  0.00  0.00    +0.000 A 
ATOM     20  C   UNL     1       5.599   4.764  16.165  0.00  0.00    +0.000 C 
ATOM     21  C   UNL     1       3.533   3.849  17.286  0.00  0.00    +0.000 A 
ATOM     22  C   UNL     1       2.379   4.026  18.067  0.00  0.00    +0.000 A 
ATOM     23  C   UNL     1       1.465   2.861  18.310  0.00  0.00    +0.000 C 
ATOM     24  C   UNL     1       2.070   5.303  18.580  0.00  0.00    +0.000 A 
ENDBRANCH   7  17
BRANCH  14  25
ATOM     25  C   UNL     1      -3.696  12.665  20.081  0.00  0.00    +0.000 A 
ATOM     26  C   UNL     1      -4.660  12.153  19.208  0.00  0.00    +0.000 A 
ATOM     27  C   UNL     1      -5.867  12.825  18.981  0.00  0.00    +0.000 A 
ATOM     28  C   UNL     1      -6.847  12.294  17.979  0.00  0.00    +0.000 C 
ATOM     29  C   UNL     1      -6.117  14.020  19.661  0.00  0.00    +0.000 A 
ATOM     30  C   UNL     1      -5.189  14.524  20.581  0.00  0.00    +0.000 A 
ATOM     31  C   UNL     1      -5.455  15.823  21.288  0.00  0.00    +0.000 C 
ATOM     32  C   UNL     1      -3.991  13.825  20.807  0.00  0.00    +0.000 A 
ENDBRANCH  14  25
TORSDOF 2
ENDMDL
MODEL 8
REMARK VINA RESULT:      -8.2      1.199      9.934
REMARK  Name = 
REMARK  8 active torsions:
REMARK  status: ('A' for Active; 'I' for Inactive)
REMARK    1  A    between atoms: C_1  and  C_2
REMARK    2  A    between atoms: N_7  and  C_8
REMARK    3  A    between atoms: C_10  and  C_11
REMARK    4  A    between atoms: C_13  and  C_14
REMARK    5  A    between atoms: C_16  and  C_17
REMARK    6  A    between atoms: N_22  and  C_23
REMARK    7  A    between atoms: C_25  and  C_26
REMARK    8  A    between atoms: C_28  and  C_29
REMARK                            x       y       z     vdW  Elec       q    Type
REMARK                         _______ _______ _______ _____ _____    ______ ____
ROOT
ATOM      1  C   UNL     1       1.322  12.544  18.160  0.00  0.00    +0.000 C 
ATOM      2  C   UNL     1       0.934  11.323  18.957  0.00  0.00    +0.000 C 
ATOM      3  N   UNL     1       1.733  10.294  18.992  0.00  0.00    +0.000 NA
ATOM      4  N   UNL     1       1.369   9.315  19.915  0.00  0.00    +0.000 N 
ATOM      5  C   UNL     1       1.809   7.989  19.738  0.00  0.00    +0.000 C 
ATOM      6  O   UNL     1       1.493   7.089  20.515  0.00  0.00    +0.000 OA
ATOM      7  N   UNL     1       2.562   7.767  18.586  0.00  0.00    +0.000 N 
ATOM      8  C   UNL     1       0.498   9.664  20.939  0.00  0.00    +0.000 C 
ATOM      9  C   UNL     1       0.513   8.898  22.245  0.00  0.00    +0.000 C 
ATOM     10  N   UNL     1      -0.349  10.646  20.847  0.00  0.00    +0.000 NA
ATOM     11  N   UNL     1      -0.256  11.384  19.682  0.00  0.00    +0.000 N 
ATOM     12  C   UNL     1      -1.393  12.131  19.288  0.00  0.00    +0.000 C 
ATOM     13  O   UNL     1      -1.434  12.766  18.235  0.00  0.00    +0.000 OA
ATOM     14  N   UNL     1      -2.452  12.017  20.183  0.00  0.00    +0.000 N 
ATOM     15  H   UNL     1       2.993   8.585  18.172  0.00  0.00    +0.000 HD
ATOM     16  H   UNL     1      -2.188  11.623  21.078  0.00  0.00    +0.000 HD
ENDROOT
BRANCH   7  17
ATOM     17  C   UNL     1       2.962   6.468  18.159  0.00  0.00    +0.000 A 
ATOM     18  C   UNL     1       2.081   5.379  18.239  0.00  0.00    +0.000 A 
ATOM     19  C   UNL     1       2.494   4.070  17.970  0.00  0.00    +0.000 A 
ATOM     20  C   UNL     1       1.551   2.928  18.206  0.00  0.00    +0.000 C 
ATOM     21  C   UNL     1       3.803   3.855  17.546  0.00  0.00    +0.000 A 
ATOM     22  C   UNL     1       4.684   4.934  17.379  0.00  0.00    +0.000 A 
ATOM     23  C   UNL     1       6.094   4.677  16.932  0.00  0.00    +0.000 C 
ATOM     24  C   UNL     1       4.251   6.245  17.672  0.00  0.00    +0.000 A 
ENDBRANCH   7  17
BRANCH  14  25
ATOM     25  C   UNL     1      -3.730  12.595  20.032  0.00  0.00    +0.000 A 
ATOM     26  C   UNL     1      -4.670  12.103  19.122  0.00  0.00    +0.000 A 
ATOM     27  C   UNL     1      -5.883  12.765  18.898  0.00  0.00    +0.000 A 
ATOM     28  C   UNL     1      -6.836  12.259  17.857  0.00  0.00    +0.000 C 
ATOM     29  C   UNL     1      -6.164  13.928  19.620  0.00  0.00    +0.000 A 
ATOM     30  C   UNL     1      -5.262  14.410  20.576  0.00  0.00    +0.000 A 
ATOM     31  C   UNL     1      -5.561  15.675  21.328  0.00  0.00    +0.000 C 
ATOM     32  C   UNL     1      -4.057  13.720  20.798  0.00  0.00    +0.000 A 
ENDBRANCH  14  25
TORSDOF 2
ENDMDL
MODEL 9
REMARK VINA RESULT:      -8.2      0.695      1.655
REMARK  Name = 
REMARK  8 active torsions:
REMARK  status: ('A' for Active; 'I' for Inactive)
REMARK    1  A    between atoms: C_1  and  C_2
REMARK    2  A    between atoms: N_7  and  C_8
REMARK    3  A    between atoms: C_10  and  C_11
REMARK    4  A    between atoms: C_13  and  C_14
REMARK    5  A    between atoms: C_16  and  C_17
REMARK    6  A    between atoms: N_22  and  C_23
REMARK    7  A    between atoms: C_25  and  C_26
REMARK    8  A    between atoms: C_28  and  C_29
REMARK                            x       y       z     vdW  Elec       q    Type
REMARK                         _______ _______ _______ _____ _____    ______ ____
ROOT
ATOM      1  C   UNL     1       0.705   9.259  22.744  0.00  0.00    +0.000 C 
ATOM      2  C   UNL     1       0.395  10.025  21.482  0.00  0.00    +0.000 C 
ATOM      3  N   UNL     1      -0.441  11.024  21.521  0.00  0.00    +0.000 NA
ATOM      4  N   UNL     1      -0.494  11.776  20.350  0.00  0.00    +0.000 N 
ATOM      5  C   UNL     1      -1.641  12.539  20.059  0.00  0.00    +0.000 C 
ATOM      6  O   UNL     1      -1.739  13.199  19.026  0.00  0.00    +0.000 OA
ATOM      7  N   UNL     1      -2.674  12.428  20.990  0.00  0.00    +0.000 N 
ATOM      8  C   UNL     1       0.562  11.676  19.452  0.00  0.00    +0.000 C 
ATOM      9  C   UNL     1       0.871  12.819  18.510  0.00  0.00    +0.000 C 
ATOM     10  N   UNL     1       1.333  10.631  19.376  0.00  0.00    +0.000 NA
ATOM     11  N   UNL     1       1.082   9.657  20.325  0.00  0.00    +0.000 N 
ATOM     12  C   UNL     1       1.518   8.339  20.040  0.00  0.00    +0.000 C 
ATOM     13  O   UNL     1       1.285   7.391  20.788  0.00  0.00    +0.000 OA
ATOM     14  N   UNL     1       2.173   8.238  18.817  0.00  0.00    +0.000 N 
ATOM     15  H   UNL     1      -2.408  12.101  21.911  0.00  0.00    +0.000 HD
ATOM     16  H   UNL     1       2.446   9.132  18.427  0.00  0.00    +0.000 HD
ENDROOT
BRANCH   7  17
ATOM     17  C   UNL     1      -3.963  13.000  20.790  0.00  0.00    +0.000 A 
ATOM     18  C   UNL     1      -4.975  12.284  20.131  0.00  0.00    +0.000 A 
ATOM     19  C   UNL     1      -6.196  12.873  19.790  0.00  0.00    +0.000 A 
ATOM     20  C   UNL     1      -7.187  12.108  18.963  0.00  0.00    +0.000 C 
ATOM     21  C   UNL     1      -6.436  14.189  20.175  0.00  0.00    +0.000 A 
ATOM     22  C   UNL     1      -5.474  14.904  20.906  0.00  0.00    +0.000 A 
ATOM     23  C   UNL     1      -5.750  16.326  21.301  0.00  0.00    +0.000 C 
ATOM     24  C   UNL     1      -4.242  14.296  21.226  0.00  0.00    +0.000 A 
ENDBRANCH   7  17
BRANCH  14  25
ATOM     25  C   UNL     1       2.665   7.051  18.236  0.00  0.00    +0.000 A 
ATOM     26  C   UNL     1       1.992   5.831  18.346  0.00  0.00    +0.000 A 
ATOM     27  C   UNL     1       2.558   4.642  17.872  0.00  0.00    +0.000 A 
ATOM     28  C   UNL     1       1.849   3.336  18.076  0.00  0.00    +0.000 C 
ATOM     29  C   UNL     1       3.811   4.685  17.255  0.00  0.00    +0.000 A 
ATOM     30  C   UNL     1       4.480   5.904  17.085  0.00  0.00    +0.000 A 
ATOM     31  C   UNL     1       5.838   5.938  16.445  0.00  0.00    +0.000 C 
ATOM     32  C   UNL     1       3.886   7.089  17.554  0.00  0.00    +0.000 A 
ENDBRANCH  14  25
TORSDOF 2
ENDMDL
