MODEL 1
REMARK VINA RESULT:      -5.2      0.000      0.000
REMARK  Name = 
REMARK  5 active torsions:
REMARK  status: ('A' for Active; 'I' for Inactive)
REMARK    1  A    between atoms: C_1  and  N_2
REMARK    2  A    between atoms: N_2  and  C_3
REMARK    3  A    between atoms: N_2  and  C_4
REMARK    4  A    between atoms: C_4  and  C_5
REMARK    5  A    between atoms: C_5  and  C_6
REMARK                            x       y       z     vdW  Elec       q    Type
REMARK                         _______ _______ _______ _____ _____    ______ ____
ROOT
ATOM      1  C   UNL     1       3.895   5.035  17.409  0.00  0.00    +0.000 A 
ATOM      2  C   UNL     1       3.942   3.644  17.192  0.00  0.00    +0.000 A 
ATOM      3  C   UNL     1       2.858   2.826  17.514  0.00  0.00    +0.000 A 
ATOM      4  C   UNL     1       1.707   3.382  18.060  0.00  0.00    +0.000 A 
ATOM      5  C   UNL     1       1.639   4.758  18.280  0.00  0.00    +0.000 A 
ATOM      6  C   UNL     1       2.724   5.580  17.960  0.00  0.00    +0.000 A 
ATOM      7 BR   UNL     1       2.527   7.440  18.300  0.00  0.00    +0.000 Br
ENDROOT
BRANCH   1   8
ATOM      8  C   UNL     1       5.123   5.852  17.065  0.00  0.00    +0.000 C 
BRANCH   8   9
ATOM      9  C   UNL     1       5.315   5.994  15.544  0.00  0.00    +0.000 C 
BRANCH   9  11
ATOM     10  C   UNL     1       7.300   4.748  16.107  0.00  0.00    +0.000 C 
ATOM     11  N   UNL     1       6.479   5.260  15.002  0.00  0.00    +0.000 NA
ATOM     12  C   UNL     1       6.088   4.150  14.132  0.00  0.00    +0.000 C 
ENDBRANCH   9  11
ENDBRANCH   8   9
ENDBRANCH   1   8
TORSDOF 3
ENDMDL
MODEL 2
REMARK VINA RESULT:      -5.2      2.763      3.496
REMARK  Name = 
REMARK  5 active torsions:
REMARK  status: ('A' for Active; 'I' for Inactive)
REMARK    1  A    between atoms: C_1  and  N_2
REMARK    2  A    between atoms: N_2  and  C_3
REMARK    3  A    between atoms: N_2  and  C_4
REMARK    4  A    between atoms: C_4  and  C_5
REMARK    5  A    between atoms: C_5  and  C_6
REMARK                            x       y       z     vdW  Elec       q    Type
REMARK                         _______ _______ _______ _____ _____    ______ ____
ROOT
ATOM      1  C   UNL     1       3.535   4.453  19.117  0.00  0.00    +0.000 A 
ATOM      2  C   UNL     1       3.003   5.548  19.826  0.00  0.00    +0.000 A 
ATOM      3  C   UNL     1       1.793   5.443  20.512  0.00  0.00    +0.000 A 
ATOM      4  C   UNL     1       1.090   4.244  20.501  0.00  0.00    +0.000 A 
ATOM      5  C   UNL     1       1.601   3.147  19.807  0.00  0.00    +0.000 A 
ATOM      6  C   UNL     1       2.813   3.249  19.117  0.00  0.00    +0.000 A 
ATOM      7 BR   UNL     1       3.418   1.696  18.204  0.00  0.00    +0.000 Br
ENDROOT
BRANCH   1   8
ATOM      8  C   UNL     1       4.837   4.653  18.369  0.00  0.00    +0.000 C 
BRANCH   8   9
ATOM      9  C   UNL     1       5.954   5.185  19.285  0.00  0.00    +0.000 C 
BRANCH   9  11
ATOM     10  C   UNL     1       7.244   4.550  17.351  0.00  0.00    +0.000 C 
ATOM     11  N   UNL     1       7.301   5.185  18.674  0.00  0.00    +0.000 NA
ATOM     12  C   UNL     1       7.860   6.531  18.544  0.00  0.00    +0.000 C 
ENDBRANCH   9  11
ENDBRANCH   8   9
ENDBRANCH   1   8
TORSDOF 3
ENDMDL
MODEL 3
REMARK VINA RESULT:      -5.1      1.436      1.917
REMARK  Name = 
REMARK  5 active torsions:
REMARK  status: ('A' for Active; 'I' for Inactive)
REMARK    1  A    between atoms: C_1  and  N_2
REMARK    2  A    between atoms: N_2  and  C_3
REMARK    3  A    between atoms: N_2  and  C_4
REMARK    4  A    between atoms: C_4  and  C_5
REMARK    5  A    between atoms: C_5  and  C_6
REMARK                            x       y       z     vdW  Elec       q    Type
REMARK                         _______ _______ _______ _____ _____    ______ ____
ROOT
ATOM      1  C   UNL     1       2.710   3.985  18.100  0.00  0.00    +0.000 A 
ATOM      2  C   UNL     1       2.258   2.656  17.995  0.00  0.00    +0.000 A 
ATOM      3  C   UNL     1       1.295   2.150  18.870  0.00  0.00    +0.000 A 
ATOM      4  C   UNL     1       0.767   2.963  19.866  0.00  0.00    +0.000 A 
ATOM      5  C   UNL     1       1.200   4.284  19.985  0.00  0.00    +0.000 A 
ATOM      6  C   UNL     1       2.166   4.794  19.111  0.00  0.00    +0.000 A 
ATOM      7 BR   UNL     1       2.686   6.605  19.361  0.00  0.00    +0.000 Br
ENDROOT
BRANCH   1   8
ATOM      8  C   UNL     1       3.781   4.452  17.136  0.00  0.00    +0.000 C 
BRANCH   8   9
ATOM      9  C   UNL     1       5.197   4.100  17.628  0.00  0.00    +0.000 C 
BRANCH   9  11
ATOM     10  C   UNL     1       7.539   4.667  17.655  0.00  0.00    +0.000 C 
ATOM     11  N   UNL     1       6.288   4.776  16.894  0.00  0.00    +0.000 NA
ATOM     12  C   UNL     1       6.486   4.229  15.551  0.00  0.00    +0.000 C 
ENDBRANCH   9  11
ENDBRANCH   8   9
ENDBRANCH   1   8
TORSDOF 3
ENDMDL
MODEL 4
REMARK VINA RESULT:      -5.1      3.012      4.961
REMARK  Name = 
REMARK  5 active torsions:
REMARK  status: ('A' for Active; 'I' for Inactive)
REMARK    1  A    between atoms: C_1  and  N_2
REMARK    2  A    between atoms: N_2  and  C_3
REMARK    3  A    between atoms: N_2  and  C_4
REMARK    4  A    between atoms: C_4  and  C_5
REMARK    5  A    between atoms: C_5  and  C_6
REMARK                            x       y       z     vdW  Elec       q    Type
REMARK                         _______ _______ _______ _____ _____    ______ ____
ROOT
ATOM      1  C   UNL     1       3.238   4.618  17.547  0.00  0.00    +0.000 A 
ATOM      2  C   UNL     1       2.351   5.501  18.194  0.00  0.00    +0.000 A 
ATOM      3  C   UNL     1       2.594   6.874  18.223  0.00  0.00    +0.000 A 
ATOM      4  C   UNL     1       3.730   7.391  17.609  0.00  0.00    +0.000 A 
ATOM      5  C   UNL     1       4.619   6.533  16.961  0.00  0.00    +0.000 A 
ATOM      6  C   UNL     1       4.378   5.156  16.931  0.00  0.00    +0.000 A 
ATOM      7 BR   UNL     1       5.652   4.077  16.022  0.00  0.00    +0.000 Br
ENDROOT
BRANCH   1   8
ATOM      8  C   UNL     1       2.923   3.136  17.586  0.00  0.00    +0.000 C 
BRANCH   8   9
ATOM      9  C   UNL     1       3.117   2.540  18.992  0.00  0.00    +0.000 C 
BRANCH   9  11
ATOM     10  C   UNL     1       1.667   2.895  20.885  0.00  0.00    +0.000 C 
ATOM     11  N   UNL     1       1.865   2.115  19.657  0.00  0.00    +0.000 NA
ATOM     12  C   UNL     1       0.693   2.262  18.793  0.00  0.00    +0.000 C 
ENDBRANCH   9  11
ENDBRANCH   8   9
ENDBRANCH   1   8
TORSDOF 3
ENDMDL
MODEL 5
REMARK VINA RESULT:      -5.1      2.647      4.863
REMARK  Name = 
REMARK  5 active torsions:
REMARK  status: ('A' for Active; 'I' for Inactive)
REMARK    1  A    between atoms: C_1  and  N_2
REMARK    2  A    between atoms: N_2  and  C_3
REMARK    3  A    between atoms: N_2  and  C_4
REMARK    4  A    between atoms: C_4  and  C_5
REMARK    5  A    between atoms: C_5  and  C_6
REMARK                            x       y       z     vdW  Elec       q    Type
REMARK                         _______ _______ _______ _____ _____    ______ ____
ROOT
ATOM      1  C   UNL     1       3.190   4.862  17.517  0.00  0.00    +0.000 A 
ATOM      2  C   UNL     1       4.053   3.878  16.998  0.00  0.00    +0.000 A 
ATOM      3  C   UNL     1       5.322   4.209  16.523  0.00  0.00    +0.000 A 
ATOM      4  C   UNL     1       5.754   5.530  16.557  0.00  0.00    +0.000 A 
ATOM      5  C   UNL     1       4.915   6.520  17.071  0.00  0.00    +0.000 A 
ATOM      6  C   UNL     1       3.641   6.192  17.546  0.00  0.00    +0.000 A 
ATOM      7 BR   UNL     1       2.580   7.615  18.224  0.00  0.00    +0.000 Br
ENDROOT
BRANCH   1   8
ATOM      8  C   UNL     1       1.815   4.431  17.983  0.00  0.00    +0.000 C 
BRANCH   8   9
ATOM      9  C   UNL     1       1.887   3.387  19.113  0.00  0.00    +0.000 C 
BRANCH   9  11
ATOM     10  C   UNL     1       1.383   2.741  21.379  0.00  0.00    +0.000 C 
ATOM     11  N   UNL     1       1.293   3.826  20.394  0.00  0.00    +0.000 NA
ATOM     12  C   UNL     1       1.936   5.026  20.930  0.00  0.00    +0.000 C 
ENDBRANCH   9  11
ENDBRANCH   8   9
ENDBRANCH   1   8
TORSDOF 3
ENDMDL
MODEL 6
REMARK VINA RESULT:      -5.1      2.523      4.712
REMARK  Name = 
REMARK  5 active torsions:
REMARK  status: ('A' for Active; 'I' for Inactive)
REMARK    1  A    between atoms: C_1  and  N_2
REMARK    2  A    between atoms: N_2  and  C_3
REMARK    3  A    between atoms: N_2  and  C_4
REMARK    4  A    between atoms: C_4  and  C_5
REMARK    5  A    between atoms: C_5  and  C_6
REMARK                            x       y       z     vdW  Elec       q    Type
REMARK                         _______ _______ _______ _____ _____    ______ ____
ROOT
ATOM      1  C   UNL     1       3.579   4.952  17.511  0.00  0.00    +0.000 A 
ATOM      2  C   UNL     1       4.334   3.928  16.907  0.00  0.00    +0.000 A 
ATOM      3  C   UNL     1       5.387   4.224  16.040  0.00  0.00    +0.000 A 
ATOM      4  C   UNL     1       5.704   5.549  15.760  0.00  0.00    +0.000 A 
ATOM      5  C   UNL     1       4.969   6.577  16.351  0.00  0.00    +0.000 A 
ATOM      6  C   UNL     1       3.913   6.284  17.219  0.00  0.00    +0.000 A 
ATOM      7 BR   UNL     1       2.978   7.759  17.969  0.00  0.00    +0.000 Br
ENDROOT
BRANCH   1   8
ATOM      8  C   UNL     1       2.431   4.552  18.415  0.00  0.00    +0.000 C 
BRANCH   8   9
ATOM      9  C   UNL     1       2.891   3.637  19.565  0.00  0.00    +0.000 C 
BRANCH   9  11
ATOM     10  C   UNL     1       1.355   2.795  21.220  0.00  0.00    +0.000 C 
ATOM     11  N   UNL     1       1.946   2.549  19.899  0.00  0.00    +0.000 NA
ATOM     12  C   UNL     1       0.879   2.408  18.907  0.00  0.00    +0.000 C 
ENDBRANCH   9  11
ENDBRANCH   8   9
ENDBRANCH   1   8
TORSDOF 3
ENDMDL
MODEL 7
REMARK VINA RESULT:      -5.1      2.915      5.067
REMARK  Name = 
REMARK  5 active torsions:
REMARK  status: ('A' for Active; 'I' for Inactive)
REMARK    1  A    between atoms: C_1  and  N_2
REMARK    2  A    between atoms: N_2  and  C_3
REMARK    3  A    between atoms: N_2  and  C_4
REMARK    4  A    between atoms: C_4  and  C_5
REMARK    5  A    between atoms: C_5  and  C_6
REMARK                            x       y       z     vdW  Elec       q    Type
REMARK                         _______ _______ _______ _____ _____    ______ ____
ROOT
ATOM      1  C   UNL     1       5.043   4.442  17.558  0.00  0.00    +0.000 A 
ATOM      2  C   UNL     1       5.213   4.876  18.888  0.00  0.00    +0.000 A 
ATOM      3  C   UNL     1       6.440   5.367  19.335  0.00  0.00    +0.000 A 
ATOM      4  C   UNL     1       7.521   5.432  18.463  0.00  0.00    +0.000 A 
ATOM      5  C   UNL     1       7.372   5.009  17.142  0.00  0.00    +0.000 A 
ATOM      6  C   UNL     1       6.144   4.516  16.691  0.00  0.00    +0.000 A 
ATOM      7 BR   UNL     1       6.050   3.968  14.873  0.00  0.00    +0.000 Br
ENDROOT
BRANCH   1   8
ATOM      8  C   UNL     1       3.690   3.892  17.155  0.00  0.00    +0.000 C 
BRANCH   8   9
ATOM      9  C   UNL     1       2.532   4.655  17.825  0.00  0.00    +0.000 C 
BRANCH   9  11
ATOM     10  C   UNL     1       1.895   2.380  18.302  0.00  0.00    +0.000 C 
ATOM     11  N   UNL     1       1.518   3.790  18.467  0.00  0.00    +0.000 NA
ATOM     12  C   UNL     1       1.347   4.086  19.890  0.00  0.00    +0.000 C 
ENDBRANCH   9  11
ENDBRANCH   8   9
ENDBRANCH   1   8
TORSDOF 3
ENDMDL
MODEL 8
REMARK VINA RESULT:      -5.1      2.563      4.784
REMARK  Name = 
REMARK  5 active torsions:
REMARK  status: ('A' for Active; 'I' for Inactive)
REMARK    1  A    between atoms: C_1  and  N_2
REMARK    2  A    between atoms: N_2  and  C_3
REMARK    3  A    between atoms: N_2  and  C_4
REMARK    4  A    between atoms: C_4  and  C_5
REMARK    5  A    between atoms: C_5  and  C_6
REMARK                            x       y       z     vdW  Elec       q    Type
REMARK                         _______ _______ _______ _____ _____    ______ ____
ROOT
ATOM      1  C   UNL     1       3.295   4.843  17.538  0.00  0.00    +0.000 A 
ATOM      2  C   UNL     1       4.103   3.854  16.945  0.00  0.00    +0.000 A 
ATOM      3  C   UNL     1       5.260   4.192  16.244  0.00  0.00    +0.000 A 
ATOM      4  C   UNL     1       5.632   5.526  16.120  0.00  0.00    +0.000 A 
ATOM      5  C   UNL     1       4.847   6.521  16.703  0.00  0.00    +0.000 A 
ATOM      6  C   UNL     1       3.685   6.185  17.405  0.00  0.00    +0.000 A 
ATOM      7 BR   UNL     1       2.688   7.618  18.160  0.00  0.00    +0.000 Br
ENDROOT
BRANCH   1   8
ATOM      8  C   UNL     1       2.036   4.401  18.256  0.00  0.00    +0.000 C 
BRANCH   8   9
ATOM      9  C   UNL     1       2.307   3.251  19.244  0.00  0.00    +0.000 C 
BRANCH   9  11
ATOM     10  C   UNL     1       1.796   5.002  20.819  0.00  0.00    +0.000 C 
ATOM     11  N   UNL     1       2.387   3.667  20.661  0.00  0.00    +0.000 NA
ATOM     12  C   UNL     1       1.718   2.728  21.562  0.00  0.00    +0.000 C 
ENDBRANCH   9  11
ENDBRANCH   8   9
ENDBRANCH   1   8
TORSDOF 3
ENDMDL
MODEL 9
REMARK VINA RESULT:      -5.1      2.934      5.037
REMARK  Name = 
REMARK  5 active torsions:
REMARK  status: ('A' for Active; 'I' for Inactive)
REMARK    1  A    between atoms: C_1  and  N_2
REMARK    2  A    between atoms: N_2  and  C_3
REMARK    3  A    between atoms: N_2  and  C_4
REMARK    4  A    between atoms: C_4  and  C_5
REMARK    5  A    between atoms: C_5  and  C_6
REMARK                            x       y       z     vdW  Elec       q    Type
REMARK                         _______ _______ _______ _____ _____    ______ ____
ROOT
ATOM      1  C   UNL     1       5.077   4.354  17.473  0.00  0.00    +0.000 A 
ATOM      2  C   UNL     1       5.202   4.764  18.814  0.00  0.00    +0.000 A 
ATOM      3  C   UNL     1       6.391   5.316  19.292  0.00  0.00    +0.000 A 
ATOM      4  C   UNL     1       7.478   5.467  18.439  0.00  0.00    +0.000 A 
ATOM      5  C   UNL     1       7.374   5.069  17.106  0.00  0.00    +0.000 A 
ATOM      6  C   UNL     1       6.184   4.515  16.624  0.00  0.00    +0.000 A 
ATOM      7 BR   UNL     1       6.148   4.007  14.793  0.00  0.00    +0.000 Br
ENDROOT
BRANCH   1   8
ATOM      8  C   UNL     1       3.766   3.734  17.036  0.00  0.00    +0.000 C 
BRANCH   8   9
ATOM      9  C   UNL     1       3.403   2.495  17.875  0.00  0.00    +0.000 C 
BRANCH   9  11
ATOM     10  C   UNL     1       2.316   2.538  20.026  0.00  0.00    +0.000 C 
ATOM     11  N   UNL     1       2.103   2.586  18.574  0.00  0.00    +0.000 NA
ATOM     12  C   UNL     1       1.364   3.801  18.230  0.00  0.00    +0.000 C 
ENDBRANCH   9  11
ENDBRANCH   8   9
ENDBRANCH   1   8
TORSDOF 3
ENDMDL
