MODEL 1
REMARK VINA RESULT:      -7.8      0.000      0.000
REMARK  Name = 
REMARK  7 active torsions:
REMARK  status: ('A' for Active; 'I' for Inactive)
REMARK    1  A    between atoms: N_1  and  C_2
REMARK    2  A    between atoms: C_4  and  S_5
REMARK    3  A    between atoms: S_5  and  O_8
REMARK    4  A    between atoms: C_12  and  S_13
REMARK    5  A    between atoms: S_13  and  O_16
REMARK    6  A    between atoms: C_18  and  S_19
REMARK    7  A    between atoms: S_19  and  O_22
REMARK                            x       y       z     vdW  Elec       q    Type
REMARK                         _______ _______ _______ _____ _____    ______ ____
ROOT
ATOM      1  C   UNL     1       2.193   4.976  20.587  0.00  0.00    +0.000 A 
ATOM      2  C   UNL     1       1.517   6.123  21.040  0.00  0.00    +0.000 A 
ATOM      3  C   UNL     1       1.678   7.333  20.390  0.00  0.00    +0.000 A 
ATOM      4  C   UNL     1       2.485   7.424  19.270  0.00  0.00    +0.000 A 
ATOM      5  C   UNL     1       3.123   6.285  18.764  0.00  0.00    +0.000 A 
ATOM      6  C   UNL     1       3.893   6.486  17.613  0.00  0.00    +0.000 A 
ATOM      7  C   UNL     1       4.553   5.430  17.010  0.00  0.00    +0.000 A 
ATOM      8  C   UNL     1       4.456   4.158  17.543  0.00  0.00    +0.000 A 
ATOM      9  C   UNL     1       3.678   3.921  18.704  0.00  0.00    +0.000 A 
ATOM     10  C   UNL     1       2.992   4.993  19.384  0.00  0.00    +0.000 A 
ENDROOT
BRANCH   1  11
ATOM     11  N   UNL     1       1.975   3.809  21.341  0.00  0.00    +0.000 N 
ATOM     12  H   UNL     1       2.831   3.407  21.731  0.00  0.00    +0.000 HD
ATOM     13  H   UNL     1       1.515   3.071  20.792  0.00  0.00    +0.000 HD
ENDBRANCH   1  11
BRANCH   3  14
ATOM     14  S   UNL     1       0.923   8.785  21.062  0.00  0.00    +0.000 S 
ATOM     15  O   UNL     1       1.114   9.862  20.115  0.00  0.00    +0.000 OA
ATOM     16  O   UNL     1      -0.374   8.407  21.567  0.00  0.00    +0.000 OA
BRANCH  14  17
ATOM     17  O   UNL     1       1.869   9.167  22.314  0.00  0.00    +0.000 OA
ATOM     18  H   UNL     1       2.414   8.379  22.523  0.00  0.00    +0.000 HD
ENDBRANCH  14  17
ENDBRANCH   3  14
BRANCH   7  19
ATOM     19  S   UNL     1       5.554   5.726  15.581  0.00  0.00    +0.000 S 
ATOM     20  O   UNL     1       5.578   4.510  14.794  0.00  0.00    +0.000 OA
ATOM     21  O   UNL     1       5.162   7.003  15.035  0.00  0.00    +0.000 OA
BRANCH  19  22
ATOM     22  O   UNL     1       7.048   5.864  16.176  0.00  0.00    +0.000 OA
ATOM     23  H   UNL     1       7.445   6.672  15.785  0.00  0.00    +0.000 HD
ENDBRANCH  19  22
ENDBRANCH   7  19
BRANCH   9  24
ATOM     24  S   UNL     1       3.681   2.173  19.106  0.00  0.00    +0.000 S 
ATOM     25  O   UNL     1       4.635   2.026  20.185  0.00  0.00    +0.000 OA
ATOM     26  O   UNL     1       2.288   1.817  19.274  0.00  0.00    +0.000 OA
BRANCH  24  27
ATOM     27  O   UNL     1       4.244   1.281  17.901  0.00  0.00    +0.000 OA
ATOM     28  H   UNL     1       3.699   1.400  17.085  0.00  0.00    +0.000 HD
ENDBRANCH  24  27
ENDBRANCH   9  24
TORSDOF 7
ENDMDL
MODEL 2
REMARK VINA RESULT:      -7.7      1.446      2.209
REMARK  Name = 
REMARK  7 active torsions:
REMARK  status: ('A' for Active; 'I' for Inactive)
REMARK    1  A    between atoms: N_1  and  C_2
REMARK    2  A    between atoms: C_4  and  S_5
REMARK    3  A    between atoms: S_5  and  O_8
REMARK    4  A    between atoms: C_12  and  S_13
REMARK    5  A    between atoms: S_13  and  O_16
REMARK    6  A    between atoms: C_18  and  S_19
REMARK    7  A    between atoms: S_19  and  O_22
REMARK                            x       y       z     vdW  Elec       q    Type
REMARK                         _______ _______ _______ _____ _____    ______ ____
ROOT
ATOM      1  C   UNL     1       2.185   5.897  19.524  0.00  0.00    +0.000 A 
ATOM      2  C   UNL     1       1.638   7.190  19.444  0.00  0.00    +0.000 A 
ATOM      3  C   UNL     1       2.154   8.115  18.554  0.00  0.00    +0.000 A 
ATOM      4  C   UNL     1       3.197   7.770  17.713  0.00  0.00    +0.000 A 
ATOM      5  C   UNL     1       3.721   6.472  17.731  0.00  0.00    +0.000 A 
ATOM      6  C   UNL     1       4.755   6.226  16.821  0.00  0.00    +0.000 A 
ATOM      7  C   UNL     1       5.337   4.973  16.733  0.00  0.00    +0.000 A 
ATOM      8  C   UNL     1       4.897   3.947  17.550  0.00  0.00    +0.000 A 
ATOM      9  C   UNL     1       3.847   4.164  18.476  0.00  0.00    +0.000 A 
ATOM     10  C   UNL     1       3.226   5.457  18.624  0.00  0.00    +0.000 A 
ENDROOT
BRANCH   1  11
ATOM     11  N   UNL     1       1.598   5.050  20.482  0.00  0.00    +0.000 N 
ATOM     12  H   UNL     1       1.412   4.106  20.136  0.00  0.00    +0.000 HD
ATOM     13  H   UNL     1       0.710   5.425  20.839  0.00  0.00    +0.000 HD
ENDBRANCH   1  11
BRANCH   3  14
ATOM     14  S   UNL     1       1.537   9.773  18.572  0.00  0.00    +0.000 S 
ATOM     15  O   UNL     1       1.044  10.047  19.903  0.00  0.00    +0.000 OA
ATOM     16  O   UNL     1       2.511  10.606  17.910  0.00  0.00    +0.000 OA
BRANCH  14  17
ATOM     17  O   UNL     1       0.213   9.701  17.650  0.00  0.00    +0.000 OA
ATOM     18  H   UNL     1      -0.479   9.231  18.163  0.00  0.00    +0.000 HD
ENDBRANCH  14  17
ENDBRANCH   3  14
BRANCH   7  19
ATOM     19  S   UNL     1       6.672   4.707  15.603  0.00  0.00    +0.000 S 
ATOM     20  O   UNL     1       6.624   5.755  14.604  0.00  0.00    +0.000 OA
ATOM     21  O   UNL     1       7.851   4.424  16.385  0.00  0.00    +0.000 OA
BRANCH  19  22
ATOM     22  O   UNL     1       6.250   3.364  14.814  0.00  0.00    +0.000 OA
ATOM     23  H   UNL     1       5.807   3.640  13.982  0.00  0.00    +0.000 HD
ENDBRANCH  19  22
ENDBRANCH   7  19
BRANCH   9  24
ATOM     24  S   UNL     1       3.449   2.636  19.329  0.00  0.00    +0.000 S 
ATOM     25  O   UNL     1       3.766   2.878  20.721  0.00  0.00    +0.000 OA
ATOM     26  O   UNL     1       2.106   2.302  18.906  0.00  0.00    +0.000 OA
BRANCH  24  27
ATOM     27  O   UNL     1       4.393   1.428  18.869  0.00  0.00    +0.000 OA
ATOM     28  H   UNL     1       5.054   1.206  19.569  0.00  0.00    +0.000 HD
ENDBRANCH  24  27
ENDBRANCH   9  24
TORSDOF 7
ENDMDL
MODEL 3
REMARK VINA RESULT:      -7.6      0.244      1.268
REMARK  Name = 
REMARK  7 active torsions:
REMARK  status: ('A' for Active; 'I' for Inactive)
REMARK    1  A    between atoms: N_1  and  C_2
REMARK    2  A    between atoms: C_4  and  S_5
REMARK    3  A    between atoms: S_5  and  O_8
REMARK    4  A    between atoms: C_12  and  S_13
REMARK    5  A    between atoms: S_13  and  O_16
REMARK    6  A    between atoms: C_18  and  S_19
REMARK    7  A    between atoms: S_19  and  O_22
REMARK                            x       y       z     vdW  Elec       q    Type
REMARK                         _______ _______ _______ _____ _____    ______ ____
ROOT
ATOM      1  C   UNL     1       1.990   4.948  20.511  0.00  0.00    +0.000 A 
ATOM      2  C   UNL     1       1.359   6.112  20.985  0.00  0.00    +0.000 A 
ATOM      3  C   UNL     1       1.613   7.336  20.393  0.00  0.00    +0.000 A 
ATOM      4  C   UNL     1       2.469   7.426  19.310  0.00  0.00    +0.000 A 
ATOM      5  C   UNL     1       3.064   6.273  18.781  0.00  0.00    +0.000 A 
ATOM      6  C   UNL     1       3.890   6.477  17.670  0.00  0.00    +0.000 A 
ATOM      7  C   UNL     1       4.515   5.409  17.049  0.00  0.00    +0.000 A 
ATOM      8  C   UNL     1       4.326   4.124  17.525  0.00  0.00    +0.000 A 
ATOM      9  C   UNL     1       3.490   3.887  18.644  0.00  0.00    +0.000 A 
ATOM     10  C   UNL     1       2.837   4.967  19.341  0.00  0.00    +0.000 A 
ENDROOT
BRANCH   1  11
ATOM     11  N   UNL     1       1.678   3.766  21.207  0.00  0.00    +0.000 N 
ATOM     12  H   UNL     1       0.816   3.828  21.754  0.00  0.00    +0.000 HD
ATOM     13  H   UNL     1       2.428   3.484  21.850  0.00  0.00    +0.000 HD
ENDBRANCH   1  11
BRANCH   3  14
ATOM     14  S   UNL     1       0.913   8.801  21.096  0.00  0.00    +0.000 S 
ATOM     15  O   UNL     1       1.131   9.886  20.165  0.00  0.00    +0.000 OA
ATOM     16  O   UNL     1      -0.393   8.457  21.606  0.00  0.00    +0.000 OA
BRANCH  14  17
ATOM     17  O   UNL     1       1.881   9.131  22.345  0.00  0.00    +0.000 OA
ATOM     18  H   UNL     1       1.315   9.439  23.084  0.00  0.00    +0.000 HD
ENDBRANCH  14  17
ENDBRANCH   3  14
BRANCH   7  19
ATOM     19  S   UNL     1       5.588   5.705  15.674  0.00  0.00    +0.000 S 
ATOM     20  O   UNL     1       6.895   6.047  16.195  0.00  0.00    +0.000 OA
ATOM     21  O   UNL     1       5.378   4.639  14.724  0.00  0.00    +0.000 OA
BRANCH  19  22
ATOM     22  O   UNL     1       5.027   7.076  15.033  0.00  0.00    +0.000 OA
ATOM     23  H   UNL     1       4.141   7.240  15.423  0.00  0.00    +0.000 HD
ENDBRANCH  19  22
ENDBRANCH   7  19
BRANCH   9  24
ATOM     24  S   UNL     1       3.381   2.126  18.972  0.00  0.00    +0.000 S 
ATOM     25  O   UNL     1       3.883   1.479  17.777  0.00  0.00    +0.000 OA
ATOM     26  O   UNL     1       4.016   1.937  20.259  0.00  0.00    +0.000 OA
BRANCH  24  27
ATOM     27  O   UNL     1       1.864   1.638  19.128  0.00  0.00    +0.000 OA
ATOM     28  H   UNL     1       1.284   2.373  19.444  0.00  0.00    +0.000 HD
ENDBRANCH  24  27
ENDBRANCH   9  24
TORSDOF 7
ENDMDL
MODEL 4
REMARK VINA RESULT:      -7.6      1.540      2.014
REMARK  Name = 
REMARK  7 active torsions:
REMARK  status: ('A' for Active; 'I' for Inactive)
REMARK    1  A    between atoms: N_1  and  C_2
REMARK    2  A    between atoms: C_4  and  S_5
REMARK    3  A    between atoms: S_5  and  O_8
REMARK    4  A    between atoms: C_12  and  S_13
REMARK    5  A    between atoms: S_13  and  O_16
REMARK    6  A    between atoms: C_18  and  S_19
REMARK    7  A    between atoms: S_19  and  O_22
REMARK                            x       y       z     vdW  Elec       q    Type
REMARK                         _______ _______ _______ _____ _____    ______ ____
ROOT
ATOM      1  C   UNL     1       2.151   5.929  19.665  0.00  0.00    +0.000 A 
ATOM      2  C   UNL     1       1.515   7.169  19.482  0.00  0.00    +0.000 A 
ATOM      3  C   UNL     1       2.026   8.094  18.589  0.00  0.00    +0.000 A 
ATOM      4  C   UNL     1       3.154   7.797  17.844  0.00  0.00    +0.000 A 
ATOM      5  C   UNL     1       3.772   6.546  17.964  0.00  0.00    +0.000 A 
ATOM      6  C   UNL     1       4.890   6.345  17.146  0.00  0.00    +0.000 A 
ATOM      7  C   UNL     1       5.570   5.139  17.162  0.00  0.00    +0.000 A 
ATOM      8  C   UNL     1       5.148   4.118  17.994  0.00  0.00    +0.000 A 
ATOM      9  C   UNL     1       4.016   4.290  18.829  0.00  0.00    +0.000 A 
ATOM     10  C   UNL     1       3.289   5.535  18.867  0.00  0.00    +0.000 A 
ENDROOT
BRANCH   1  11
ATOM     11  N   UNL     1       1.559   5.081  20.619  0.00  0.00    +0.000 N 
ATOM     12  H   UNL     1       0.694   5.454  21.017  0.00  0.00    +0.000 HD
ATOM     13  H   UNL     1       2.191   4.875  21.403  0.00  0.00    +0.000 HD
ENDBRANCH   1  11
BRANCH   3  14
ATOM     14  S   UNL     1       1.285   9.696  18.479  0.00  0.00    +0.000 S 
ATOM     15  O   UNL     1       0.052   9.564  17.737  0.00  0.00    +0.000 OA
ATOM     16  O   UNL     1       1.349  10.295  19.791  0.00  0.00    +0.000 OA
BRANCH  14  17
ATOM     17  O   UNL     1       2.272  10.511  17.495  0.00  0.00    +0.000 OA
ATOM     18  H   UNL     1       3.147  10.069  17.521  0.00  0.00    +0.000 HD
ENDBRANCH  14  17
ENDBRANCH   3  14
BRANCH   7  19
ATOM     19  S   UNL     1       7.004   4.932  16.147  0.00  0.00    +0.000 S 
ATOM     20  O   UNL     1       6.664   4.015  15.079  0.00  0.00    +0.000 OA
ATOM     21  O   UNL     1       7.558   6.243  15.908  0.00  0.00    +0.000 OA
BRANCH  19  22
ATOM     22  O   UNL     1       8.028   4.110  17.087  0.00  0.00    +0.000 OA
ATOM     23  H   UNL     1       8.528   4.767  17.618  0.00  0.00    +0.000 HD
ENDBRANCH  19  22
ENDBRANCH   7  19
BRANCH   9  24
ATOM     24  S   UNL     1       3.671   2.774  19.724  0.00  0.00    +0.000 S 
ATOM     25  O   UNL     1       3.547   3.165  21.113  0.00  0.00    +0.000 OA
ATOM     26  O   UNL     1       2.574   2.152  19.013  0.00  0.00    +0.000 OA
BRANCH  24  27
ATOM     27  O   UNL     1       4.900   1.750  19.667  0.00  0.00    +0.000 OA
ATOM     28  H   UNL     1       5.228   1.535  20.575  0.00  0.00    +0.000 HD
ENDBRANCH  24  27
ENDBRANCH   9  24
TORSDOF 7
ENDMDL
MODEL 5
REMARK VINA RESULT:      -7.6      0.257      1.259
REMARK  Name = 
REMARK  7 active torsions:
REMARK  status: ('A' for Active; 'I' for Inactive)
REMARK    1  A    between atoms: N_1  and  C_2
REMARK    2  A    between atoms: C_4  and  S_5
REMARK    3  A    between atoms: S_5  and  O_8
REMARK    4  A    between atoms: C_12  and  S_13
REMARK    5  A    between atoms: S_13  and  O_16
REMARK    6  A    between atoms: C_18  and  S_19
REMARK    7  A    between atoms: S_19  and  O_22
REMARK                            x       y       z     vdW  Elec       q    Type
REMARK                         _______ _______ _______ _____ _____    ______ ____
ROOT
ATOM      1  C   UNL     1       2.014   5.046  20.527  0.00  0.00    +0.000 A 
ATOM      2  C   UNL     1       1.395   6.213  21.009  0.00  0.00    +0.000 A 
ATOM      3  C   UNL     1       1.632   7.433  20.401  0.00  0.00    +0.000 A 
ATOM      4  C   UNL     1       2.459   7.514  19.295  0.00  0.00    +0.000 A 
ATOM      5  C   UNL     1       3.041   6.359  18.760  0.00  0.00    +0.000 A 
ATOM      6  C   UNL     1       3.838   6.554  17.626  0.00  0.00    +0.000 A 
ATOM      7  C   UNL     1       4.447   5.482  16.998  0.00  0.00    +0.000 A 
ATOM      8  C   UNL     1       4.272   4.201  17.488  0.00  0.00    +0.000 A 
ATOM      9  C   UNL     1       3.466   3.971  18.630  0.00  0.00    +0.000 A 
ATOM     10  C   UNL     1       2.830   5.057  19.336  0.00  0.00    +0.000 A 
ENDROOT
BRANCH   1  11
ATOM     11  N   UNL     1       1.720   3.869  21.240  0.00  0.00    +0.000 N 
ATOM     12  H   UNL     1       1.994   3.907  22.224  0.00  0.00    +0.000 HD
ATOM     13  H   UNL     1       2.174   3.042  20.829  0.00  0.00    +0.000 HD
ENDBRANCH   1  11
BRANCH   3  14
ATOM     14  S   UNL     1       0.949   8.903  21.111  0.00  0.00    +0.000 S 
ATOM     15  O   UNL     1       1.697   9.203  22.311  0.00  0.00    +0.000 OA
ATOM     16  O   UNL     1       0.765   9.856  20.043  0.00  0.00    +0.000 OA
BRANCH  14  17
ATOM     17  O   UNL     1      -0.505   8.437  21.638  0.00  0.00    +0.000 OA
ATOM     18  H   UNL     1      -0.970   8.014  20.886  0.00  0.00    +0.000 HD
ENDBRANCH  14  17
ENDBRANCH   3  14
BRANCH   7  19
ATOM     19  S   UNL     1       5.484   5.768  15.592  0.00  0.00    +0.000 S 
ATOM     20  O   UNL     1       5.550   4.538  14.831  0.00  0.00    +0.000 OA
ATOM     21  O   UNL     1       5.087   7.028  15.011  0.00  0.00    +0.000 OA
BRANCH  19  22
ATOM     22  O   UNL     1       6.958   5.942  16.227  0.00  0.00    +0.000 OA
ATOM     23  H   UNL     1       7.320   6.793  15.896  0.00  0.00    +0.000 HD
ENDBRANCH  19  22
ENDBRANCH   7  19
BRANCH   9  24
ATOM     24  S   UNL     1       3.366   2.213  18.974  0.00  0.00    +0.000 S 
ATOM     25  O   UNL     1       3.866   1.558  17.783  0.00  0.00    +0.000 OA
ATOM     26  O   UNL     1       4.009   2.038  20.259  0.00  0.00    +0.000 OA
BRANCH  24  27
ATOM     27  O   UNL     1       1.853   1.719  19.142  0.00  0.00    +0.000 OA
ATOM     28  H   UNL     1       1.260   2.157  18.484  0.00  0.00    +0.000 HD
ENDBRANCH  24  27
ENDBRANCH   9  24
TORSDOF 7
ENDMDL
MODEL 6
REMARK VINA RESULT:      -7.5      1.506      2.335
REMARK  Name = 
REMARK  7 active torsions:
REMARK  status: ('A' for Active; 'I' for Inactive)
REMARK    1  A    between atoms: N_1  and  C_2
REMARK    2  A    between atoms: C_4  and  S_5
REMARK    3  A    between atoms: S_5  and  O_8
REMARK    4  A    between atoms: C_12  and  S_13
REMARK    5  A    between atoms: S_13  and  O_16
REMARK    6  A    between atoms: C_18  and  S_19
REMARK    7  A    between atoms: S_19  and  O_22
REMARK                            x       y       z     vdW  Elec       q    Type
REMARK                         _______ _______ _______ _____ _____    ______ ____
ROOT
ATOM      1  C   UNL     1       2.196   6.012  19.756  0.00  0.00    +0.000 A 
ATOM      2  C   UNL     1       1.601   7.272  19.569  0.00  0.00    +0.000 A 
ATOM      3  C   UNL     1       2.128   8.166  18.654  0.00  0.00    +0.000 A 
ATOM      4  C   UNL     1       3.230   7.821  17.893  0.00  0.00    +0.000 A 
ATOM      5  C   UNL     1       3.806   6.550  18.017  0.00  0.00    +0.000 A 
ATOM      6  C   UNL     1       4.899   6.299  17.180  0.00  0.00    +0.000 A 
ATOM      7  C   UNL     1       5.536   5.071  17.199  0.00  0.00    +0.000 A 
ATOM      8  C   UNL     1       5.094   4.075  18.051  0.00  0.00    +0.000 A 
ATOM      9  C   UNL     1       3.986   4.297  18.905  0.00  0.00    +0.000 A 
ATOM     10  C   UNL     1       3.304   5.568  18.941  0.00  0.00    +0.000 A 
ENDROOT
BRANCH   1  11
ATOM     11  N   UNL     1       1.592   5.197  20.730  0.00  0.00    +0.000 N 
ATOM     12  H   UNL     1       1.603   5.603  21.669  0.00  0.00    +0.000 HD
ATOM     13  H   UNL     1       2.037   4.272  20.794  0.00  0.00    +0.000 HD
ENDBRANCH   1  11
BRANCH   3  14
ATOM     14  S   UNL     1       1.442   9.793  18.539  0.00  0.00    +0.000 S 
ATOM     15  O   UNL     1       0.883  10.130  19.829  0.00  0.00    +0.000 OA
ATOM     16  O   UNL     1       2.408  10.625  17.862  0.00  0.00    +0.000 OA
BRANCH  14  17
ATOM     17  O   UNL     1       0.162   9.604  17.573  0.00  0.00    +0.000 OA
ATOM     18  H   UNL     1      -0.381  10.419  17.639  0.00  0.00    +0.000 HD
ENDBRANCH  14  17
ENDBRANCH   3  14
BRANCH   7  19
ATOM     19  S   UNL     1       6.943   4.800  16.160  0.00  0.00    +0.000 S 
ATOM     20  O   UNL     1       6.598   3.767  15.206  0.00  0.00    +0.000 OA
ATOM     21  O   UNL     1       7.445   6.094  15.766  0.00  0.00    +0.000 OA
BRANCH  19  22
ATOM     22  O   UNL     1       8.023   4.112  17.143  0.00  0.00    +0.000 OA
ATOM     23  H   UNL     1       8.900   4.501  16.931  0.00  0.00    +0.000 HD
ENDBRANCH  19  22
ENDBRANCH   7  19
BRANCH   9  24
ATOM     24  S   UNL     1       3.604   2.805  19.825  0.00  0.00    +0.000 S 
ATOM     25  O   UNL     1       2.340   2.337  19.295  0.00  0.00    +0.000 OA
ATOM     26  O   UNL     1       4.801   1.995  19.753  0.00  0.00    +0.000 OA
BRANCH  24  27
ATOM     27  O   UNL     1       3.342   3.107  21.376  0.00  0.00    +0.000 OA
ATOM     28  H   UNL     1       2.796   2.395  21.790  0.00  0.00    +0.000 HD
ENDBRANCH  24  27
ENDBRANCH   9  24
TORSDOF 7
ENDMDL
MODEL 7
REMARK VINA RESULT:      -7.5      1.549      2.332
REMARK  Name = 
REMARK  7 active torsions:
REMARK  status: ('A' for Active; 'I' for Inactive)
REMARK    1  A    between atoms: N_1  and  C_2
REMARK    2  A    between atoms: C_4  and  S_5
REMARK    3  A    between atoms: S_5  and  O_8
REMARK    4  A    between atoms: C_12  and  S_13
REMARK    5  A    between atoms: S_13  and  O_16
REMARK    6  A    between atoms: C_18  and  S_19
REMARK    7  A    between atoms: S_19  and  O_22
REMARK                            x       y       z     vdW  Elec       q    Type
REMARK                         _______ _______ _______ _____ _____    ______ ____
ROOT
ATOM      1  C   UNL     1       2.137   5.905  19.774  0.00  0.00    +0.000 A 
ATOM      2  C   UNL     1       1.518   7.147  19.547  0.00  0.00    +0.000 A 
ATOM      3  C   UNL     1       2.049   8.037  18.630  0.00  0.00    +0.000 A 
ATOM      4  C   UNL     1       3.180   7.704  17.906  0.00  0.00    +0.000 A 
ATOM      5  C   UNL     1       3.781   6.450  18.070  0.00  0.00    +0.000 A 
ATOM      6  C   UNL     1       4.903   6.210  17.268  0.00  0.00    +0.000 A 
ATOM      7  C   UNL     1       5.568   4.997  17.328  0.00  0.00    +0.000 A 
ATOM      8  C   UNL     1       5.126   4.007  18.186  0.00  0.00    +0.000 A 
ATOM      9  C   UNL     1       3.990   4.219  19.005  0.00  0.00    +0.000 A 
ATOM     10  C   UNL     1       3.277   5.473  18.998  0.00  0.00    +0.000 A 
ENDROOT
BRANCH   1  11
ATOM     11  N   UNL     1       1.526   5.094  20.747  0.00  0.00    +0.000 N 
ATOM     12  H   UNL     1       2.191   4.620  21.362  0.00  0.00    +0.000 HD
ATOM     13  H   UNL     1       0.928   4.369  20.329  0.00  0.00    +0.000 HD
ENDBRANCH   1  11
BRANCH   3  14
ATOM     14  S   UNL     1       1.329   9.644  18.465  0.00  0.00    +0.000 S 
ATOM     15  O   UNL     1       0.106   9.505  17.706  0.00  0.00    +0.000 OA
ATOM     16  O   UNL     1       1.379  10.278  19.760  0.00  0.00    +0.000 OA
BRANCH  14  17
ATOM     17  O   UNL     1       2.341  10.421  17.474  0.00  0.00    +0.000 OA
ATOM     18  H   UNL     1       1.808  11.047  16.940  0.00  0.00    +0.000 HD
ENDBRANCH  14  17
ENDBRANCH   3  14
BRANCH   7  19
ATOM     19  S   UNL     1       7.009   4.742  16.333  0.00  0.00    +0.000 S 
ATOM     20  O   UNL     1       8.054   4.222  17.190  0.00  0.00    +0.000 OA
ATOM     21  O   UNL     1       6.587   4.079  15.123  0.00  0.00    +0.000 OA
BRANCH  19  22
ATOM     22  O   UNL     1       7.489   6.235  15.955  0.00  0.00    +0.000 OA
ATOM     23  H   UNL     1       7.421   6.779  16.769  0.00  0.00    +0.000 HD
ENDBRANCH  19  22
ENDBRANCH   7  19
BRANCH   9  24
ATOM     24  S   UNL     1       3.617   2.735  19.943  0.00  0.00    +0.000 S 
ATOM     25  O   UNL     1       2.382   2.226  19.384  0.00  0.00    +0.000 OA
ATOM     26  O   UNL     1       4.836   1.954  19.922  0.00  0.00    +0.000 OA
BRANCH  24  27
ATOM     27  O   UNL     1       3.302   3.059  21.479  0.00  0.00    +0.000 OA
ATOM     28  H   UNL     1       2.951   3.977  21.584  0.00  0.00    +0.000 HD
ENDBRANCH  24  27
ENDBRANCH   9  24
TORSDOF 7
ENDMDL
MODEL 8
REMARK VINA RESULT:      -7.5      1.437      5.737
REMARK  Name = 
REMARK  7 active torsions:
REMARK  status: ('A' for Active; 'I' for Inactive)
REMARK    1  A    between atoms: N_1  and  C_2
REMARK    2  A    between atoms: C_4  and  S_5
REMARK    3  A    between atoms: S_5  and  O_8
REMARK    4  A    between atoms: C_12  and  S_13
REMARK    5  A    between atoms: S_13  and  O_16
REMARK    6  A    between atoms: C_18  and  S_19
REMARK    7  A    between atoms: S_19  and  O_22
REMARK                            x       y       z     vdW  Elec       q    Type
REMARK                         _______ _______ _______ _____ _____    ______ ____
ROOT
ATOM      1  C   UNL     1       4.060   3.519  18.195  0.00  0.00    +0.000 A 
ATOM      2  C   UNL     1       4.848   3.869  17.085  0.00  0.00    +0.000 A 
ATOM      3  C   UNL     1       4.876   5.176  16.630  0.00  0.00    +0.000 A 
ATOM      4  C   UNL     1       4.150   6.158  17.280  0.00  0.00    +0.000 A 
ATOM      5  C   UNL     1       3.404   5.847  18.424  0.00  0.00    +0.000 A 
ATOM      6  C   UNL     1       2.731   6.922  19.015  0.00  0.00    +0.000 A 
ATOM      7  C   UNL     1       1.979   6.740  20.163  0.00  0.00    +0.000 A 
ATOM      8  C   UNL     1       1.887   5.485  20.738  0.00  0.00    +0.000 A 
ATOM      9  C   UNL     1       2.562   4.379  20.166  0.00  0.00    +0.000 A 
ATOM     10  C   UNL     1       3.338   4.512  18.957  0.00  0.00    +0.000 A 
ENDROOT
BRANCH   1  11
ATOM     11  N   UNL     1       4.088   2.158  18.551  0.00  0.00    +0.000 N 
ATOM     12  H   UNL     1       4.440   1.548  17.809  0.00  0.00    +0.000 HD
ATOM     13  H   UNL     1       3.159   1.807  18.818  0.00  0.00    +0.000 HD
ENDBRANCH   1  11
BRANCH   3  14
ATOM     14  S   UNL     1       5.767   5.560  15.151  0.00  0.00    +0.000 S 
ATOM     15  O   UNL     1       5.809   4.366  14.337  0.00  0.00    +0.000 OA
ATOM     16  O   UNL     1       5.272   6.824  14.662  0.00  0.00    +0.000 OA
BRANCH  14  17
ATOM     17  O   UNL     1       7.286   5.765  15.658  0.00  0.00    +0.000 OA
ATOM     18  H   UNL     1       7.670   6.508  15.146  0.00  0.00    +0.000 HD
ENDBRANCH  14  17
ENDBRANCH   3  14
BRANCH   7  19
ATOM     19  S   UNL     1       1.105   8.110  20.861  0.00  0.00    +0.000 S 
ATOM     20  O   UNL     1       1.177   9.210  19.921  0.00  0.00    +0.000 OA
ATOM     21  O   UNL     1      -0.143   7.607  21.383  0.00  0.00    +0.000 OA
BRANCH  19  22
ATOM     22  O   UNL     1       2.029   8.567  22.103  0.00  0.00    +0.000 OA
ATOM     23  H   UNL     1       2.953   8.619  21.776  0.00  0.00    +0.000 HD
ENDBRANCH  19  22
ENDBRANCH   7  19
BRANCH   9  24
ATOM     24  S   UNL     1       2.319   2.916  21.174  0.00  0.00    +0.000 S 
ATOM     25  O   UNL     1       1.825   3.401  22.446  0.00  0.00    +0.000 OA
ATOM     26  O   UNL     1       1.539   2.012  20.354  0.00  0.00    +0.000 OA
BRANCH  24  27
ATOM     27  O   UNL     1       3.699   2.172  21.496  0.00  0.00    +0.000 OA
ATOM     28  H   UNL     1       3.845   1.409  20.884  0.00  0.00    +0.000 HD
ENDBRANCH  24  27
ENDBRANCH   9  24
TORSDOF 7
ENDMDL
MODEL 9
REMARK VINA RESULT:      -7.5      1.567      5.818
REMARK  Name = 
REMARK  7 active torsions:
REMARK  status: ('A' for Active; 'I' for Inactive)
REMARK    1  A    between atoms: N_1  and  C_2
REMARK    2  A    between atoms: C_4  and  S_5
REMARK    3  A    between atoms: S_5  and  O_8
REMARK    4  A    between atoms: C_12  and  S_13
REMARK    5  A    between atoms: S_13  and  O_16
REMARK    6  A    between atoms: C_18  and  S_19
REMARK    7  A    between atoms: S_19  and  O_22
REMARK                            x       y       z     vdW  Elec       q    Type
REMARK                         _______ _______ _______ _____ _____    ______ ____
ROOT
ATOM      1  C   UNL     1       4.413   3.542  18.460  0.00  0.00    +0.000 A 
ATOM      2  C   UNL     1       5.445   3.940  17.592  0.00  0.00    +0.000 A 
ATOM      3  C   UNL     1       5.626   5.277  17.286  0.00  0.00    +0.000 A 
ATOM      4  C   UNL     1       4.811   6.241  17.852  0.00  0.00    +0.000 A 
ATOM      5  C   UNL     1       3.813   5.877  18.765  0.00  0.00    +0.000 A 
ATOM      6  C   UNL     1       3.065   6.934  19.295  0.00  0.00    +0.000 A 
ATOM      7  C   UNL     1       2.067   6.698  20.224  0.00  0.00    +0.000 A 
ATOM      8  C   UNL     1       1.798   5.406  20.638  0.00  0.00    +0.000 A 
ATOM      9  C   UNL     1       2.542   4.316  20.124  0.00  0.00    +0.000 A 
ATOM     10  C   UNL     1       3.576   4.507  19.136  0.00  0.00    +0.000 A 
ENDROOT
BRANCH   1  11
ATOM     11  N   UNL     1       4.307   2.156  18.677  0.00  0.00    +0.000 N 
ATOM     12  H   UNL     1       3.342   1.816  18.691  0.00  0.00    +0.000 HD
ATOM     13  H   UNL     1       4.744   1.867  19.562  0.00  0.00    +0.000 HD
ENDBRANCH   1  11
BRANCH   3  14
ATOM     14  S   UNL     1       6.843   5.735  16.086  0.00  0.00    +0.000 S 
ATOM     15  O   UNL     1       6.209   5.725  14.786  0.00  0.00    +0.000 OA
ATOM     16  O   UNL     1       7.552   6.881  16.603  0.00  0.00    +0.000 OA
BRANCH  14  17
ATOM     17  O   UNL     1       7.852   4.475  16.061  0.00  0.00    +0.000 OA
ATOM     18  H   UNL     1       7.471   3.780  16.638  0.00  0.00    +0.000 HD
ENDBRANCH  14  17
ENDBRANCH   3  14
BRANCH   7  19
ATOM     19  S   UNL     1       1.111   8.053  20.842  0.00  0.00    +0.000 S 
ATOM     20  O   UNL     1       1.184   9.127  19.874  0.00  0.00    +0.000 OA
ATOM     21  O   UNL     1      -0.140   7.516  21.322  0.00  0.00    +0.000 OA
BRANCH  19  22
ATOM     22  O   UNL     1       1.959   8.579  22.110  0.00  0.00    +0.000 OA
ATOM     23  H   UNL     1       1.388   8.485  22.903  0.00  0.00    +0.000 HD
ENDBRANCH  19  22
ENDBRANCH   7  19
BRANCH   9  24
ATOM     24  S   UNL     1       2.020   2.787  20.904  0.00  0.00    +0.000 S 
ATOM     25  O   UNL     1       1.601   1.924  19.819  0.00  0.00    +0.000 OA
ATOM     26  O   UNL     1       3.106   2.419  21.788  0.00  0.00    +0.000 OA
BRANCH  24  27
ATOM     27  O   UNL     1       0.725   2.994  21.823  0.00  0.00    +0.000 OA
ATOM     28  H   UNL     1       0.866   3.720  22.479  0.00  0.00    +0.000 HD
ENDBRANCH  24  27
ENDBRANCH   9  24
TORSDOF 7
ENDMDL
