MODEL 1
REMARK VINA RESULT:      -7.9      0.000      0.000
REMARK  Name = 
REMARK  6 active torsions:
REMARK  status: ('A' for Active; 'I' for Inactive)
REMARK    1  A    between atoms: C_1  and  C_2
REMARK    2  A    between atoms: C_2  and  O_3
REMARK    3  A    between atoms: O_3  and  C_4
REMARK    4  A    between atoms: C_4  and  C_6
REMARK    5  A    between atoms: C_12  and  C_13
REMARK    6  A    between atoms: C_20  and  C_21
REMARK                            x       y       z     vdW  Elec       q    Type
REMARK                         _______ _______ _______ _____ _____    ______ ____
ROOT
ATOM      1  C   UNL     1       4.179   6.129  18.132  0.00  0.00    +0.000 C 
ATOM      2  C   UNL     1       5.449   6.457  17.816  0.00  0.00    +0.000 C 
ATOM      3  C   UNL     1       6.591   6.514  18.811  0.00  0.00    +0.000 C 
ATOM      4  C   UNL     1       7.774   6.891  17.924  0.00  0.00    +0.000 C 
ATOM      5  C   UNL     1       7.445   6.294  16.554  0.00  0.00    +0.000 C 
ATOM      6  N   UNL     1       6.015   5.980  16.640  0.00  0.00    +0.000 N 
ATOM      7  C   UNL     1       5.442   4.904  15.968  0.00  0.00    +0.000 C 
ATOM      8  N   UNL     1       4.400   4.260  16.413  0.00  0.00    +0.000 NA
ATOM      9  C   UNL     1       3.590   4.879  17.508  0.00  0.00    +0.000 C 
ENDROOT
BRANCH   9  10
ATOM     10  C   UNL     1       2.890   3.866  18.450  0.00  0.00    +0.000 A 
ATOM     11  C   UNL     1       1.476   3.878  18.412  0.00  0.00    +0.000 A 
ATOM     12  C   UNL     1       0.712   3.372  19.463  0.00  0.00    +0.000 A 
ATOM     13  C   UNL     1       1.335   2.848  20.577  0.00  0.00    +0.000 A 
ATOM     14  F   UNL     1       0.605   2.456  21.627  0.00  0.00    +0.000 F 
ATOM     15  C   UNL     1       2.713   2.725  20.614  0.00  0.00    +0.000 A 
ATOM     16  C   UNL     1       3.490   3.182  19.538  0.00  0.00    +0.000 A 
ATOM     17 CL   UNL     1       5.176   2.804  19.665  0.00  0.00    +0.000 Cl
ENDBRANCH   9  10
BRANCH   7  18
ATOM     18  C   UNL     1       5.988   4.482  14.616  0.00  0.00    +0.000 A 
ATOM     19  C   UNL     1       5.267   3.615  13.804  0.00  0.00    +0.000 A 
ATOM     20  C   UNL     1       5.722   3.398  12.507  0.00  0.00    +0.000 A 
ATOM     21  C   UNL     1       6.867   4.052  12.061  0.00  0.00    +0.000 A 
ATOM     22  C   UNL     1       7.526   4.894  12.942  0.00  0.00    +0.000 A 
ATOM     23  N   UNL     1       7.118   5.118  14.203  0.00  0.00    +0.000 NA
ENDBRANCH   7  18
BRANCH   1  24
ATOM     24  C   UNL     1       3.171   7.266  17.972  0.00  0.00    +0.000 C 
ATOM     25  O   UNL     1       3.087   8.021  17.019  0.00  0.00    +0.000 OA
BRANCH  24  26
ATOM     26  O   UNL     1       2.277   7.186  18.997  0.00  0.00    +0.000 OA
BRANCH  26  28
ATOM     27  C   UNL     1       1.299   8.138  21.041  0.00  0.00    +0.000 C 
ATOM     28  C   UNL     1       1.772   8.369  19.621  0.00  0.00    +0.000 C 
ENDBRANCH  26  28
ENDBRANCH  24  26
ENDBRANCH   1  24
TORSDOF 5
ENDMDL
MODEL 2
REMARK VINA RESULT:      -7.6      3.245      6.508
REMARK  Name = 
REMARK  6 active torsions:
REMARK  status: ('A' for Active; 'I' for Inactive)
REMARK    1  A    between atoms: C_1  and  C_2
REMARK    2  A    between atoms: C_2  and  O_3
REMARK    3  A    between atoms: O_3  and  C_4
REMARK    4  A    between atoms: C_4  and  C_6
REMARK    5  A    between atoms: C_12  and  C_13
REMARK    6  A    between atoms: C_20  and  C_21
REMARK                            x       y       z     vdW  Elec       q    Type
REMARK                         _______ _______ _______ _____ _____    ______ ____
ROOT
ATOM      1  C   UNL     1       5.638   6.203  16.498  0.00  0.00    +0.000 C 
ATOM      2  C   UNL     1       4.651   6.713  17.263  0.00  0.00    +0.000 C 
ATOM      3  C   UNL     1       3.804   7.911  16.881  0.00  0.00    +0.000 C 
ATOM      4  C   UNL     1       2.847   8.020  18.065  0.00  0.00    +0.000 C 
ATOM      5  C   UNL     1       2.683   6.586  18.574  0.00  0.00    +0.000 C 
ATOM      6  N   UNL     1       3.790   5.859  17.941  0.00  0.00    +0.000 N 
ATOM      7  C   UNL     1       3.694   4.519  17.575  0.00  0.00    +0.000 C 
ATOM      8  N   UNL     1       4.348   4.007  16.571  0.00  0.00    +0.000 NA
ATOM      9  C   UNL     1       5.480   4.787  15.982  0.00  0.00    +0.000 C 
ENDROOT
BRANCH   9  10
ATOM     10  C   UNL     1       5.719   4.541  14.470  0.00  0.00    +0.000 A 
ATOM     11  C   UNL     1       4.688   3.843  13.799  0.00  0.00    +0.000 A 
ATOM     12  C   UNL     1       4.919   3.176  12.596  0.00  0.00    +0.000 A 
ATOM     13  C   UNL     1       6.180   3.182  12.037  0.00  0.00    +0.000 A 
ATOM     14  F   UNL     1       6.427   2.459  10.939  0.00  0.00    +0.000 F 
ATOM     15  C   UNL     1       7.194   3.933  12.607  0.00  0.00    +0.000 A 
ATOM     16  C   UNL     1       6.958   4.652  13.788  0.00  0.00    +0.000 A 
ATOM     17 CL   UNL     1       8.272   5.671  14.278  0.00  0.00    +0.000 Cl
ENDBRANCH   9  10
BRANCH   7  18
ATOM     18  C   UNL     1       2.855   3.569  18.409  0.00  0.00    +0.000 A 
ATOM     19  C   UNL     1       3.226   3.257  19.712  0.00  0.00    +0.000 A 
ATOM     20  C   UNL     1       2.337   2.524  20.492  0.00  0.00    +0.000 A 
ATOM     21  C   UNL     1       1.113   2.135  19.958  0.00  0.00    +0.000 A 
ATOM     22  C   UNL     1       0.828   2.484  18.648  0.00  0.00    +0.000 A 
ATOM     23  N   UNL     1       1.669   3.183  17.865  0.00  0.00    +0.000 NA
ENDBRANCH   7  18
BRANCH   1  24
ATOM     24  C   UNL     1       7.039   6.343  17.092  0.00  0.00    +0.000 C 
ATOM     25  O   UNL     1       7.775   5.428  17.420  0.00  0.00    +0.000 OA
BRANCH  24  26
ATOM     26  O   UNL     1       7.392   7.658  17.038  0.00  0.00    +0.000 OA
BRANCH  26  28
ATOM     27  C   UNL     1       8.366   9.742  17.902  0.00  0.00    +0.000 C 
ATOM     28  C   UNL     1       8.162   8.253  18.085  0.00  0.00    +0.000 C 
ENDBRANCH  26  28
ENDBRANCH  24  26
ENDBRANCH   1  24
TORSDOF 5
ENDMDL
MODEL 3
REMARK VINA RESULT:      -7.6      3.280      6.459
REMARK  Name = 
REMARK  6 active torsions:
REMARK  status: ('A' for Active; 'I' for Inactive)
REMARK    1  A    between atoms: C_1  and  C_2
REMARK    2  A    between atoms: C_2  and  O_3
REMARK    3  A    between atoms: O_3  and  C_4
REMARK    4  A    between atoms: C_4  and  C_6
REMARK    5  A    between atoms: C_12  and  C_13
REMARK    6  A    between atoms: C_20  and  C_21
REMARK                            x       y       z     vdW  Elec       q    Type
REMARK                         _______ _______ _______ _____ _____    ______ ____
ROOT
ATOM      1  C   UNL     1       5.616   6.271  16.277  0.00  0.00    +0.000 C 
ATOM      2  C   UNL     1       4.632   6.763  17.056  0.00  0.00    +0.000 C 
ATOM      3  C   UNL     1       3.710   7.898  16.657  0.00  0.00    +0.000 C 
ATOM      4  C   UNL     1       2.791   8.010  17.871  0.00  0.00    +0.000 C 
ATOM      5  C   UNL     1       2.721   6.594  18.445  0.00  0.00    +0.000 C 
ATOM      6  N   UNL     1       3.841   5.897  17.802  0.00  0.00    +0.000 N 
ATOM      7  C   UNL     1       3.803   4.539  17.496  0.00  0.00    +0.000 C 
ATOM      8  N   UNL     1       4.447   4.018  16.490  0.00  0.00    +0.000 NA
ATOM      9  C   UNL     1       5.515   4.828  15.826  0.00  0.00    +0.000 C 
ENDROOT
BRANCH   9  10
ATOM     10  C   UNL     1       5.712   4.529  14.318  0.00  0.00    +0.000 A 
ATOM     11  C   UNL     1       4.654   3.825  13.696  0.00  0.00    +0.000 A 
ATOM     12  C   UNL     1       4.846   3.114  12.511  0.00  0.00    +0.000 A 
ATOM     13  C   UNL     1       6.093   3.083  11.921  0.00  0.00    +0.000 A 
ATOM     14  F   UNL     1       6.302   2.320  10.842  0.00  0.00    +0.000 F 
ATOM     15  C   UNL     1       7.131   3.837  12.441  0.00  0.00    +0.000 A 
ATOM     16  C   UNL     1       6.935   4.599  13.603  0.00  0.00    +0.000 A 
ATOM     17 CL   UNL     1       8.275   5.612  14.026  0.00  0.00    +0.000 Cl
ENDBRANCH   9  10
BRANCH   7  18
ATOM     18  C   UNL     1       3.045   3.584  18.400  0.00  0.00    +0.000 A 
ATOM     19  C   UNL     1       3.480   3.349  19.699  0.00  0.00    +0.000 A 
ATOM     20  C   UNL     1       2.659   2.606  20.543  0.00  0.00    +0.000 A 
ATOM     21  C   UNL     1       1.437   2.134  20.072  0.00  0.00    +0.000 A 
ATOM     22  C   UNL     1       1.087   2.411  18.762  0.00  0.00    +0.000 A 
ATOM     23  N   UNL     1       1.862   3.117  17.918  0.00  0.00    +0.000 NA
ENDBRANCH   7  18
BRANCH   1  24
ATOM     24  C   UNL     1       7.028   6.509  16.811  0.00  0.00    +0.000 C 
ATOM     25  O   UNL     1       7.567   7.593  16.956  0.00  0.00    +0.000 OA
BRANCH  24  26
ATOM     26  O   UNL     1       7.519   5.318  17.254  0.00  0.00    +0.000 OA
BRANCH  26  28
ATOM     27  C   UNL     1       6.805   5.383  19.604  0.00  0.00    +0.000 C 
ATOM     28  C   UNL     1       7.927   5.154  18.613  0.00  0.00    +0.000 C 
ENDBRANCH  26  28
ENDBRANCH  24  26
ENDBRANCH   1  24
TORSDOF 5
ENDMDL
MODEL 4
REMARK VINA RESULT:      -7.6      5.292      8.355
REMARK  Name = 
REMARK  6 active torsions:
REMARK  status: ('A' for Active; 'I' for Inactive)
REMARK    1  A    between atoms: C_1  and  C_2
REMARK    2  A    between atoms: C_2  and  O_3
REMARK    3  A    between atoms: O_3  and  C_4
REMARK    4  A    between atoms: C_4  and  C_6
REMARK    5  A    between atoms: C_12  and  C_13
REMARK    6  A    between atoms: C_20  and  C_21
REMARK                            x       y       z     vdW  Elec       q    Type
REMARK                         _______ _______ _______ _____ _____    ______ ____
ROOT
ATOM      1  C   UNL     1       1.214  10.747  20.392  0.00  0.00    +0.000 C 
ATOM      2  C   UNL     1       0.841  11.972  19.969  0.00  0.00    +0.000 C 
ATOM      3  C   UNL     1       1.803  13.053  19.519  0.00  0.00    +0.000 C 
ATOM      4  C   UNL     1       0.858  14.184  19.124  0.00  0.00    +0.000 C 
ATOM      5  C   UNL     1      -0.419  13.485  18.653  0.00  0.00    +0.000 C 
ATOM      6  N   UNL     1      -0.273  12.111  19.149  0.00  0.00    +0.000 N 
ATOM      7  C   UNL     1      -0.791  11.011  18.472  0.00  0.00    +0.000 C 
ATOM      8  N   UNL     1      -0.252   9.825  18.522  0.00  0.00    +0.000 NA
ATOM      9  C   UNL     1       0.765   9.546  19.583  0.00  0.00    +0.000 C 
ENDROOT
BRANCH   9  10
ATOM     10  C   UNL     1       1.840   8.500  19.191  0.00  0.00    +0.000 A 
ATOM     11  C   UNL     1       2.573   8.794  18.017  0.00  0.00    +0.000 A 
ATOM     12  C   UNL     1       3.239   7.798  17.302  0.00  0.00    +0.000 A 
ATOM     13  C   UNL     1       3.187   6.489  17.734  0.00  0.00    +0.000 A 
ATOM     14  F   UNL     1       3.740   5.520  16.995  0.00  0.00    +0.000 F 
ATOM     15  C   UNL     1       2.566   6.172  18.929  0.00  0.00    +0.000 A 
ATOM     16  C   UNL     1       1.939   7.174  19.685  0.00  0.00    +0.000 A 
ATOM     17 CL   UNL     1       1.357   6.645  21.229  0.00  0.00    +0.000 Cl
ENDBRANCH   9  10
BRANCH   7  18
ATOM     18  C   UNL     1      -2.085  11.148  17.691  0.00  0.00    +0.000 A 
ATOM     19  C   UNL     1      -2.175  10.677  16.387  0.00  0.00    +0.000 A 
ATOM     20  C   UNL     1      -3.425  10.666  15.776  0.00  0.00    +0.000 A 
ATOM     21  C   UNL     1      -4.539  11.112  16.481  0.00  0.00    +0.000 A 
ATOM     22  C   UNL     1      -4.356  11.570  17.775  0.00  0.00    +0.000 A 
ATOM     23  N   UNL     1      -3.160  11.603  18.391  0.00  0.00    +0.000 NA
ENDBRANCH   7  18
BRANCH   1  24
ATOM     24  C   UNL     1       0.924  10.468  21.865  0.00  0.00    +0.000 C 
ATOM     25  O   UNL     1       1.543   9.704  22.587  0.00  0.00    +0.000 OA
BRANCH  24  26
ATOM     26  O   UNL     1      -0.037  11.340  22.280  0.00  0.00    +0.000 OA
BRANCH  26  28
ATOM     27  C   UNL     1      -2.266  11.924  23.133  0.00  0.00    +0.000 C 
ATOM     28  C   UNL     1      -1.174  10.882  23.016  0.00  0.00    +0.000 C 
ENDBRANCH  26  28
ENDBRANCH  24  26
ENDBRANCH   1  24
TORSDOF 5
ENDMDL
MODEL 5
REMARK VINA RESULT:      -7.2      6.016      8.981
REMARK  Name = 
REMARK  6 active torsions:
REMARK  status: ('A' for Active; 'I' for Inactive)
REMARK    1  A    between atoms: C_1  and  C_2
REMARK    2  A    between atoms: C_2  and  O_3
REMARK    3  A    between atoms: O_3  and  C_4
REMARK    4  A    between atoms: C_4  and  C_6
REMARK    5  A    between atoms: C_12  and  C_13
REMARK    6  A    between atoms: C_20  and  C_21
REMARK                            x       y       z     vdW  Elec       q    Type
REMARK                         _______ _______ _______ _____ _____    ______ ____
ROOT
ATOM      1  C   UNL     1      -1.000  12.048  20.866  0.00  0.00    +0.000 C 
ATOM      2  C   UNL     1      -0.388  11.169  21.685  0.00  0.00    +0.000 C 
ATOM      3  C   UNL     1      -1.018  10.578  22.930  0.00  0.00    +0.000 C 
ATOM      4  C   UNL     1       0.079   9.643  23.435  0.00  0.00    +0.000 C 
ATOM      5  C   UNL     1       0.825   9.196  22.176  0.00  0.00    +0.000 C 
ATOM      6  N   UNL     1       0.387  10.148  21.149  0.00  0.00    +0.000 N 
ATOM      7  C   UNL     1       0.260   9.797  19.807  0.00  0.00    +0.000 C 
ATOM      8  N   UNL     1      -0.604  10.353  19.005  0.00  0.00    +0.000 NA
ATOM      9  C   UNL     1      -1.265  11.624  19.435  0.00  0.00    +0.000 C 
ENDROOT
BRANCH   9  10
ATOM     10  C   UNL     1      -2.695  11.832  18.875  0.00  0.00    +0.000 A 
ATOM     11  C   UNL     1      -3.625  12.397  19.779  0.00  0.00    +0.000 A 
ATOM     12  C   UNL     1      -5.000  12.252  19.601  0.00  0.00    +0.000 A 
ATOM     13  C   UNL     1      -5.483  11.537  18.524  0.00  0.00    +0.000 A 
ATOM     14  F   UNL     1      -6.796  11.311  18.408  0.00  0.00    +0.000 F 
ATOM     15  C   UNL     1      -4.614  11.052  17.562  0.00  0.00    +0.000 A 
ATOM     16  C   UNL     1      -3.231  11.240  17.703  0.00  0.00    +0.000 A 
ATOM     17 CL   UNL     1      -2.298  10.724  16.337  0.00  0.00    +0.000 Cl
ENDBRANCH   9  10
BRANCH   7  18
ATOM     18  C   UNL     1       1.207   8.777  19.202  0.00  0.00    +0.000 A 
ATOM     19  C   UNL     1       1.787   9.003  17.960  0.00  0.00    +0.000 A 
ATOM     20  C   UNL     1       2.779   8.127  17.528  0.00  0.00    +0.000 A 
ATOM     21  C   UNL     1       3.163   7.067  18.344  0.00  0.00    +0.000 A 
ATOM     22  C   UNL     1       2.527   6.915  19.565  0.00  0.00    +0.000 A 
ATOM     23  N   UNL     1       1.559   7.737  20.007  0.00  0.00    +0.000 NA
ENDBRANCH   7  18
BRANCH   1  24
ATOM     24  C   UNL     1      -0.372  13.440  20.845  0.00  0.00    +0.000 C 
ATOM     25  O   UNL     1      -0.303  14.211  21.788  0.00  0.00    +0.000 OA
BRANCH  24  26
ATOM     26  O   UNL     1       0.246  13.608  19.643  0.00  0.00    +0.000 OA
BRANCH  26  28
ATOM     27  C   UNL     1       2.272  12.685  18.603  0.00  0.00    +0.000 C 
ATOM     28  C   UNL     1       1.670  13.695  19.557  0.00  0.00    +0.000 C 
ENDBRANCH  26  28
ENDBRANCH  24  26
ENDBRANCH   1  24
TORSDOF 5
ENDMDL
MODEL 6
REMARK VINA RESULT:      -7.2      5.764      8.717
REMARK  Name = 
REMARK  6 active torsions:
REMARK  status: ('A' for Active; 'I' for Inactive)
REMARK    1  A    between atoms: C_1  and  C_2
REMARK    2  A    between atoms: C_2  and  O_3
REMARK    3  A    between atoms: O_3  and  C_4
REMARK    4  A    between atoms: C_4  and  C_6
REMARK    5  A    between atoms: C_12  and  C_13
REMARK    6  A    between atoms: C_20  and  C_21
REMARK                            x       y       z     vdW  Elec       q    Type
REMARK                         _______ _______ _______ _____ _____    ______ ____
ROOT
ATOM      1  C   UNL     1      -0.850  11.864  20.840  0.00  0.00    +0.000 C 
ATOM      2  C   UNL     1      -0.258  11.035  21.724  0.00  0.00    +0.000 C 
ATOM      3  C   UNL     1      -0.943  10.455  22.945  0.00  0.00    +0.000 C 
ATOM      4  C   UNL     1       0.154   9.581  23.547  0.00  0.00    +0.000 C 
ATOM      5  C   UNL     1       0.996   9.127  22.353  0.00  0.00    +0.000 C 
ATOM      6  N   UNL     1       0.589  10.030  21.270  0.00  0.00    +0.000 N 
ATOM      7  C   UNL     1       0.562   9.636  19.935  0.00  0.00    +0.000 C 
ATOM      8  N   UNL     1      -0.270  10.133  19.063  0.00  0.00    +0.000 NA
ATOM      9  C   UNL     1      -1.005  11.388  19.409  0.00  0.00    +0.000 C 
ENDROOT
BRANCH   9  10
ATOM     10  C   UNL     1      -2.404  11.522  18.755  0.00  0.00    +0.000 A 
ATOM     11  C   UNL     1      -3.345  12.286  19.484  0.00  0.00    +0.000 A 
ATOM     12  C   UNL     1      -4.717  12.149  19.276  0.00  0.00    +0.000 A 
ATOM     13  C   UNL     1      -5.185  11.246  18.343  0.00  0.00    +0.000 A 
ATOM     14  F   UNL     1      -6.501  11.041  18.215  0.00  0.00    +0.000 F 
ATOM     15  C   UNL     1      -4.299  10.551  17.538  0.00  0.00    +0.000 A 
ATOM     16  C   UNL     1      -2.916  10.721  17.702  0.00  0.00    +0.000 A 
ATOM     17 CL   UNL     1      -1.952   9.911  16.511  0.00  0.00    +0.000 Cl
ENDBRANCH   9  10
BRANCH   7  18
ATOM     18  C   UNL     1       1.583   8.637  19.424  0.00  0.00    +0.000 A 
ATOM     19  C   UNL     1       1.807   7.446  20.104  0.00  0.00    +0.000 A 
ATOM     20  C   UNL     1       2.621   6.489  19.505  0.00  0.00    +0.000 A 
ATOM     21  C   UNL     1       3.175   6.744  18.254  0.00  0.00    +0.000 A 
ATOM     22  C   UNL     1       2.903   7.961  17.652  0.00  0.00    +0.000 A 
ATOM     23  N   UNL     1       2.130   8.910  18.208  0.00  0.00    +0.000 NA
ENDBRANCH   7  18
BRANCH   1  24
ATOM     24  C   UNL     1      -0.275  13.279  20.815  0.00  0.00    +0.000 C 
ATOM     25  O   UNL     1      -0.837  14.289  21.204  0.00  0.00    +0.000 OA
BRANCH  24  26
ATOM     26  O   UNL     1       1.032  13.199  20.440  0.00  0.00    +0.000 OA
BRANCH  26  28
ATOM     27  C   UNL     1       2.334  12.828  18.389  0.00  0.00    +0.000 C 
ATOM     28  C   UNL     1       1.477  13.770  19.207  0.00  0.00    +0.000 C 
ENDBRANCH  26  28
ENDBRANCH  24  26
ENDBRANCH   1  24
TORSDOF 5
ENDMDL
MODEL 7
REMARK VINA RESULT:      -7.1      8.555     11.044
REMARK  Name = 
REMARK  6 active torsions:
REMARK  status: ('A' for Active; 'I' for Inactive)
REMARK    1  A    between atoms: C_1  and  C_2
REMARK    2  A    between atoms: C_2  and  O_3
REMARK    3  A    between atoms: O_3  and  C_4
REMARK    4  A    between atoms: C_4  and  C_6
REMARK    5  A    between atoms: C_12  and  C_13
REMARK    6  A    between atoms: C_20  and  C_21
REMARK                            x       y       z     vdW  Elec       q    Type
REMARK                         _______ _______ _______ _____ _____    ______ ____
ROOT
ATOM      1  C   UNL     1       0.031  11.331  19.605  0.00  0.00    +0.000 C 
ATOM      2  C   UNL     1       1.020  12.246  19.563  0.00  0.00    +0.000 C 
ATOM      3  C   UNL     1       2.061  12.333  18.464  0.00  0.00    +0.000 C 
ATOM      4  C   UNL     1       2.885  13.544  18.894  0.00  0.00    +0.000 C 
ATOM      5  C   UNL     1       1.902  14.442  19.648  0.00  0.00    +0.000 C 
ATOM      6  N   UNL     1       0.760  13.564  19.922  0.00  0.00    +0.000 N 
ATOM      7  C   UNL     1      -0.550  14.032  19.978  0.00  0.00    +0.000 C 
ATOM      8  N   UNL     1      -1.581  13.303  19.658  0.00  0.00    +0.000 NA
ATOM      9  C   UNL     1      -1.401  11.824  19.531  0.00  0.00    +0.000 C 
ENDROOT
BRANCH   9  10
ATOM     10  C   UNL     1      -2.345  11.140  18.510  0.00  0.00    +0.000 A 
ATOM     11  C   UNL     1      -1.711  10.301  17.563  0.00  0.00    +0.000 A 
ATOM     12  C   UNL     1      -2.320   9.972  16.353  0.00  0.00    +0.000 A 
ATOM     13  C   UNL     1      -3.570  10.473  16.053  0.00  0.00    +0.000 A 
ATOM     14  F   UNL     1      -4.111  10.242  14.851  0.00  0.00    +0.000 F 
ATOM     15  C   UNL     1      -4.268  11.216  16.989  0.00  0.00    +0.000 A 
ATOM     16  C   UNL     1      -3.687  11.508  18.232  0.00  0.00    +0.000 A 
ATOM     17 CL   UNL     1      -4.750  12.298  19.350  0.00  0.00    +0.000 Cl
ENDBRANCH   9  10
BRANCH   7  18
ATOM     18  C   UNL     1      -0.828  15.429  20.503  0.00  0.00    +0.000 A 
ATOM     19  C   UNL     1      -1.159  16.458  19.630  0.00  0.00    +0.000 A 
ATOM     20  C   UNL     1      -1.575  17.671  20.170  0.00  0.00    +0.000 A 
ATOM     21  C   UNL     1      -1.656  17.816  21.552  0.00  0.00    +0.000 A 
ATOM     22  C   UNL     1      -1.301  16.740  22.347  0.00  0.00    +0.000 A 
ATOM     23  N   UNL     1      -0.886  15.558  21.857  0.00  0.00    +0.000 NA
ENDBRANCH   7  18
BRANCH   1  24
ATOM     24  C   UNL     1       0.136  10.335  20.759  0.00  0.00    +0.000 C 
ATOM     25  O   UNL     1       0.326   9.135  20.657  0.00  0.00    +0.000 OA
BRANCH  24  26
ATOM     26  O   UNL     1       0.150  11.039  21.926  0.00  0.00    +0.000 OA
BRANCH  26  28
ATOM     27  C   UNL     1      -1.898  11.720  23.101  0.00  0.00    +0.000 C 
ATOM     28  C   UNL     1      -0.762  10.725  22.980  0.00  0.00    +0.000 C 
ENDBRANCH  26  28
ENDBRANCH  24  26
ENDBRANCH   1  24
TORSDOF 5
ENDMDL
MODEL 8
REMARK VINA RESULT:      -7.1      8.806     11.956
REMARK  Name = 
REMARK  6 active torsions:
REMARK  status: ('A' for Active; 'I' for Inactive)
REMARK    1  A    between atoms: C_1  and  C_2
REMARK    2  A    between atoms: C_2  and  O_3
REMARK    3  A    between atoms: O_3  and  C_4
REMARK    4  A    between atoms: C_4  and  C_6
REMARK    5  A    between atoms: C_12  and  C_13
REMARK    6  A    between atoms: C_20  and  C_21
REMARK                            x       y       z     vdW  Elec       q    Type
REMARK                         _______ _______ _______ _____ _____    ______ ____
ROOT
ATOM      1  C   UNL     1      -0.359  11.431  19.530  0.00  0.00    +0.000 C 
ATOM      2  C   UNL     1      -0.445  10.730  20.679  0.00  0.00    +0.000 C 
ATOM      3  C   UNL     1       0.632   9.795  21.194  0.00  0.00    +0.000 C 
ATOM      4  C   UNL     1       0.037   9.313  22.515  0.00  0.00    +0.000 C 
ATOM      5  C   UNL     1      -0.836  10.472  23.000  0.00  0.00    +0.000 C 
ATOM      6  N   UNL     1      -0.986  11.323  21.813  0.00  0.00    +0.000 N 
ATOM      7  C   UNL     1      -1.108  12.707  21.894  0.00  0.00    +0.000 C 
ATOM      8  N   UNL     1      -0.689  13.514  20.960  0.00  0.00    +0.000 NA
ATOM      9  C   UNL     1      -0.356  12.945  19.618  0.00  0.00    +0.000 C 
ENDROOT
BRANCH   9  10
ATOM     10  C   UNL     1       0.751  13.708  18.847  0.00  0.00    +0.000 A 
ATOM     11  C   UNL     1       1.900  12.949  18.524  0.00  0.00    +0.000 A 
ATOM     12  C   UNL     1       3.122  13.557  18.238  0.00  0.00    +0.000 A 
ATOM     13  C   UNL     1       3.231  14.931  18.272  0.00  0.00    +0.000 A 
ATOM     14  F   UNL     1       4.425  15.511  18.099  0.00  0.00    +0.000 F 
ATOM     15  C   UNL     1       2.112  15.717  18.485  0.00  0.00    +0.000 A 
ATOM     16  C   UNL     1       0.865  15.116  18.721  0.00  0.00    +0.000 A 
ATOM     17 CL   UNL     1      -0.460  16.231  18.801  0.00  0.00    +0.000 Cl
ENDBRANCH   9  10
BRANCH   7  18
ATOM     18  C   UNL     1      -1.825  13.332  23.077  0.00  0.00    +0.000 A 
ATOM     19  C   UNL     1      -1.219  14.343  23.814  0.00  0.00    +0.000 A 
ATOM     20  C   UNL     1      -1.981  15.003  24.774  0.00  0.00    +0.000 A 
ATOM     21  C   UNL     1      -3.312  14.644  24.962  0.00  0.00    +0.000 A 
ATOM     22  C   UNL     1      -3.831  13.621  24.186  0.00  0.00    +0.000 A 
ATOM     23  N   UNL     1      -3.120  12.957  23.258  0.00  0.00    +0.000 NA
ENDBRANCH   7  18
BRANCH   1  24
ATOM     24  C   UNL     1      -1.361  11.015  18.455  0.00  0.00    +0.000 C 
ATOM     25  O   UNL     1      -1.371   9.954  17.855  0.00  0.00    +0.000 OA
BRANCH  24  26
ATOM     26  O   UNL     1      -2.341  11.961  18.401  0.00  0.00    +0.000 OA
BRANCH  26  28
ATOM     27  C   UNL     1      -4.416  11.570  17.145  0.00  0.00    +0.000 C 
ATOM     28  C   UNL     1      -3.719  11.594  18.489  0.00  0.00    +0.000 C 
ENDBRANCH  26  28
ENDBRANCH  24  26
ENDBRANCH   1  24
TORSDOF 5
ENDMDL
MODEL 9
REMARK VINA RESULT:      -7.1      6.360      9.614
REMARK  Name = 
REMARK  6 active torsions:
REMARK  status: ('A' for Active; 'I' for Inactive)
REMARK    1  A    between atoms: C_1  and  C_2
REMARK    2  A    between atoms: C_2  and  O_3
REMARK    3  A    between atoms: O_3  and  C_4
REMARK    4  A    between atoms: C_4  and  C_6
REMARK    5  A    between atoms: C_12  and  C_13
REMARK    6  A    between atoms: C_20  and  C_21
REMARK                            x       y       z     vdW  Elec       q    Type
REMARK                         _______ _______ _______ _____ _____    ______ ____
ROOT
ATOM      1  C   UNL     1      -0.765  12.480  20.234  0.00  0.00    +0.000 C 
ATOM      2  C   UNL     1      -1.265  11.654  19.292  0.00  0.00    +0.000 C 
ATOM      3  C   UNL     1      -1.934  12.118  18.014  0.00  0.00    +0.000 C 
ATOM      4  C   UNL     1      -2.262  10.797  17.322  0.00  0.00    +0.000 C 
ATOM      5  C   UNL     1      -1.173   9.827  17.787  0.00  0.00    +0.000 C 
ATOM      6  N   UNL     1      -0.569  10.503  18.941  0.00  0.00    +0.000 N 
ATOM      7  C   UNL     1       0.777  10.366  19.269  0.00  0.00    +0.000 C 
ATOM      8  N   UNL     1       1.464  11.302  19.862  0.00  0.00    +0.000 NA
ATOM      9  C   UNL     1       0.726  12.434  20.504  0.00  0.00    +0.000 C 
ENDROOT
BRANCH   9  10
ATOM     10  C   UNL     1       1.495  13.779  20.526  0.00  0.00    +0.000 A 
ATOM     11  C   UNL     1       1.383  14.522  21.725  0.00  0.00    +0.000 A 
ATOM     12  C   UNL     1       1.631  15.895  21.760  0.00  0.00    +0.000 A 
ATOM     13  C   UNL     1       1.988  16.559  20.606  0.00  0.00    +0.000 A 
ATOM     14  F   UNL     1       2.126  17.891  20.618  0.00  0.00    +0.000 F 
ATOM     15  C   UNL     1       2.206  15.857  19.433  0.00  0.00    +0.000 A 
ATOM     16  C   UNL     1       2.013  14.468  19.399  0.00  0.00    +0.000 A 
ATOM     17 CL   UNL     1       2.487  13.717  17.910  0.00  0.00    +0.000 Cl
ENDBRANCH   9  10
BRANCH   7  18
ATOM     18  C   UNL     1       1.488   9.052  19.003  0.00  0.00    +0.000 A 
ATOM     19  C   UNL     1       2.220   8.869  17.836  0.00  0.00    +0.000 A 
ATOM     20  C   UNL     1       2.994   7.718  17.718  0.00  0.00    +0.000 A 
ATOM     21  C   UNL     1       3.021   6.798  18.762  0.00  0.00    +0.000 A 
ATOM     22  C   UNL     1       2.255   7.059  19.886  0.00  0.00    +0.000 A 
ATOM     23  N   UNL     1       1.489   8.155  20.027  0.00  0.00    +0.000 NA
ENDBRANCH   7  18
BRANCH   1  24
ATOM     24  C   UNL     1      -1.497  12.432  21.573  0.00  0.00    +0.000 C 
ATOM     25  O   UNL     1      -2.659  12.747  21.768  0.00  0.00    +0.000 OA
BRANCH  24  26
ATOM     26  O   UNL     1      -0.683  11.820  22.479  0.00  0.00    +0.000 OA
BRANCH  26  28
ATOM     27  C   UNL     1       0.005   9.539  23.080  0.00  0.00    +0.000 C 
ATOM     28  C   UNL     1      -1.076  10.599  23.109  0.00  0.00    +0.000 C 
ENDBRANCH  26  28
ENDBRANCH  24  26
ENDBRANCH   1  24
TORSDOF 5
ENDMDL
