MODEL 1
REMARK VINA RESULT:      -8.0      0.000      0.000
REMARK  Name = 
REMARK  8 active torsions:
REMARK  status: ('A' for Active; 'I' for Inactive)
REMARK    1  A    between atoms: C_1  and  C_2
REMARK    2  A    between atoms: C_4  and  C_5
REMARK    3  A    between atoms: N_10  and  C_11
REMARK    4  A    between atoms: C_11  and  C_12
REMARK    5  A    between atoms: C_12  and  N_13
REMARK    6  A    between atoms: C_12  and  C_14
REMARK    7  A    between atoms: C_14  and  C_15
REMARK    8  A    between atoms: C_22  and  C_23
REMARK                            x       y       z     vdW  Elec       q    Type
REMARK                         _______ _______ _______ _____ _____    ______ ____
ROOT
ATOM      1  C   UNL     1      -0.643  11.609  22.266  0.00  0.00    +0.000 A 
ATOM      2  C   UNL     1      -0.955  10.306  22.595  0.00  0.00    +0.000 A 
ATOM      3  S   UNL     1      -0.335   9.191  21.461  0.00  0.00    +0.000 S 
ATOM      4  C   UNL     1       0.409  10.438  20.534  0.00  0.00    +0.000 A 
ATOM      5  C   UNL     1       1.164  10.339  19.357  0.00  0.00    +0.000 A 
ATOM      6  N   UNL     1       1.335   9.125  18.695  0.00  0.00    +0.000 N 
ATOM      7  N   UNL     1       1.686  11.473  18.852  0.00  0.00    +0.000 NA
ATOM      8  C   UNL     1       1.436  12.651  19.456  0.00  0.00    +0.000 A 
ATOM      9  N   UNL     1       0.695  12.819  20.556  0.00  0.00    +0.000 NA
ATOM     10  C   UNL     1       0.181  11.688  21.096  0.00  0.00    +0.000 A 
ATOM     11  H   UNL     1       1.057   8.335  19.272  0.00  0.00    +0.000 HD
ENDROOT
BRANCH   1  15
ATOM     12  C   UNL     1      -3.356  15.063  24.788  0.00  0.00    +0.000 C 
ATOM     13  C   UNL     1      -2.361  14.215  24.109  0.00  0.00    +0.000 A 
ATOM     14  C   UNL     1      -2.432  13.047  23.398  0.00  0.00    +0.000 A 
ATOM     15  C   UNL     1      -1.098  12.779  23.026  0.00  0.00    +0.000 A 
ATOM     16  N   UNL     1      -0.262  13.713  23.499  0.00  0.00    +0.000 NA
ATOM     17  O   UNL     1      -1.066  14.625  24.167  0.00  0.00    +0.000 OA
ENDBRANCH   1  15
BRANCH   8  18
ATOM     18  C   UNL     1       2.003  13.867  18.843  0.00  0.00    +0.000 A 
ATOM     19  C   UNL     1       3.242  13.845  18.184  0.00  0.00    +0.000 A 
ATOM     20  C   UNL     1       3.732  15.008  17.616  0.00  0.00    +0.000 A 
ATOM     21  N   UNL     1       3.087  16.192  17.653  0.00  0.00    +0.000 NA
ATOM     22  C   UNL     1       1.898  16.210  18.285  0.00  0.00    +0.000 A 
ATOM     23  C   UNL     1       1.326  15.101  18.884  0.00  0.00    +0.000 A 
ENDBRANCH   8  18
BRANCH   6  24
ATOM     24  C   UNL     1       2.599   8.935  17.980  0.00  0.00    +0.000 C 
BRANCH  24  25
ATOM     25  C   UNL     1       2.919   7.413  17.932  0.00  0.00    +0.000 C 
BRANCH  25  26
ATOM     26  N   UNL     1       4.254   7.193  17.332  0.00  0.00    +0.000 NA
ATOM     27  H   UNL     1       4.961   7.634  17.919  0.00  0.00    +0.000 HD
ATOM     28  H   UNL     1       4.287   7.716  16.454  0.00  0.00    +0.000 HD
ENDBRANCH  25  26
BRANCH  25  29
ATOM     29  C   UNL     1       2.785   6.776  19.331  0.00  0.00    +0.000 C 
BRANCH  29  30
ATOM     30  C   UNL     1       2.121   5.415  19.335  0.00  0.00    +0.000 A 
ATOM     31  C   UNL     1       1.616   4.877  20.527  0.00  0.00    +0.000 A 
ATOM     32  C   UNL     1       1.032   3.609  20.544  0.00  0.00    +0.000 A 
ATOM     33  C   UNL     1       0.942   2.866  19.370  0.00  0.00    +0.000 A 
ATOM     34  C   UNL     1       1.426   3.394  18.176  0.00  0.00    +0.000 A 
ATOM     35  C   UNL     1       2.008   4.663  18.156  0.00  0.00    +0.000 A 
ENDBRANCH  29  30
ENDBRANCH  25  29
ENDBRANCH  24  25
ENDBRANCH   6  24
TORSDOF 7
ENDMDL
MODEL 2
REMARK VINA RESULT:      -7.6      4.087      5.143
REMARK  Name = 
REMARK  8 active torsions:
REMARK  status: ('A' for Active; 'I' for Inactive)
REMARK    1  A    between atoms: C_1  and  C_2
REMARK    2  A    between atoms: C_4  and  C_5
REMARK    3  A    between atoms: N_10  and  C_11
REMARK    4  A    between atoms: C_11  and  C_12
REMARK    5  A    between atoms: C_12  and  N_13
REMARK    6  A    between atoms: C_12  and  C_14
REMARK    7  A    between atoms: C_14  and  C_15
REMARK    8  A    between atoms: C_22  and  C_23
REMARK                            x       y       z     vdW  Elec       q    Type
REMARK                         _______ _______ _______ _____ _____    ______ ____
ROOT
ATOM      1  C   UNL     1      -4.176  11.122  17.377  0.00  0.00    +0.000 A 
ATOM      2  C   UNL     1      -3.987  10.277  16.303  0.00  0.00    +0.000 A 
ATOM      3  S   UNL     1      -2.406   9.639  16.256  0.00  0.00    +0.000 S 
ATOM      4  C   UNL     1      -1.958  10.447  17.710  0.00  0.00    +0.000 A 
ATOM      5  C   UNL     1      -0.732  10.440  18.389  0.00  0.00    +0.000 A 
ATOM      6  N   UNL     1       0.390   9.796  17.871  0.00  0.00    +0.000 N 
ATOM      7  N   UNL     1      -0.655  11.121  19.548  0.00  0.00    +0.000 NA
ATOM      8  C   UNL     1      -1.725  11.812  19.990  0.00  0.00    +0.000 A 
ATOM      9  N   UNL     1      -2.909  11.891  19.373  0.00  0.00    +0.000 NA
ATOM     10  C   UNL     1      -3.016  11.192  18.217  0.00  0.00    +0.000 A 
ATOM     11  H   UNL     1       0.151   9.175  17.102  0.00  0.00    +0.000 HD
ENDROOT
BRANCH   1  15
ATOM     12  C   UNL     1      -7.916  14.534  17.472  0.00  0.00    +0.000 C 
ATOM     13  C   UNL     1      -6.986  13.400  17.604  0.00  0.00    +0.000 A 
ATOM     14  C   UNL     1      -5.728  13.140  17.127  0.00  0.00    +0.000 A 
ATOM     15  C   UNL     1      -5.416  11.861  17.634  0.00  0.00    +0.000 A 
ATOM     16  N   UNL     1      -6.429  11.361  18.355  0.00  0.00    +0.000 NA
ATOM     17  O   UNL     1      -7.409  12.343  18.346  0.00  0.00    +0.000 OA
ENDBRANCH   1  15
BRANCH   8  18
ATOM     18  C   UNL     1      -1.578  12.569  21.248  0.00  0.00    +0.000 A 
ATOM     19  C   UNL     1      -0.920  13.809  21.282  0.00  0.00    +0.000 A 
ATOM     20  C   UNL     1      -0.812  14.488  22.484  0.00  0.00    +0.000 A 
ATOM     21  N   UNL     1      -1.307  14.032  23.652  0.00  0.00    +0.000 NA
ATOM     22  C   UNL     1      -1.939  12.843  23.615  0.00  0.00    +0.000 A 
ATOM     23  C   UNL     1      -2.096  12.089  22.465  0.00  0.00    +0.000 A 
ENDBRANCH   8  18
BRANCH   6  24
ATOM     24  C   UNL     1       1.331   9.228  18.838  0.00  0.00    +0.000 C 
BRANCH  24  25
ATOM     25  C   UNL     1       2.097   8.058  18.156  0.00  0.00    +0.000 C 
BRANCH  25  26
ATOM     26  N   UNL     1       3.053   8.590  17.159  0.00  0.00    +0.000 NA
ATOM     27  H   UNL     1       2.584   8.674  16.258  0.00  0.00    +0.000 HD
ATOM     28  H   UNL     1       3.771   7.878  17.010  0.00  0.00    +0.000 HD
ENDBRANCH  25  26
BRANCH  25  29
ATOM     29  C   UNL     1       2.777   7.155  19.207  0.00  0.00    +0.000 C 
BRANCH  29  30
ATOM     30  C   UNL     1       2.185   5.765  19.310  0.00  0.00    +0.000 A 
ATOM     31  C   UNL     1       2.048   4.968  18.164  0.00  0.00    +0.000 A 
ATOM     32  C   UNL     1       1.472   3.699  18.246  0.00  0.00    +0.000 A 
ATOM     33  C   UNL     1       1.032   3.209  19.473  0.00  0.00    +0.000 A 
ATOM     34  C   UNL     1       1.177   3.983  20.622  0.00  0.00    +0.000 A 
ATOM     35  C   UNL     1       1.755   5.252  20.543  0.00  0.00    +0.000 A 
ENDBRANCH  29  30
ENDBRANCH  25  29
ENDBRANCH  24  25
ENDBRANCH   6  24
TORSDOF 7
ENDMDL
MODEL 3
REMARK VINA RESULT:      -7.6      2.946      3.864
REMARK  Name = 
REMARK  8 active torsions:
REMARK  status: ('A' for Active; 'I' for Inactive)
REMARK    1  A    between atoms: C_1  and  C_2
REMARK    2  A    between atoms: C_4  and  C_5
REMARK    3  A    between atoms: N_10  and  C_11
REMARK    4  A    between atoms: C_11  and  C_12
REMARK    5  A    between atoms: C_12  and  N_13
REMARK    6  A    between atoms: C_12  and  C_14
REMARK    7  A    between atoms: C_14  and  C_15
REMARK    8  A    between atoms: C_22  and  C_23
REMARK                            x       y       z     vdW  Elec       q    Type
REMARK                         _______ _______ _______ _____ _____    ______ ____
ROOT
ATOM      1  C   UNL     1      -1.354  11.971  21.550  0.00  0.00    +0.000 A 
ATOM      2  C   UNL     1      -0.316  11.788  22.440  0.00  0.00    +0.000 A 
ATOM      3  S   UNL     1       0.872  10.725  21.833  0.00  0.00    +0.000 S 
ATOM      4  C   UNL     1       0.039  10.531  20.338  0.00  0.00    +0.000 A 
ATOM      5  C   UNL     1       0.384   9.757  19.222  0.00  0.00    +0.000 A 
ATOM      6  N   UNL     1       1.491   8.910  19.231  0.00  0.00    +0.000 N 
ATOM      7  N   UNL     1      -0.421   9.818  18.144  0.00  0.00    +0.000 NA
ATOM      8  C   UNL     1      -1.536  10.574  18.185  0.00  0.00    +0.000 A 
ATOM      9  N   UNL     1      -1.943  11.305  19.228  0.00  0.00    +0.000 NA
ATOM     10  C   UNL     1      -1.134  11.277  20.315  0.00  0.00    +0.000 A 
ATOM     11  H   UNL     1       2.107   9.098  20.018  0.00  0.00    +0.000 HD
ENDROOT
BRANCH   1  15
ATOM     12  C   UNL     1      -5.403  14.168  23.655  0.00  0.00    +0.000 C 
ATOM     13  C   UNL     1      -4.280  13.683  22.834  0.00  0.00    +0.000 A 
ATOM     14  C   UNL     1      -3.301  12.742  23.020  0.00  0.00    +0.000 A 
ATOM     15  C   UNL     1      -2.544  12.782  21.830  0.00  0.00    +0.000 A 
ATOM     16  N   UNL     1      -3.016  13.705  20.982  0.00  0.00    +0.000 NA
ATOM     17  O   UNL     1      -4.120  14.259  21.613  0.00  0.00    +0.000 OA
ENDBRANCH   1  15
BRANCH   8  18
ATOM     18  C   UNL     1      -2.401  10.580  16.990  0.00  0.00    +0.000 A 
ATOM     19  C   UNL     1      -3.583  11.339  16.947  0.00  0.00    +0.000 A 
ATOM     20  C   UNL     1      -4.360  11.322  15.802  0.00  0.00    +0.000 A 
ATOM     21  N   UNL     1      -4.056  10.610  14.697  0.00  0.00    +0.000 NA
ATOM     22  C   UNL     1      -2.922   9.885  14.742  0.00  0.00    +0.000 A 
ATOM     23  C   UNL     1      -2.080   9.836  15.840  0.00  0.00    +0.000 A 
ENDBRANCH   8  18
BRANCH   6  24
ATOM     24  C   UNL     1       2.183   8.714  17.955  0.00  0.00    +0.000 C 
BRANCH  24  25
ATOM     25  C   UNL     1       2.809   7.290  17.944  0.00  0.00    +0.000 C 
BRANCH  25  26
ATOM     26  N   UNL     1       4.165   7.335  17.352  0.00  0.00    +0.000 NA
ATOM     27  H   UNL     1       4.559   6.395  17.347  0.00  0.00    +0.000 HD
ATOM     28  H   UNL     1       4.763   7.862  17.993  0.00  0.00    +0.000 HD
ENDBRANCH  25  26
BRANCH  25  29
ATOM     29  C   UNL     1       2.798   6.669  19.357  0.00  0.00    +0.000 C 
BRANCH  29  30
ATOM     30  C   UNL     1       2.116   5.320  19.440  0.00  0.00    +0.000 A 
ATOM     31  C   UNL     1       1.744   4.791  20.684  0.00  0.00    +0.000 A 
ATOM     32  C   UNL     1       1.145   3.533  20.771  0.00  0.00    +0.000 A 
ATOM     33  C   UNL     1       0.905   2.792  19.616  0.00  0.00    +0.000 A 
ATOM     34  C   UNL     1       1.254   3.312  18.373  0.00  0.00    +0.000 A 
ATOM     35  C   UNL     1       1.851   4.571  18.283  0.00  0.00    +0.000 A 
ENDBRANCH  29  30
ENDBRANCH  25  29
ENDBRANCH  24  25
ENDBRANCH   6  24
TORSDOF 7
ENDMDL
MODEL 4
REMARK VINA RESULT:      -7.5      3.925      5.008
REMARK  Name = 
REMARK  8 active torsions:
REMARK  status: ('A' for Active; 'I' for Inactive)
REMARK    1  A    between atoms: C_1  and  C_2
REMARK    2  A    between atoms: C_4  and  C_5
REMARK    3  A    between atoms: N_10  and  C_11
REMARK    4  A    between atoms: C_11  and  C_12
REMARK    5  A    between atoms: C_12  and  N_13
REMARK    6  A    between atoms: C_12  and  C_14
REMARK    7  A    between atoms: C_14  and  C_15
REMARK    8  A    between atoms: C_22  and  C_23
REMARK                            x       y       z     vdW  Elec       q    Type
REMARK                         _______ _______ _______ _____ _____    ______ ____
ROOT
ATOM      1  C   UNL     1      -4.363  11.426  17.767  0.00  0.00    +0.000 A 
ATOM      2  C   UNL     1      -4.236  10.571  16.692  0.00  0.00    +0.000 A 
ATOM      3  S   UNL     1      -2.661   9.928  16.563  0.00  0.00    +0.000 S 
ATOM      4  C   UNL     1      -2.131  10.749  17.983  0.00  0.00    +0.000 A 
ATOM      5  C   UNL     1      -0.870  10.745  18.592  0.00  0.00    +0.000 A 
ATOM      6  N   UNL     1       0.220  10.093  18.018  0.00  0.00    +0.000 N 
ATOM      7  N   UNL     1      -0.727  11.437  19.738  0.00  0.00    +0.000 NA
ATOM      8  C   UNL     1      -1.769  12.135  20.232  0.00  0.00    +0.000 A 
ATOM      9  N   UNL     1      -2.985  12.211  19.682  0.00  0.00    +0.000 NA
ATOM     10  C   UNL     1      -3.158  11.501  18.540  0.00  0.00    +0.000 A 
ATOM     11  H   UNL     1      -0.063   9.465  17.270  0.00  0.00    +0.000 HD
ENDROOT
BRANCH   1  15
ATOM     12  C   UNL     1      -7.742  14.929  19.165  0.00  0.00    +0.000 C 
ATOM     13  C   UNL     1      -6.972  13.760  18.707  0.00  0.00    +0.000 A 
ATOM     14  C   UNL     1      -5.634  13.483  18.605  0.00  0.00    +0.000 A 
ATOM     15  C   UNL     1      -5.586  12.171  18.086  0.00  0.00    +0.000 A 
ATOM     16  N   UNL     1      -6.815  11.689  17.863  0.00  0.00    +0.000 NA
ATOM     17  O   UNL     1      -7.685  12.688  18.272  0.00  0.00    +0.000 OA
ENDBRANCH   1  15
BRANCH   8  18
ATOM     18  C   UNL     1      -1.550  12.904  21.472  0.00  0.00    +0.000 A 
ATOM     19  C   UNL     1      -2.338  12.689  22.615  0.00  0.00    +0.000 A 
ATOM     20  C   UNL     1      -2.092  13.427  23.759  0.00  0.00    +0.000 A 
ATOM     21  N   UNL     1      -1.126  14.362  23.857  0.00  0.00    +0.000 NA
ATOM     22  C   UNL     1      -0.371  14.566  22.760  0.00  0.00    +0.000 A 
ATOM     23  C   UNL     1      -0.540  13.879  21.570  0.00  0.00    +0.000 A 
ENDBRANCH   8  18
BRANCH   6  24
ATOM     24  C   UNL     1       1.212   9.532  18.937  0.00  0.00    +0.000 C 
BRANCH  24  25
ATOM     25  C   UNL     1       1.834   8.264  18.282  0.00  0.00    +0.000 C 
BRANCH  25  26
ATOM     26  N   UNL     1       2.771   8.657  17.206  0.00  0.00    +0.000 NA
ATOM     27  H   UNL     1       2.864   9.672  17.197  0.00  0.00    +0.000 HD
ATOM     28  H   UNL     1       2.327   8.430  16.313  0.00  0.00    +0.000 HD
ENDBRANCH  25  26
BRANCH  25  29
ATOM     29  C   UNL     1       2.495   7.360  19.345  0.00  0.00    +0.000 C 
BRANCH  29  30
ATOM     30  C   UNL     1       2.048   5.914  19.296  0.00  0.00    +0.000 A 
ATOM     31  C   UNL     1       2.037   5.218  18.079  0.00  0.00    +0.000 A 
ATOM     32  C   UNL     1       1.596   3.895  18.020  0.00  0.00    +0.000 A 
ATOM     33  C   UNL     1       1.166   3.250  19.178  0.00  0.00    +0.000 A 
ATOM     34  C   UNL     1       1.187   3.924  20.396  0.00  0.00    +0.000 A 
ATOM     35  C   UNL     1       1.631   5.247  20.457  0.00  0.00    +0.000 A 
ENDBRANCH  29  30
ENDBRANCH  25  29
ENDBRANCH  24  25
ENDBRANCH   6  24
TORSDOF 7
ENDMDL
MODEL 5
REMARK VINA RESULT:      -7.4      3.505      4.247
REMARK  Name = 
REMARK  8 active torsions:
REMARK  status: ('A' for Active; 'I' for Inactive)
REMARK    1  A    between atoms: C_1  and  C_2
REMARK    2  A    between atoms: C_4  and  C_5
REMARK    3  A    between atoms: N_10  and  C_11
REMARK    4  A    between atoms: C_11  and  C_12
REMARK    5  A    between atoms: C_12  and  N_13
REMARK    6  A    between atoms: C_12  and  C_14
REMARK    7  A    between atoms: C_14  and  C_15
REMARK    8  A    between atoms: C_22  and  C_23
REMARK                            x       y       z     vdW  Elec       q    Type
REMARK                         _______ _______ _______ _____ _____    ______ ____
ROOT
ATOM      1  C   UNL     1      -4.068  11.385  18.291  0.00  0.00    +0.000 A 
ATOM      2  C   UNL     1      -4.138  10.374  17.355  0.00  0.00    +0.000 A 
ATOM      3  S   UNL     1      -2.609   9.685  17.038  0.00  0.00    +0.000 S 
ATOM      4  C   UNL     1      -1.831  10.700  18.193  0.00  0.00    +0.000 A 
ATOM      5  C   UNL     1      -0.479  10.761  18.554  0.00  0.00    +0.000 A 
ATOM      6  N   UNL     1       0.490  10.007  17.896  0.00  0.00    +0.000 N 
ATOM      7  N   UNL     1      -0.131  11.616  19.534  0.00  0.00    +0.000 NA
ATOM      8  C   UNL     1      -1.068  12.403  20.099  0.00  0.00    +0.000 A 
ATOM      9  N   UNL     1      -2.366  12.421  19.777  0.00  0.00    +0.000 NA
ATOM     10  C   UNL     1      -2.742  11.551  18.809  0.00  0.00    +0.000 A 
ATOM     11  H   UNL     1       0.079   9.279  17.318  0.00  0.00    +0.000 HD
ENDROOT
BRANCH   1  15
ATOM     12  C   UNL     1      -7.736  13.703  20.903  0.00  0.00    +0.000 C 
ATOM     13  C   UNL     1      -6.768  13.159  19.935  0.00  0.00    +0.000 A 
ATOM     14  C   UNL     1      -5.736  12.263  20.022  0.00  0.00    +0.000 A 
ATOM     15  C   UNL     1      -5.216  12.196  18.712  0.00  0.00    +0.000 A 
ATOM     16  N   UNL     1      -5.874  13.017  17.883  0.00  0.00    +0.000 NA
ATOM     17  O   UNL     1      -6.862  13.610  18.656  0.00  0.00    +0.000 OA
ENDBRANCH   1  15
BRANCH   8  18
ATOM     18  C   UNL     1      -0.629  13.346  21.145  0.00  0.00    +0.000 A 
ATOM     19  C   UNL     1      -1.417  13.599  22.279  0.00  0.00    +0.000 A 
ATOM     20  C   UNL     1      -0.962  14.485  23.240  0.00  0.00    +0.000 A 
ATOM     21  N   UNL     1       0.214  15.140  23.162  0.00  0.00    +0.000 NA
ATOM     22  C   UNL     1       0.968  14.894  22.074  0.00  0.00    +0.000 A 
ATOM     23  C   UNL     1       0.600  14.027  21.059  0.00  0.00    +0.000 A 
ENDBRANCH   8  18
BRANCH   6  24
ATOM     24  C   UNL     1       1.640   9.570  18.691  0.00  0.00    +0.000 C 
BRANCH  24  25
ATOM     25  C   UNL     1       2.062   8.150  18.215  0.00  0.00    +0.000 C 
BRANCH  25  26
ATOM     26  N   UNL     1       3.122   8.253  17.187  0.00  0.00    +0.000 NA
ATOM     27  H   UNL     1       4.000   8.508  17.637  0.00  0.00    +0.000 HD
ATOM     28  H   UNL     1       2.896   9.052  16.591  0.00  0.00    +0.000 HD
ENDBRANCH  25  26
BRANCH  25  29
ATOM     29  C   UNL     1       2.478   7.266  19.410  0.00  0.00    +0.000 C 
BRANCH  29  30
ATOM     30  C   UNL     1       1.990   5.835  19.326  0.00  0.00    +0.000 A 
ATOM     31  C   UNL     1       1.591   5.155  20.485  0.00  0.00    +0.000 A 
ATOM     32  C   UNL     1       1.171   3.825  20.420  0.00  0.00    +0.000 A 
ATOM     33  C   UNL     1       1.141   3.161  19.196  0.00  0.00    +0.000 A 
ATOM     34  C   UNL     1       1.520   3.829  18.034  0.00  0.00    +0.000 A 
ATOM     35  C   UNL     1       1.937   5.160  18.097  0.00  0.00    +0.000 A 
ENDBRANCH  29  30
ENDBRANCH  25  29
ENDBRANCH  24  25
ENDBRANCH   6  24
TORSDOF 7
ENDMDL
MODEL 6
REMARK VINA RESULT:      -7.3      0.808      1.187
REMARK  Name = 
REMARK  8 active torsions:
REMARK  status: ('A' for Active; 'I' for Inactive)
REMARK    1  A    between atoms: C_1  and  C_2
REMARK    2  A    between atoms: C_4  and  C_5
REMARK    3  A    between atoms: N_10  and  C_11
REMARK    4  A    between atoms: C_11  and  C_12
REMARK    5  A    between atoms: C_12  and  N_13
REMARK    6  A    between atoms: C_12  and  C_14
REMARK    7  A    between atoms: C_14  and  C_15
REMARK    8  A    between atoms: C_22  and  C_23
REMARK                            x       y       z     vdW  Elec       q    Type
REMARK                         _______ _______ _______ _____ _____    ______ ____
ROOT
ATOM      1  C   UNL     1      -0.832  11.876  22.489  0.00  0.00    +0.000 A 
ATOM      2  C   UNL     1      -1.107  10.583  22.882  0.00  0.00    +0.000 A 
ATOM      3  S   UNL     1      -0.454   9.430  21.807  0.00  0.00    +0.000 S 
ATOM      4  C   UNL     1       0.257  10.648  20.818  0.00  0.00    +0.000 A 
ATOM      5  C   UNL     1       1.017  10.511  19.649  0.00  0.00    +0.000 A 
ATOM      6  N   UNL     1       1.223   9.271  19.049  0.00  0.00    +0.000 N 
ATOM      7  N   UNL     1       1.508  11.633  19.087  0.00  0.00    +0.000 NA
ATOM      8  C   UNL     1       1.223  12.833  19.630  0.00  0.00    +0.000 A 
ATOM      9  N   UNL     1       0.476  13.036  20.720  0.00  0.00    +0.000 NA
ATOM     10  C   UNL     1      -0.008  11.918  21.316  0.00  0.00    +0.000 A 
ATOM     11  H   UNL     1       0.966   8.503  19.665  0.00  0.00    +0.000 HD
ENDROOT
BRANCH   1  15
ATOM     12  C   UNL     1      -1.403  16.496  24.483  0.00  0.00    +0.000 C 
ATOM     13  C   UNL     1      -1.476  15.104  24.006  0.00  0.00    +0.000 A 
ATOM     14  C   UNL     1      -0.622  14.290  23.311  0.00  0.00    +0.000 A 
ATOM     15  C   UNL     1      -1.320  13.070  23.187  0.00  0.00    +0.000 A 
ATOM     16  N   UNL     1      -2.533  13.143  23.750  0.00  0.00    +0.000 NA
ATOM     17  O   UNL     1      -2.620  14.422  24.280  0.00  0.00    +0.000 OA
ENDBRANCH   1  15
BRANCH   8  18
ATOM     18  C   UNL     1       1.757  14.032  18.957  0.00  0.00    +0.000 A 
ATOM     19  C   UNL     1       1.103  15.271  19.043  0.00  0.00    +0.000 A 
ATOM     20  C   UNL     1       1.644  16.372  18.402  0.00  0.00    +0.000 A 
ATOM     21  N   UNL     1       2.784  16.338  17.683  0.00  0.00    +0.000 NA
ATOM     22  C   UNL     1       3.410  15.148  17.603  0.00  0.00    +0.000 A 
ATOM     23  C   UNL     1       2.947  13.991  18.207  0.00  0.00    +0.000 A 
ENDBRANCH   8  18
BRANCH   6  24
ATOM     24  C   UNL     1       2.493   9.081  18.345  0.00  0.00    +0.000 C 
BRANCH  24  25
ATOM     25  C   UNL     1       2.714   7.557  18.121  0.00  0.00    +0.000 C 
BRANCH  25  26
ATOM     26  N   UNL     1       3.926   7.334  17.301  0.00  0.00    +0.000 NA
ATOM     27  H   UNL     1       4.680   7.005  17.902  0.00  0.00    +0.000 HD
ATOM     28  H   UNL     1       4.243   8.246  16.966  0.00  0.00    +0.000 HD
ENDBRANCH  25  26
BRANCH  25  29
ATOM     29  C   UNL     1       2.760   6.801  19.466  0.00  0.00    +0.000 C 
BRANCH  29  30
ATOM     30  C   UNL     1       2.109   5.434  19.435  0.00  0.00    +0.000 A 
ATOM     31  C   UNL     1       1.639   4.848  20.619  0.00  0.00    +0.000 A 
ATOM     32  C   UNL     1       1.067   3.575  20.603  0.00  0.00    +0.000 A 
ATOM     33  C   UNL     1       0.954   2.874  19.404  0.00  0.00    +0.000 A 
ATOM     34  C   UNL     1       1.402   3.451  18.219  0.00  0.00    +0.000 A 
ATOM     35  C   UNL     1       1.971   4.726  18.232  0.00  0.00    +0.000 A 
ENDBRANCH  29  30
ENDBRANCH  25  29
ENDBRANCH  24  25
ENDBRANCH   6  24
TORSDOF 7
ENDMDL
MODEL 7
REMARK VINA RESULT:      -7.2      4.620      8.184
REMARK  Name = 
REMARK  8 active torsions:
REMARK  status: ('A' for Active; 'I' for Inactive)
REMARK    1  A    between atoms: C_1  and  C_2
REMARK    2  A    between atoms: C_4  and  C_5
REMARK    3  A    between atoms: N_10  and  C_11
REMARK    4  A    between atoms: C_11  and  C_12
REMARK    5  A    between atoms: C_12  and  N_13
REMARK    6  A    between atoms: C_12  and  C_14
REMARK    7  A    between atoms: C_14  and  C_15
REMARK    8  A    between atoms: C_22  and  C_23
REMARK                            x       y       z     vdW  Elec       q    Type
REMARK                         _______ _______ _______ _____ _____    ______ ____
ROOT
ATOM      1  C   UNL     1       0.302   9.985  20.758  0.00  0.00    +0.000 A 
ATOM      2  C   UNL     1       0.494  10.478  22.032  0.00  0.00    +0.000 A 
ATOM      3  S   UNL     1      -0.566  11.766  22.389  0.00  0.00    +0.000 S 
ATOM      4  C   UNL     1      -1.340  11.652  20.855  0.00  0.00    +0.000 A 
ATOM      5  C   UNL     1      -2.390  12.417  20.330  0.00  0.00    +0.000 A 
ATOM      6  N   UNL     1      -2.911  13.514  21.013  0.00  0.00    +0.000 N 
ATOM      7  N   UNL     1      -2.854  12.088  19.109  0.00  0.00    +0.000 NA
ATOM      8  C   UNL     1      -2.279  11.080  18.424  0.00  0.00    +0.000 A 
ATOM      9  N   UNL     1      -1.253  10.336  18.850  0.00  0.00    +0.000 NA
ATOM     10  C   UNL     1      -0.786  10.634  20.087  0.00  0.00    +0.000 A 
ATOM     11  H   UNL     1      -2.608  13.537  21.983  0.00  0.00    +0.000 HD
ENDROOT
BRANCH   1  15
ATOM     12  C   UNL     1       2.819   5.698  19.791  0.00  0.00    +0.000 C 
ATOM     13  C   UNL     1       2.168   7.019  19.831  0.00  0.00    +0.000 A 
ATOM     14  C   UNL     1       1.432   7.689  20.772  0.00  0.00    +0.000 A 
ATOM     15  C   UNL     1       1.112   8.919  20.158  0.00  0.00    +0.000 A 
ATOM     16  N   UNL     1       1.602   8.985  18.914  0.00  0.00    +0.000 NA
ATOM     17  O   UNL     1       2.281   7.792  18.719  0.00  0.00    +0.000 OA
ENDBRANCH   1  15
BRANCH   8  18
ATOM     18  C   UNL     1      -2.803  10.781  17.078  0.00  0.00    +0.000 A 
ATOM     19  C   UNL     1      -2.200   9.816  16.255  0.00  0.00    +0.000 A 
ATOM     20  C   UNL     1      -2.731   9.563  15.003  0.00  0.00    +0.000 A 
ATOM     21  N   UNL     1      -3.813  10.193  14.503  0.00  0.00    +0.000 NA
ATOM     22  C   UNL     1      -4.390  11.117  15.295  0.00  0.00    +0.000 A 
ATOM     23  C   UNL     1      -3.933  11.441  16.561  0.00  0.00    +0.000 A 
ENDBRANCH   8  18
BRANCH   6  24
ATOM     24  C   UNL     1      -4.334  13.799  20.817  0.00  0.00    +0.000 C 
BRANCH  24  25
ATOM     25  C   UNL     1      -5.142  13.082  21.937  0.00  0.00    +0.000 C 
BRANCH  25  26
ATOM     26  N   UNL     1      -5.009  13.821  23.212  0.00  0.00    +0.000 NA
ATOM     27  H   UNL     1      -5.173  13.180  23.989  0.00  0.00    +0.000 HD
ATOM     28  H   UNL     1      -5.780  14.490  23.263  0.00  0.00    +0.000 HD
ENDBRANCH  25  26
BRANCH  25  29
ATOM     29  C   UNL     1      -6.614  12.884  21.517  0.00  0.00    +0.000 C 
BRANCH  29  30
ATOM     30  C   UNL     1      -6.889  11.573  20.809  0.00  0.00    +0.000 A 
ATOM     31  C   UNL     1      -7.686  10.594  21.417  0.00  0.00    +0.000 A 
ATOM     32  C   UNL     1      -7.917   9.371  20.785  0.00  0.00    +0.000 A 
ATOM     33  C   UNL     1      -7.357   9.114  19.535  0.00  0.00    +0.000 A 
ATOM     34  C   UNL     1      -6.577  10.084  18.912  0.00  0.00    +0.000 A 
ATOM     35  C   UNL     1      -6.347  11.309  19.542  0.00  0.00    +0.000 A 
ENDBRANCH  29  30
ENDBRANCH  25  29
ENDBRANCH  24  25
ENDBRANCH   6  24
TORSDOF 7
ENDMDL
MODEL 8
REMARK VINA RESULT:      -7.2      3.283      4.239
REMARK  Name = 
REMARK  8 active torsions:
REMARK  status: ('A' for Active; 'I' for Inactive)
REMARK    1  A    between atoms: C_1  and  C_2
REMARK    2  A    between atoms: C_4  and  C_5
REMARK    3  A    between atoms: N_10  and  C_11
REMARK    4  A    between atoms: C_11  and  C_12
REMARK    5  A    between atoms: C_12  and  N_13
REMARK    6  A    between atoms: C_12  and  C_14
REMARK    7  A    between atoms: C_14  and  C_15
REMARK    8  A    between atoms: C_22  and  C_23
REMARK                            x       y       z     vdW  Elec       q    Type
REMARK                         _______ _______ _______ _____ _____    ______ ____
ROOT
ATOM      1  C   UNL     1      -1.884  12.165  21.734  0.00  0.00    +0.000 A 
ATOM      2  C   UNL     1      -0.940  12.015  22.729  0.00  0.00    +0.000 A 
ATOM      3  S   UNL     1       0.284  10.910  22.293  0.00  0.00    +0.000 S 
ATOM      4  C   UNL     1      -0.404  10.650  20.735  0.00  0.00    +0.000 A 
ATOM      5  C   UNL     1       0.036   9.818  19.697  0.00  0.00    +0.000 A 
ATOM      6  N   UNL     1       1.123   8.961  19.855  0.00  0.00    +0.000 N 
ATOM      7  N   UNL     1      -0.660   9.835  18.544  0.00  0.00    +0.000 NA
ATOM      8  C   UNL     1      -1.761  10.604  18.439  0.00  0.00    +0.000 A 
ATOM      9  N   UNL     1      -2.255  11.391  19.401  0.00  0.00    +0.000 NA
ATOM     10  C   UNL     1      -1.556  11.408  20.562  0.00  0.00    +0.000 A 
ATOM     11  H   UNL     1       1.663   9.180  20.688  0.00  0.00    +0.000 HD
ENDROOT
BRANCH   1  15
ATOM     12  C   UNL     1      -5.295  15.900  21.504  0.00  0.00    +0.000 C 
ATOM     13  C   UNL     1      -4.494  14.680  21.698  0.00  0.00    +0.000 A 
ATOM     14  C   UNL     1      -3.206  14.328  21.390  0.00  0.00    +0.000 A 
ATOM     15  C   UNL     1      -3.082  13.003  21.857  0.00  0.00    +0.000 A 
ATOM     16  N   UNL     1      -4.228  12.565  22.395  0.00  0.00    +0.000 NA
ATOM     17  O   UNL     1      -5.110  13.632  22.307  0.00  0.00    +0.000 OA
ENDBRANCH   1  15
BRANCH   8  18
ATOM     18  C   UNL     1      -2.507  10.562  17.167  0.00  0.00    +0.000 A 
ATOM     19  C   UNL     1      -3.669  11.325  16.974  0.00  0.00    +0.000 A 
ATOM     20  C   UNL     1      -4.332  11.260  15.761  0.00  0.00    +0.000 A 
ATOM     21  N   UNL     1      -3.931  10.496  14.725  0.00  0.00    +0.000 NA
ATOM     22  C   UNL     1      -2.815   9.765  14.912  0.00  0.00    +0.000 A 
ATOM     23  C   UNL     1      -2.084   9.762  16.088  0.00  0.00    +0.000 A 
ENDBRANCH   8  18
BRANCH   6  24
ATOM     24  C   UNL     1       1.932   8.694  18.663  0.00  0.00    +0.000 C 
BRANCH  24  25
ATOM     25  C   UNL     1       2.522   7.258  18.776  0.00  0.00    +0.000 C 
BRANCH  25  26
ATOM     26  N   UNL     1       2.457   6.791  20.178  0.00  0.00    +0.000 NA
ATOM     27  H   UNL     1       2.422   5.772  20.190  0.00  0.00    +0.000 HD
ATOM     28  H   UNL     1       1.554   7.083  20.559  0.00  0.00    +0.000 HD
ENDBRANCH  25  26
BRANCH  25  29
ATOM     29  C   UNL     1       1.822   6.294  17.795  0.00  0.00    +0.000 C 
BRANCH  29  30
ATOM     30  C   UNL     1       2.327   4.867  17.857  0.00  0.00    +0.000 A 
ATOM     31  C   UNL     1       3.668   4.579  17.566  0.00  0.00    +0.000 A 
ATOM     32  C   UNL     1       4.133   3.263  17.590  0.00  0.00    +0.000 A 
ATOM     33  C   UNL     1       3.266   2.221  17.909  0.00  0.00    +0.000 A 
ATOM     34  C   UNL     1       1.936   2.495  18.216  0.00  0.00    +0.000 A 
ATOM     35  C   UNL     1       1.469   3.811  18.196  0.00  0.00    +0.000 A 
ENDBRANCH  29  30
ENDBRANCH  25  29
ENDBRANCH  24  25
ENDBRANCH   6  24
TORSDOF 7
ENDMDL
MODEL 9
REMARK VINA RESULT:      -7.2      5.212      7.639
REMARK  Name = 
REMARK  8 active torsions:
REMARK  status: ('A' for Active; 'I' for Inactive)
REMARK    1  A    between atoms: C_1  and  C_2
REMARK    2  A    between atoms: C_4  and  C_5
REMARK    3  A    between atoms: N_10  and  C_11
REMARK    4  A    between atoms: C_11  and  C_12
REMARK    5  A    between atoms: C_12  and  N_13
REMARK    6  A    between atoms: C_12  and  C_14
REMARK    7  A    between atoms: C_14  and  C_15
REMARK    8  A    between atoms: C_22  and  C_23
REMARK                            x       y       z     vdW  Elec       q    Type
REMARK                         _______ _______ _______ _____ _____    ______ ____
ROOT
ATOM      1  C   UNL     1       2.132  14.061  20.522  0.00  0.00    +0.000 A 
ATOM      2  C   UNL     1       1.860  14.802  19.391  0.00  0.00    +0.000 A 
ATOM      3  S   UNL     1       3.187  15.764  18.918  0.00  0.00    +0.000 S 
ATOM      4  C   UNL     1       4.172  15.162  20.197  0.00  0.00    +0.000 A 
ATOM      5  C   UNL     1       5.497  15.482  20.524  0.00  0.00    +0.000 A 
ATOM      6  N   UNL     1       6.198  16.479  19.849  0.00  0.00    +0.000 N 
ATOM      7  N   UNL     1       6.063  14.824  21.553  0.00  0.00    +0.000 NA
ATOM      8  C   UNL     1       5.341  13.927  22.252  0.00  0.00    +0.000 A 
ATOM      9  N   UNL     1       4.065  13.603  22.017  0.00  0.00    +0.000 NA
ATOM     10  C   UNL     1       3.483  14.235  20.969  0.00  0.00    +0.000 A 
ATOM     11  H   UNL     1       5.731  16.758  18.990  0.00  0.00    +0.000 HD
ENDROOT
BRANCH   1  15
ATOM     12  C   UNL     1      -1.836  12.183  23.048  0.00  0.00    +0.000 C 
ATOM     13  C   UNL     1      -0.607  12.476  22.292  0.00  0.00    +0.000 A 
ATOM     14  C   UNL     1      -0.003  13.630  21.866  0.00  0.00    +0.000 A 
ATOM     15  C   UNL     1       1.156  13.192  21.191  0.00  0.00    +0.000 A 
ATOM     16  N   UNL     1       1.242  11.856  21.184  0.00  0.00    +0.000 NA
ATOM     17  O   UNL     1       0.137  11.410  21.894  0.00  0.00    +0.000 OA
ENDBRANCH   1  15
BRANCH   8  18
ATOM     18  C   UNL     1       5.998  13.258  23.391  0.00  0.00    +0.000 A 
ATOM     19  C   UNL     1       6.954  12.249  23.195  0.00  0.00    +0.000 A 
ATOM     20  C   UNL     1       7.552  11.655  24.293  0.00  0.00    +0.000 A 
ATOM     21  N   UNL     1       7.273  11.984  25.570  0.00  0.00    +0.000 NA
ATOM     22  C   UNL     1       6.356  12.953  25.756  0.00  0.00    +0.000 A 
ATOM     23  C   UNL     1       5.704  13.606  24.723  0.00  0.00    +0.000 A 
ENDBRANCH   8  18
BRANCH   6  24
ATOM     24  C   UNL     1       7.645  16.295  19.718  0.00  0.00    +0.000 C 
BRANCH  24  25
ATOM     25  C   UNL     1       7.908  15.060  18.808  0.00  0.00    +0.000 C 
BRANCH  25  26
ATOM     26  N   UNL     1       7.758  15.436  17.385  0.00  0.00    +0.000 NA
ATOM     27  H   UNL     1       7.615  16.443  17.318  0.00  0.00    +0.000 HD
ATOM     28  H   UNL     1       6.882  15.029  17.050  0.00  0.00    +0.000 HD
ENDBRANCH  25  26
BRANCH  25  29
ATOM     29  C   UNL     1       9.284  14.431  19.114  0.00  0.00    +0.000 C 
BRANCH  29  30
ATOM     30  C   UNL     1       9.269  12.920  19.217  0.00  0.00    +0.000 A 
ATOM     31  C   UNL     1       9.435  12.294  20.461  0.00  0.00    +0.000 A 
ATOM     32  C   UNL     1       9.455  10.902  20.559  0.00  0.00    +0.000 A 
ATOM     33  C   UNL     1       9.304  10.118  19.417  0.00  0.00    +0.000 A 
ATOM     34  C   UNL     1       9.121  10.726  18.178  0.00  0.00    +0.000 A 
ATOM     35  C   UNL     1       9.099  12.119  18.078  0.00  0.00    +0.000 A 
ENDBRANCH  29  30
ENDBRANCH  25  29
ENDBRANCH  24  25
ENDBRANCH   6  24
TORSDOF 7
ENDMDL
