MODEL 1
REMARK VINA RESULT:      -6.3      0.000      0.000
REMARK  Name = 
REMARK  4 active torsions:
REMARK  status: ('A' for Active; 'I' for Inactive)
REMARK    1  A    between atoms: C_1  and  N_2
REMARK    2  A    between atoms: N_2  and  C_3
REMARK    3  A    between atoms: C_3  and  C_4
REMARK    4  A    between atoms: N_15  and  C_16
REMARK                            x       y       z     vdW  Elec       q    Type
REMARK                         _______ _______ _______ _____ _____    ______ ____
ROOT
ATOM      1  C   UNL     1       2.156   8.569  19.644  0.00  0.00    +0.000 C 
ATOM      2  N   UNL     1       1.632   7.267  20.082  0.00  0.00    +0.000 N 
ATOM      3  C   UNL     1       2.396   6.176  19.715  0.00  0.00    +0.000 C 
ATOM      4  O   UNL     1       3.486   6.367  19.171  0.00  0.00    +0.000 OA
ATOM      5  N   UNL     1       1.958   4.879  19.932  0.00  0.00    +0.000 N 
ATOM      6  C   UNL     1       0.655   4.398  20.368  0.00  0.00    +0.000 C 
ATOM      7  C   UNL     1       0.544   2.979  19.850  0.00  0.00    +0.000 C 
ATOM      8  C   UNL     1       1.973   2.480  19.924  0.00  0.00    +0.000 C 
ATOM      9  C   UNL     1       2.823   3.718  19.540  0.00  0.00    +0.000 C 
ATOM     10  C   UNL     1       4.168   3.693  20.278  0.00  0.00    +0.000 C 
ATOM     11  C   UNL     1       5.249   3.431  19.236  0.00  0.00    +0.000 C 
ATOM     12  N   UNL     1       4.620   3.545  17.926  0.00  0.00    +0.000 N 
ATOM     13  C   UNL     1       3.171   3.706  18.030  0.00  0.00    +0.000 C 
ENDROOT
BRANCH  12  14
ATOM     14  C   UNL     1       5.297   4.253  16.934  0.00  0.00    +0.000 A 
ATOM     15  N   UNL     1       5.055   3.959  15.621  0.00  0.00    +0.000 NA
ATOM     16  C   UNL     1       5.742   4.595  14.653  0.00  0.00    +0.000 A 
ATOM     17  N   UNL     1       6.663   5.559  14.786  0.00  0.00    +0.000 NA
ATOM     18  C   UNL     1       6.842   5.871  16.077  0.00  0.00    +0.000 A 
ATOM     19  N   UNL     1       7.712   6.830  16.517  0.00  0.00    +0.000 N 
ATOM     20  C   UNL     1       7.646   6.931  17.881  0.00  0.00    +0.000 A 
ATOM     21  C   UNL     1       6.712   6.014  18.314  0.00  0.00    +0.000 A 
ATOM     22  C   UNL     1       6.213   5.306  17.177  0.00  0.00    +0.000 A 
ATOM     23  H   UNL     1       8.303   7.373  15.903  0.00  0.00    +0.000 HD
ENDBRANCH  12  14
BRANCH   2  24
ATOM     24  C   UNL     1       0.478   7.252  20.985  0.00  0.00    +0.000 C 
BRANCH  24  25
ATOM     25  C   UNL     1       0.113   8.514  21.652  0.00  0.00    +0.000 C 
ATOM     26  N   UNL     1      -0.167   9.494  22.213  0.00  0.00    +0.000 NA
ENDBRANCH  24  25
ENDBRANCH   2  24
TORSDOF 3
ENDMDL
MODEL 2
REMARK VINA RESULT:      -6.3      7.708      9.418
REMARK  Name = 
REMARK  4 active torsions:
REMARK  status: ('A' for Active; 'I' for Inactive)
REMARK    1  A    between atoms: C_1  and  N_2
REMARK    2  A    between atoms: N_2  and  C_3
REMARK    3  A    between atoms: C_3  and  C_4
REMARK    4  A    between atoms: N_15  and  C_16
REMARK                            x       y       z     vdW  Elec       q    Type
REMARK                         _______ _______ _______ _____ _____    ______ ____
ROOT
ATOM      1  C   UNL     1      -4.260  14.201  21.135  0.00  0.00    +0.000 C 
ATOM      2  N   UNL     1      -4.114  13.075  20.202  0.00  0.00    +0.000 N 
ATOM      3  C   UNL     1      -2.822  12.617  20.036  0.00  0.00    +0.000 C 
ATOM      4  O   UNL     1      -1.927  13.086  20.744  0.00  0.00    +0.000 OA
ATOM      5  N   UNL     1      -2.509  11.658  19.085  0.00  0.00    +0.000 N 
ATOM      6  C   UNL     1      -3.329  11.104  18.019  0.00  0.00    +0.000 C 
ATOM      7  C   UNL     1      -2.360  10.612  16.963  0.00  0.00    +0.000 C 
ATOM      8  C   UNL     1      -1.176  10.146  17.785  0.00  0.00    +0.000 C 
ATOM      9  C   UNL     1      -1.097  11.169  18.947  0.00  0.00    +0.000 C 
ATOM     10  C   UNL     1      -0.566  10.496  20.218  0.00  0.00    +0.000 C 
ATOM     11  C   UNL     1       0.824  11.063  20.482  0.00  0.00    +0.000 C 
ATOM     12  N   UNL     1       1.009  12.187  19.573  0.00  0.00    +0.000 N 
ATOM     13  C   UNL     1      -0.093  12.304  18.620  0.00  0.00    +0.000 C 
ENDROOT
BRANCH  12  14
ATOM     14  C   UNL     1       1.572  13.355  20.083  0.00  0.00    +0.000 A 
ATOM     15  N   UNL     1       1.369  13.675  21.397  0.00  0.00    +0.000 NA
ATOM     16  C   UNL     1       1.859  14.828  21.891  0.00  0.00    +0.000 A 
ATOM     17  N   UNL     1       2.592  15.755  21.260  0.00  0.00    +0.000 NA
ATOM     18  C   UNL     1       2.825  15.395  19.991  0.00  0.00    +0.000 A 
ATOM     19  N   UNL     1       3.557  16.140  19.108  0.00  0.00    +0.000 N 
ATOM     20  C   UNL     1       3.638  15.492  17.904  0.00  0.00    +0.000 A 
ATOM     21  C   UNL     1       2.941  14.309  18.029  0.00  0.00    +0.000 A 
ATOM     22  C   UNL     1       2.388  14.247  19.346  0.00  0.00    +0.000 A 
ATOM     23  H   UNL     1       3.969  17.033  19.337  0.00  0.00    +0.000 HD
ENDBRANCH  12  14
BRANCH   2  24
ATOM     24  C   UNL     1      -5.329  12.444  19.680  0.00  0.00    +0.000 C 
BRANCH  24  25
ATOM     25  C   UNL     1      -6.282  11.881  20.653  0.00  0.00    +0.000 C 
ATOM     26  N   UNL     1      -7.020  11.400  21.411  0.00  0.00    +0.000 NA
ENDBRANCH  24  25
ENDBRANCH   2  24
TORSDOF 3
ENDMDL
MODEL 3
REMARK VINA RESULT:      -6.1      6.238     10.091
REMARK  Name = 
REMARK  4 active torsions:
REMARK  status: ('A' for Active; 'I' for Inactive)
REMARK    1  A    between atoms: C_1  and  N_2
REMARK    2  A    between atoms: N_2  and  C_3
REMARK    3  A    between atoms: C_3  and  C_4
REMARK    4  A    between atoms: N_15  and  C_16
REMARK                            x       y       z     vdW  Elec       q    Type
REMARK                         _______ _______ _______ _____ _____    ______ ____
ROOT
ATOM      1  C   UNL     1      -3.702  11.554  17.556  0.00  0.00    +0.000 C 
ATOM      2  N   UNL     1      -2.502  10.708  17.515  0.00  0.00    +0.000 N 
ATOM      3  C   UNL     1      -1.742  10.715  18.669  0.00  0.00    +0.000 C 
ATOM      4  O   UNL     1      -2.169  11.312  19.660  0.00  0.00    +0.000 OA
ATOM      5  N   UNL     1      -0.511  10.081  18.730  0.00  0.00    +0.000 N 
ATOM      6  C   UNL     1       0.284   9.488  17.665  0.00  0.00    +0.000 C 
ATOM      7  C   UNL     1       1.717   9.515  18.154  0.00  0.00    +0.000 C 
ATOM      8  C   UNL     1       1.567   9.310  19.648  0.00  0.00    +0.000 C 
ATOM      9  C   UNL     1       0.277  10.091  20.006  0.00  0.00    +0.000 C 
ATOM     10  C   UNL     1      -0.454   9.410  21.171  0.00  0.00    +0.000 C 
ATOM     11  C   UNL     1      -0.332  10.331  22.380  0.00  0.00    +0.000 C 
ATOM     12  N   UNL     1       0.216  11.595  21.903  0.00  0.00    +0.000 N 
ATOM     13  C   UNL     1       0.612  11.522  20.499  0.00  0.00    +0.000 C 
ENDROOT
BRANCH  12  14
ATOM     14  C   UNL     1      -0.361  12.775  22.370  0.00  0.00    +0.000 A 
ATOM     15  N   UNL     1       0.323  13.951  22.233  0.00  0.00    +0.000 NA
ATOM     16  C   UNL     1      -0.196  15.091  22.729  0.00  0.00    +0.000 A 
ATOM     17  N   UNL     1      -1.372  15.267  23.346  0.00  0.00    +0.000 NA
ATOM     18  C   UNL     1      -2.049  14.113  23.418  0.00  0.00    +0.000 A 
ATOM     19  N   UNL     1      -3.288  13.989  23.984  0.00  0.00    +0.000 N 
ATOM     20  C   UNL     1      -3.723  12.694  23.878  0.00  0.00    +0.000 A 
ATOM     21  C   UNL     1      -2.736  11.984  23.229  0.00  0.00    +0.000 A 
ATOM     22  C   UNL     1      -1.646  12.868  22.957  0.00  0.00    +0.000 A 
ATOM     23  H   UNL     1      -3.788  14.757  24.409  0.00  0.00    +0.000 HD
ENDBRANCH  12  14
BRANCH   2  24
ATOM     24  C   UNL     1      -2.312   9.828  16.359  0.00  0.00    +0.000 C 
BRANCH  24  25
ATOM     25  C   UNL     1      -2.978  10.199  15.098  0.00  0.00    +0.000 C 
ATOM     26  N   UNL     1      -3.532  10.466  14.111  0.00  0.00    +0.000 NA
ENDBRANCH  24  25
ENDBRANCH   2  24
TORSDOF 3
ENDMDL
MODEL 4
REMARK VINA RESULT:      -6.0      4.868      8.217
REMARK  Name = 
REMARK  4 active torsions:
REMARK  status: ('A' for Active; 'I' for Inactive)
REMARK    1  A    between atoms: C_1  and  N_2
REMARK    2  A    between atoms: N_2  and  C_3
REMARK    3  A    between atoms: C_3  and  C_4
REMARK    4  A    between atoms: N_15  and  C_16
REMARK                            x       y       z     vdW  Elec       q    Type
REMARK                         _______ _______ _______ _____ _____    ______ ____
ROOT
ATOM      1  C   UNL     1      -3.705  10.415  15.932  0.00  0.00    +0.000 C 
ATOM      2  N   UNL     1      -3.896  11.278  17.106  0.00  0.00    +0.000 N 
ATOM      3  C   UNL     1      -2.765  11.477  17.875  0.00  0.00    +0.000 C 
ATOM      4  O   UNL     1      -1.686  11.033  17.475  0.00  0.00    +0.000 OA
ATOM      5  N   UNL     1      -2.822  12.148  19.087  0.00  0.00    +0.000 N 
ATOM      6  C   UNL     1      -3.978  12.586  19.854  0.00  0.00    +0.000 C 
ATOM      7  C   UNL     1      -3.509  12.679  21.292  0.00  0.00    +0.000 C 
ATOM      8  C   UNL     1      -2.065  13.115  21.147  0.00  0.00    +0.000 C 
ATOM      9  C   UNL     1      -1.570  12.365  19.885  0.00  0.00    +0.000 C 
ATOM     10  C   UNL     1      -0.519  13.200  19.143  0.00  0.00    +0.000 C 
ATOM     11  C   UNL     1       0.819  12.488  19.303  0.00  0.00    +0.000 C 
ATOM     12  N   UNL     1       0.543  11.181  19.886  0.00  0.00    +0.000 N 
ATOM     13  C   UNL     1      -0.861  11.040  20.268  0.00  0.00    +0.000 C 
ENDROOT
BRANCH  12  14
ATOM     14  C   UNL     1       1.198  10.074  19.349  0.00  0.00    +0.000 A 
ATOM     15  N   UNL     1       1.729  10.157  18.092  0.00  0.00    +0.000 NA
ATOM     16  C   UNL     1       2.315   9.079  17.538  0.00  0.00    +0.000 A 
ATOM     17  N   UNL     1       2.501   7.867  18.077  0.00  0.00    +0.000 NA
ATOM     18  C   UNL     1       2.024   7.825  19.329  0.00  0.00    +0.000 A 
ATOM     19  N   UNL     1       2.085   6.720  20.133  0.00  0.00    +0.000 N 
ATOM     20  C   UNL     1       1.541   7.002  21.357  0.00  0.00    +0.000 A 
ATOM     21  C   UNL     1       1.126   8.316  21.327  0.00  0.00    +0.000 A 
ATOM     22  C   UNL     1       1.398   8.847  20.028  0.00  0.00    +0.000 A 
ATOM     23  H   UNL     1       2.482   5.838  19.841  0.00  0.00    +0.000 HD
ENDBRANCH  12  14
BRANCH   2  24
ATOM     24  C   UNL     1      -5.179  11.968  17.260  0.00  0.00    +0.000 C 
BRANCH  24  25
ATOM     25  C   UNL     1      -6.253  11.265  17.984  0.00  0.00    +0.000 C 
ATOM     26  N   UNL     1      -7.098  10.681  18.528  0.00  0.00    +0.000 NA
ENDBRANCH  24  25
ENDBRANCH   2  24
TORSDOF 3
ENDMDL
MODEL 5
REMARK VINA RESULT:      -6.0      4.825      8.618
REMARK  Name = 
REMARK  4 active torsions:
REMARK  status: ('A' for Active; 'I' for Inactive)
REMARK    1  A    between atoms: C_1  and  N_2
REMARK    2  A    between atoms: N_2  and  C_3
REMARK    3  A    between atoms: C_3  and  C_4
REMARK    4  A    between atoms: N_15  and  C_16
REMARK                            x       y       z     vdW  Elec       q    Type
REMARK                         _______ _______ _______ _____ _____    ______ ____
ROOT
ATOM      1  C   UNL     1       2.971   8.216  17.791  0.00  0.00    +0.000 C 
ATOM      2  N   UNL     1       2.126   8.127  18.990  0.00  0.00    +0.000 N 
ATOM      3  C   UNL     1       1.482   9.298  19.339  0.00  0.00    +0.000 C 
ATOM      4  O   UNL     1       1.560  10.270  18.584  0.00  0.00    +0.000 OA
ATOM      5  N   UNL     1       0.767   9.407  20.522  0.00  0.00    +0.000 N 
ATOM      6  C   UNL     1       0.688   8.489  21.649  0.00  0.00    +0.000 C 
ATOM      7  C   UNL     1       0.313   9.336  22.847  0.00  0.00    +0.000 C 
ATOM      8  C   UNL     1      -0.580  10.400  22.241  0.00  0.00    +0.000 C 
ATOM      9  C   UNL     1       0.062  10.687  20.860  0.00  0.00    +0.000 C 
ATOM     10  C   UNL     1      -1.015  11.070  19.837  0.00  0.00    +0.000 C 
ATOM     11  C   UNL     1      -0.825  12.547  19.512  0.00  0.00    +0.000 C 
ATOM     12  N   UNL     1       0.440  12.958  20.107  0.00  0.00    +0.000 N 
ATOM     13  C   UNL     1       1.021  11.903  20.935  0.00  0.00    +0.000 C 
ENDROOT
BRANCH  12  14
ATOM     14  C   UNL     1       1.296  13.749  19.343  0.00  0.00    +0.000 A 
ATOM     15  N   UNL     1       2.463  13.211  18.876  0.00  0.00    +0.000 NA
ATOM     16  C   UNL     1       3.327  13.979  18.185  0.00  0.00    +0.000 A 
ATOM     17  N   UNL     1       3.194  15.264  17.830  0.00  0.00    +0.000 NA
ATOM     18  C   UNL     1       2.019  15.754  18.249  0.00  0.00    +0.000 A 
ATOM     19  N   UNL     1       1.602  17.037  18.021  0.00  0.00    +0.000 N 
ATOM     20  C   UNL     1       0.351  17.222  18.548  0.00  0.00    +0.000 A 
ATOM     21  C   UNL     1      -0.032  16.028  19.121  0.00  0.00    +0.000 A 
ATOM     22  C   UNL     1       1.036  15.090  18.968  0.00  0.00    +0.000 A 
ATOM     23  H   UNL     1       2.155  17.725  17.531  0.00  0.00    +0.000 HD
ENDBRANCH  12  14
BRANCH   2  24
ATOM     24  C   UNL     1       1.910   6.808  19.590  0.00  0.00    +0.000 C 
BRANCH  24  25
ATOM     25  C   UNL     1       3.037   5.858  19.581  0.00  0.00    +0.000 C 
ATOM     26  N   UNL     1       3.937   5.123  19.538  0.00  0.00    +0.000 NA
ENDBRANCH  24  25
ENDBRANCH   2  24
TORSDOF 3
ENDMDL
MODEL 6
REMARK VINA RESULT:      -6.0      5.263      8.890
REMARK  Name = 
REMARK  4 active torsions:
REMARK  status: ('A' for Active; 'I' for Inactive)
REMARK    1  A    between atoms: C_1  and  N_2
REMARK    2  A    between atoms: N_2  and  C_3
REMARK    3  A    between atoms: C_3  and  C_4
REMARK    4  A    between atoms: N_15  and  C_16
REMARK                            x       y       z     vdW  Elec       q    Type
REMARK                         _______ _______ _______ _____ _____    ______ ____
ROOT
ATOM      1  C   UNL     1      -4.355  10.990  16.748  0.00  0.00    +0.000 C 
ATOM      2  N   UNL     1      -4.529  11.720  18.012  0.00  0.00    +0.000 N 
ATOM      3  C   UNL     1      -3.366  11.937  18.726  0.00  0.00    +0.000 C 
ATOM      4  O   UNL     1      -2.287  11.623  18.219  0.00  0.00    +0.000 OA
ATOM      5  N   UNL     1      -3.390  12.483  20.000  0.00  0.00    +0.000 N 
ATOM      6  C   UNL     1      -4.520  12.751  20.876  0.00  0.00    +0.000 C 
ATOM      7  C   UNL     1      -3.962  12.745  22.285  0.00  0.00    +0.000 C 
ATOM      8  C   UNL     1      -2.568  13.310  22.097  0.00  0.00    +0.000 C 
ATOM      9  C   UNL     1      -2.106  12.725  20.738  0.00  0.00    +0.000 C 
ATOM     10  C   UNL     1      -1.175  13.710  20.020  0.00  0.00    +0.000 C 
ATOM     11  C   UNL     1       0.221  13.098  20.026  0.00  0.00    +0.000 C 
ATOM     12  N   UNL     1       0.085  11.723  20.491  0.00  0.00    +0.000 N 
ATOM     13  C   UNL     1      -1.274  11.433  20.943  0.00  0.00    +0.000 C 
ENDROOT
BRANCH  12  14
ATOM     14  C   UNL     1       0.784  10.730  19.808  0.00  0.00    +0.000 A 
ATOM     15  N   UNL     1       1.268  10.995  18.557  0.00  0.00    +0.000 NA
ATOM     16  C   UNL     1       1.896  10.027  17.861  0.00  0.00    +0.000 A 
ATOM     17  N   UNL     1       2.167   8.772  18.245  0.00  0.00    +0.000 NA
ATOM     18  C   UNL     1       1.733   8.552  19.494  0.00  0.00    +0.000 A 
ATOM     19  N   UNL     1       1.882   7.365  20.155  0.00  0.00    +0.000 N 
ATOM     20  C   UNL     1       1.362   7.466  21.419  0.00  0.00    +0.000 A 
ATOM     21  C   UNL     1       0.874   8.747  21.559  0.00  0.00    +0.000 A 
ATOM     22  C   UNL     1       1.073   9.444  20.327  0.00  0.00    +0.000 A 
ATOM     23  H   UNL     1       2.318   6.550  19.749  0.00  0.00    +0.000 HD
ENDBRANCH  12  14
BRANCH   2  24
ATOM     24  C   UNL     1      -5.847  12.285  18.311  0.00  0.00    +0.000 C 
BRANCH  24  25
ATOM     25  C   UNL     1      -6.407  13.260  17.358  0.00  0.00    +0.000 C 
ATOM     26  N   UNL     1      -6.856  14.054  16.637  0.00  0.00    +0.000 NA
ENDBRANCH  24  25
ENDBRANCH   2  24
TORSDOF 3
ENDMDL
MODEL 7
REMARK VINA RESULT:      -6.0      7.683      9.492
REMARK  Name = 
REMARK  4 active torsions:
REMARK  status: ('A' for Active; 'I' for Inactive)
REMARK    1  A    between atoms: C_1  and  N_2
REMARK    2  A    between atoms: N_2  and  C_3
REMARK    3  A    between atoms: C_3  and  C_4
REMARK    4  A    between atoms: N_15  and  C_16
REMARK                            x       y       z     vdW  Elec       q    Type
REMARK                         _______ _______ _______ _____ _____    ______ ____
ROOT
ATOM      1  C   UNL     1      -5.169  13.146  21.061  0.00  0.00    +0.000 C 
ATOM      2  N   UNL     1      -5.079  12.383  19.809  0.00  0.00    +0.000 N 
ATOM      3  C   UNL     1      -3.799  12.029  19.430  0.00  0.00    +0.000 C 
ATOM      4  O   UNL     1      -2.863  12.262  20.199  0.00  0.00    +0.000 OA
ATOM      5  N   UNL     1      -3.544  11.434  18.204  0.00  0.00    +0.000 N 
ATOM      6  C   UNL     1      -4.427  11.236  17.065  0.00  0.00    +0.000 C 
ATOM      7  C   UNL     1      -3.523  11.131  15.854  0.00  0.00    +0.000 C 
ATOM      8  C   UNL     1      -2.291  10.447  16.412  0.00  0.00    +0.000 C 
ATOM      9  C   UNL     1      -2.143  11.043  17.835  0.00  0.00    +0.000 C 
ATOM     10  C   UNL     1      -1.536  10.006  18.789  0.00  0.00    +0.000 C 
ATOM     11  C   UNL     1      -0.133  10.485  19.142  0.00  0.00    +0.000 C 
ATOM     12  N   UNL     1      -0.003  11.845  18.636  0.00  0.00    +0.000 N 
ATOM     13  C   UNL     1      -1.161  12.242  17.837  0.00  0.00    +0.000 C 
ENDROOT
BRANCH  12  14
ATOM     14  C   UNL     1       0.590  12.797  19.463  0.00  0.00    +0.000 A 
ATOM     15  N   UNL     1       0.082  13.001  20.717  0.00  0.00    +0.000 NA
ATOM     16  C   UNL     1       0.608  13.956  21.507  0.00  0.00    +0.000 A 
ATOM     17  N   UNL     1       1.642  14.769  21.250  0.00  0.00    +0.000 NA
ATOM     18  C   UNL     1       2.159  14.514  20.040  0.00  0.00    +0.000 A 
ATOM     19  N   UNL     1       3.231  15.179  19.512  0.00  0.00    +0.000 N 
ATOM     20  C   UNL     1       3.534  14.670  18.277  0.00  0.00    +0.000 A 
ATOM     21  C   UNL     1       2.632  13.660  18.018  0.00  0.00    +0.000 A 
ATOM     22  C   UNL     1       1.726  13.569  19.120  0.00  0.00    +0.000 A 
ATOM     23  H   UNL     1       3.712  15.929  19.987  0.00  0.00    +0.000 HD
ENDBRANCH  12  14
BRANCH   2  24
ATOM     24  C   UNL     1      -6.323  11.931  19.181  0.00  0.00    +0.000 C 
BRANCH  24  25
ATOM     25  C   UNL     1      -6.796  10.572  19.497  0.00  0.00    +0.000 C 
ATOM     26  N   UNL     1      -7.207   9.512  19.744  0.00  0.00    +0.000 NA
ENDBRANCH  24  25
ENDBRANCH   2  24
TORSDOF 3
ENDMDL
MODEL 8
REMARK VINA RESULT:      -5.9      8.174     10.137
REMARK  Name = 
REMARK  4 active torsions:
REMARK  status: ('A' for Active; 'I' for Inactive)
REMARK    1  A    between atoms: C_1  and  N_2
REMARK    2  A    between atoms: N_2  and  C_3
REMARK    3  A    between atoms: C_3  and  C_4
REMARK    4  A    between atoms: N_15  and  C_16
REMARK                            x       y       z     vdW  Elec       q    Type
REMARK                         _______ _______ _______ _____ _____    ______ ____
ROOT
ATOM      1  C   UNL     1      -5.760  13.375  19.864  0.00  0.00    +0.000 C 
ATOM      2  N   UNL     1      -5.153  12.214  19.197  0.00  0.00    +0.000 N 
ATOM      3  C   UNL     1      -3.774  12.168  19.246  0.00  0.00    +0.000 C 
ATOM      4  O   UNL     1      -3.172  13.005  19.924  0.00  0.00    +0.000 OA
ATOM      5  N   UNL     1      -3.055  11.214  18.542  0.00  0.00    +0.000 N 
ATOM      6  C   UNL     1      -3.508  10.261  17.540  0.00  0.00    +0.000 C 
ATOM      7  C   UNL     1      -2.291   9.934  16.700  0.00  0.00    +0.000 C 
ATOM      8  C   UNL     1      -1.159  10.007  17.705  0.00  0.00    +0.000 C 
ATOM      9  C   UNL     1      -1.558  11.179  18.637  0.00  0.00    +0.000 C 
ATOM     10  C   UNL     1      -1.050  10.927  20.062  0.00  0.00    +0.000 C 
ATOM     11  C   UNL     1       0.057  11.939  20.332  0.00  0.00    +0.000 C 
ATOM     12  N   UNL     1       0.039  12.898  19.235  0.00  0.00    +0.000 N 
ATOM     13  C   UNL     1      -0.893  12.503  18.181  0.00  0.00    +0.000 C 
ENDROOT
BRANCH  12  14
ATOM     14  C   UNL     1       0.152  14.252  19.547  0.00  0.00    +0.000 A 
ATOM     15  N   UNL     1      -0.770  14.824  20.379  0.00  0.00    +0.000 NA
ATOM     16  C   UNL     1      -0.706  16.142  20.646  0.00  0.00    +0.000 A 
ATOM     17  N   UNL     1       0.200  17.032  20.220  0.00  0.00    +0.000 NA
ATOM     18  C   UNL     1       1.125  16.439  19.453  0.00  0.00    +0.000 A 
ATOM     19  N   UNL     1       2.183  17.096  18.887  0.00  0.00    +0.000 N 
ATOM     20  C   UNL     1       2.961  16.213  18.187  0.00  0.00    +0.000 A 
ATOM     21  C   UNL     1       2.382  14.968  18.313  0.00  0.00    +0.000 A 
ATOM     22  C   UNL     1       1.190  15.101  19.092  0.00  0.00    +0.000 A 
ATOM     23  H   UNL     1       2.344  18.088  18.989  0.00  0.00    +0.000 HD
ENDBRANCH  12  14
BRANCH   2  24
ATOM     24  C   UNL     1      -6.038  11.156  18.704  0.00  0.00    +0.000 C 
BRANCH  24  25
ATOM     25  C   UNL     1      -6.792  10.373  19.699  0.00  0.00    +0.000 C 
ATOM     26  N   UNL     1      -7.399   9.790  20.501  0.00  0.00    +0.000 NA
ENDBRANCH  24  25
ENDBRANCH   2  24
TORSDOF 3
ENDMDL
MODEL 9
REMARK VINA RESULT:      -5.9      7.546      9.429
REMARK  Name = 
REMARK  4 active torsions:
REMARK  status: ('A' for Active; 'I' for Inactive)
REMARK    1  A    between atoms: C_1  and  N_2
REMARK    2  A    between atoms: N_2  and  C_3
REMARK    3  A    between atoms: C_3  and  C_4
REMARK    4  A    between atoms: N_15  and  C_16
REMARK                            x       y       z     vdW  Elec       q    Type
REMARK                         _______ _______ _______ _____ _____    ______ ____
ROOT
ATOM      1  C   UNL     1      -4.479  13.853  20.565  0.00  0.00    +0.000 C 
ATOM      2  N   UNL     1      -4.173  12.680  19.734  0.00  0.00    +0.000 N 
ATOM      3  C   UNL     1      -2.847  12.296  19.730  0.00  0.00    +0.000 C 
ATOM      4  O   UNL     1      -2.058  12.866  20.488  0.00  0.00    +0.000 OA
ATOM      5  N   UNL     1      -2.383  11.300  18.885  0.00  0.00    +0.000 N 
ATOM      6  C   UNL     1      -3.056  10.626  17.784  0.00  0.00    +0.000 C 
ATOM      7  C   UNL     1      -1.957  10.130  16.868  0.00  0.00    +0.000 C 
ATOM      8  C   UNL     1      -0.839   9.794  17.834  0.00  0.00    +0.000 C 
ATOM      9  C   UNL     1      -0.940  10.893  18.923  0.00  0.00    +0.000 C 
ATOM     10  C   UNL     1      -0.505  10.338  20.285  0.00  0.00    +0.000 C 
ATOM     11  C   UNL     1       0.816  11.008  20.645  0.00  0.00    +0.000 C 
ATOM     12  N   UNL     1       1.030  12.081  19.682  0.00  0.00    +0.000 N 
ATOM     13  C   UNL     1       0.027  12.066  18.619  0.00  0.00    +0.000 C 
ENDROOT
BRANCH  12  14
ATOM     14  C   UNL     1       1.469  13.313  20.162  0.00  0.00    +0.000 A 
ATOM     15  N   UNL     1       1.165  13.677  21.444  0.00  0.00    +0.000 NA
ATOM     16  C   UNL     1       1.534  14.888  21.904  0.00  0.00    +0.000 A 
ATOM     17  N   UNL     1       2.229  15.840  21.268  0.00  0.00    +0.000 NA
ATOM     18  C   UNL     1       2.566  15.440  20.034  0.00  0.00    +0.000 A 
ATOM     19  N   UNL     1       3.289  16.199  19.156  0.00  0.00    +0.000 N 
ATOM     20  C   UNL     1       3.492  15.503  17.994  0.00  0.00    +0.000 A 
ATOM     21  C   UNL     1       2.882  14.275  18.141  0.00  0.00    +0.000 A 
ATOM     22  C   UNL     1       2.258  14.232  19.426  0.00  0.00    +0.000 A 
ATOM     23  H   UNL     1       3.617  17.132  19.362  0.00  0.00    +0.000 HD
ENDBRANCH  12  14
BRANCH   2  24
ATOM     24  C   UNL     1      -5.290  11.942  19.139  0.00  0.00    +0.000 C 
BRANCH  24  25
ATOM     25  C   UNL     1      -6.059  12.605  18.070  0.00  0.00    +0.000 C 
ATOM     26  N   UNL     1      -6.636  13.118  17.201  0.00  0.00    +0.000 NA
ENDBRANCH  24  25
ENDBRANCH   2  24
TORSDOF 3
ENDMDL
