MODEL 1
REMARK VINA RESULT:      -7.5      0.000      0.000
REMARK  Name = 
REMARK  3 active torsions:
REMARK  status: ('A' for Active; 'I' for Inactive)
REMARK    1  A    between atoms: C_1  and  N_2
REMARK    2  A    between atoms: C_5  and  N_6
REMARK    3  A    between atoms: C_11  and  C_12
REMARK                            x       y       z     vdW  Elec       q    Type
REMARK                         _______ _______ _______ _____ _____    ______ ____
ROOT
ATOM      1  N   UNL     1       0.333  11.308  18.706  0.00  0.00    +0.000 N 
ATOM      2  C   UNL     1       0.834  12.583  19.002  0.00  0.00    +0.000 C 
ATOM      3  O   UNL     1       1.994  12.773  19.412  0.00  0.00    +0.000 OA
ATOM      4  C   UNL     1      -0.087  13.766  18.753  0.00  0.00    +0.000 C 
ATOM      5  N   UNL     1      -1.054  13.844  19.839  0.00  0.00    +0.000 NA
ATOM      6  C   UNL     1      -1.948  12.919  19.931  0.00  0.00    +0.000 C 
ATOM      7  C   UNL     1      -2.125  11.798  18.957  0.00  0.00    +0.000 A 
ATOM      8  C   UNL     1      -3.462  11.440  18.653  0.00  0.00    +0.000 A 
ATOM      9  C   UNL     1      -3.757  10.374  17.815  0.00  0.00    +0.000 A 
ATOM     10  C   UNL     1      -2.717   9.721  17.185  0.00  0.00    +0.000 A 
ATOM     11  C   UNL     1      -1.398  10.119  17.423  0.00  0.00    +0.000 A 
ATOM     12  C   UNL     1      -1.056  11.094  18.375  0.00  0.00    +0.000 A 
ENDROOT
BRANCH   1  17
ATOM     13  C   UNL     1       2.697   6.129  19.580  0.00  0.00    +0.000 C 
ATOM     14  N   UNL     1       1.901   7.317  19.283  0.00  0.00    +0.000 NA
ATOM     15  C   UNL     1       1.641   8.112  20.491  0.00  0.00    +0.000 C 
ATOM     16  C   UNL     1       0.699   9.285  20.191  0.00  0.00    +0.000 C 
ATOM     17  C   UNL     1       1.217  10.136  19.021  0.00  0.00    +0.000 C 
ATOM     18  C   UNL     1       1.608   9.247  17.832  0.00  0.00    +0.000 C 
ATOM     19  C   UNL     1       2.560   8.130  18.254  0.00  0.00    +0.000 C 
ENDBRANCH   1  17
BRANCH   6  20
ATOM     20  C   UNL     1      -2.889  13.003  21.088  0.00  0.00    +0.000 A 
ATOM     21  C   UNL     1      -2.568  12.357  22.287  0.00  0.00    +0.000 A 
ATOM     22  C   UNL     1      -3.447  12.435  23.365  0.00  0.00    +0.000 A 
ATOM     23  C   UNL     1      -4.633  13.153  23.229  0.00  0.00    +0.000 A 
ATOM     24  F   UNL     1      -5.485  13.212  24.262  0.00  0.00    +0.000 F 
ATOM     25  C   UNL     1      -4.958  13.798  22.044  0.00  0.00    +0.000 A 
ATOM     26  C   UNL     1      -4.092  13.714  20.963  0.00  0.00    +0.000 A 
ENDBRANCH   6  20
TORSDOF 2
ENDMDL
MODEL 2
REMARK VINA RESULT:      -6.9      3.017      6.982
REMARK  Name = 
REMARK  3 active torsions:
REMARK  status: ('A' for Active; 'I' for Inactive)
REMARK    1  A    between atoms: C_1  and  N_2
REMARK    2  A    between atoms: C_5  and  N_6
REMARK    3  A    between atoms: C_11  and  C_12
REMARK                            x       y       z     vdW  Elec       q    Type
REMARK                         _______ _______ _______ _____ _____    ______ ____
ROOT
ATOM      1  N   UNL     1      -1.931  12.632  19.651  0.00  0.00    +0.000 N 
ATOM      2  C   UNL     1      -2.651  11.842  18.744  0.00  0.00    +0.000 C 
ATOM      3  O   UNL     1      -3.837  11.513  18.931  0.00  0.00    +0.000 OA
ATOM      4  C   UNL     1      -1.942  11.429  17.465  0.00  0.00    +0.000 C 
ATOM      5  N   UNL     1      -1.031  10.333  17.767  0.00  0.00    +0.000 NA
ATOM      6  C   UNL     1       0.006  10.580  18.493  0.00  0.00    +0.000 C 
ATOM      7  C   UNL     1       0.398  11.933  18.995  0.00  0.00    +0.000 A 
ATOM      8  C   UNL     1       1.785  12.227  18.979  0.00  0.00    +0.000 A 
ATOM      9  C   UNL     1       2.281  13.423  19.480  0.00  0.00    +0.000 A 
ATOM     10  C   UNL     1       1.386  14.384  19.903  0.00  0.00    +0.000 A 
ATOM     11  C   UNL     1       0.012  14.128  19.850  0.00  0.00    +0.000 A 
ATOM     12  C   UNL     1      -0.518  12.879  19.489  0.00  0.00    +0.000 A 
ENDROOT
BRANCH   1  17
ATOM     13  C   UNL     1      -3.417  14.523  24.884  0.00  0.00    +0.000 C 
ATOM     14  N   UNL     1      -2.827  14.159  23.598  0.00  0.00    +0.000 NA
ATOM     15  C   UNL     1      -2.666  12.705  23.467  0.00  0.00    +0.000 C 
ATOM     16  C   UNL     1      -1.931  12.343  22.170  0.00  0.00    +0.000 C 
ATOM     17  C   UNL     1      -2.608  12.976  20.945  0.00  0.00    +0.000 C 
ATOM     18  C   UNL     1      -2.884  14.468  21.186  0.00  0.00    +0.000 C 
ATOM     19  C   UNL     1      -3.634  14.697  22.495  0.00  0.00    +0.000 C 
ENDBRANCH   1  17
BRANCH   6  20
ATOM     20  C   UNL     1       0.887   9.421  18.827  0.00  0.00    +0.000 A 
ATOM     21  C   UNL     1       0.935   8.946  20.142  0.00  0.00    +0.000 A 
ATOM     22  C   UNL     1       1.758   7.866  20.452  0.00  0.00    +0.000 A 
ATOM     23  C   UNL     1       2.523   7.279  19.447  0.00  0.00    +0.000 A 
ATOM     24  F   UNL     1       3.327   6.251  19.750  0.00  0.00    +0.000 F 
ATOM     25  C   UNL     1       2.480   7.743  18.139  0.00  0.00    +0.000 A 
ATOM     26  C   UNL     1       1.670   8.826  17.827  0.00  0.00    +0.000 A 
ENDBRANCH   6  20
TORSDOF 2
ENDMDL
MODEL 3
REMARK VINA RESULT:      -6.8      3.363      6.804
REMARK  Name = 
REMARK  3 active torsions:
REMARK  status: ('A' for Active; 'I' for Inactive)
REMARK    1  A    between atoms: C_1  and  N_2
REMARK    2  A    between atoms: C_5  and  N_6
REMARK    3  A    between atoms: C_11  and  C_12
REMARK                            x       y       z     vdW  Elec       q    Type
REMARK                         _______ _______ _______ _____ _____    ______ ____
ROOT
ATOM      1  N   UNL     1      -0.860  12.717  20.662  0.00  0.00    +0.000 N 
ATOM      2  C   UNL     1      -0.413  12.260  21.909  0.00  0.00    +0.000 C 
ATOM      3  O   UNL     1       0.179  12.994  22.723  0.00  0.00    +0.000 OA
ATOM      4  C   UNL     1      -0.724  10.818  22.275  0.00  0.00    +0.000 C 
ATOM      5  N   UNL     1       0.206   9.945  21.571  0.00  0.00    +0.000 NA
ATOM      6  C   UNL     1       0.104   9.847  20.289  0.00  0.00    +0.000 C 
ATOM      7  C   UNL     1      -0.953  10.505  19.461  0.00  0.00    +0.000 A 
ATOM      8  C   UNL     1      -1.478   9.735  18.392  0.00  0.00    +0.000 A 
ATOM      9  C   UNL     1      -2.415  10.256  17.511  0.00  0.00    +0.000 A 
ATOM     10  C   UNL     1      -2.919  11.517  17.754  0.00  0.00    +0.000 A 
ATOM     11  C   UNL     1      -2.460  12.253  18.851  0.00  0.00    +0.000 A 
ATOM     12  C   UNL     1      -1.410  11.817  19.675  0.00  0.00    +0.000 A 
ENDROOT
BRANCH   1  17
ATOM     13  C   UNL     1      -0.203  17.870  18.175  0.00  0.00    +0.000 C 
ATOM     14  N   UNL     1      -0.526  16.518  18.623  0.00  0.00    +0.000 NA
ATOM     15  C   UNL     1       0.651  15.640  18.593  0.00  0.00    +0.000 C 
ATOM     16  C   UNL     1       0.275  14.194  18.941  0.00  0.00    +0.000 C 
ATOM     17  C   UNL     1      -0.487  14.118  20.273  0.00  0.00    +0.000 C 
ATOM     18  C   UNL     1      -1.622  15.152  20.311  0.00  0.00    +0.000 C 
ATOM     19  C   UNL     1      -1.119  16.552  19.966  0.00  0.00    +0.000 C 
ENDBRANCH   1  17
BRANCH   6  20
ATOM     20  C   UNL     1       1.108   8.985  19.597  0.00  0.00    +0.000 A 
ATOM     21  C   UNL     1       1.552   7.811  20.214  0.00  0.00    +0.000 A 
ATOM     22  C   UNL     1       2.490   7.008  19.568  0.00  0.00    +0.000 A 
ATOM     23  C   UNL     1       2.972   7.391  18.319  0.00  0.00    +0.000 A 
ATOM     24  F   UNL     1       3.887   6.627  17.706  0.00  0.00    +0.000 F 
ATOM     25  C   UNL     1       2.536   8.554  17.699  0.00  0.00    +0.000 A 
ATOM     26  C   UNL     1       1.610   9.363  18.343  0.00  0.00    +0.000 A 
ENDBRANCH   6  20
TORSDOF 2
ENDMDL
MODEL 4
REMARK VINA RESULT:      -6.8      2.992      6.985
REMARK  Name = 
REMARK  3 active torsions:
REMARK  status: ('A' for Active; 'I' for Inactive)
REMARK    1  A    between atoms: C_1  and  N_2
REMARK    2  A    between atoms: C_5  and  N_6
REMARK    3  A    between atoms: C_11  and  C_12
REMARK                            x       y       z     vdW  Elec       q    Type
REMARK                         _______ _______ _______ _____ _____    ______ ____
ROOT
ATOM      1  N   UNL     1      -2.011  12.682  19.695  0.00  0.00    +0.000 N 
ATOM      2  C   UNL     1      -2.709  11.912  18.754  0.00  0.00    +0.000 C 
ATOM      3  O   UNL     1      -3.897  11.573  18.908  0.00  0.00    +0.000 OA
ATOM      4  C   UNL     1      -1.971  11.536  17.479  0.00  0.00    +0.000 C 
ATOM      5  N   UNL     1      -1.061  10.437  17.771  0.00  0.00    +0.000 NA
ATOM      6  C   UNL     1      -0.041  10.669  18.524  0.00  0.00    +0.000 C 
ATOM      7  C   UNL     1       0.335  12.011  19.069  0.00  0.00    +0.000 A 
ATOM      8  C   UNL     1       1.720  12.311  19.088  0.00  0.00    +0.000 A 
ATOM      9  C   UNL     1       2.200  13.495  19.630  0.00  0.00    +0.000 A 
ATOM     10  C   UNL     1       1.291  14.441  20.060  0.00  0.00    +0.000 A 
ATOM     11  C   UNL     1      -0.080  14.181  19.973  0.00  0.00    +0.000 A 
ATOM     12  C   UNL     1      -0.596  12.939  19.569  0.00  0.00    +0.000 A 
ENDROOT
BRANCH   1  17
ATOM     13  C   UNL     1      -5.331  12.766  24.401  0.00  0.00    +0.000 C 
ATOM     14  N   UNL     1      -4.597  12.529  23.161  0.00  0.00    +0.000 NA
ATOM     15  C   UNL     1      -4.901  13.546  22.146  0.00  0.00    +0.000 C 
ATOM     16  C   UNL     1      -4.225  13.217  20.809  0.00  0.00    +0.000 C 
ATOM     17  C   UNL     1      -2.716  12.989  20.984  0.00  0.00    +0.000 C 
ATOM     18  C   UNL     1      -2.443  12.025  22.149  0.00  0.00    +0.000 C 
ATOM     19  C   UNL     1      -3.153  12.469  23.425  0.00  0.00    +0.000 C 
ENDBRANCH   1  17
BRANCH   6  20
ATOM     20  C   UNL     1       0.840   9.506  18.845  0.00  0.00    +0.000 A 
ATOM     21  C   UNL     1       1.614   8.927  17.834  0.00  0.00    +0.000 A 
ATOM     22  C   UNL     1       2.434   7.842  18.134  0.00  0.00    +0.000 A 
ATOM     23  C   UNL     1       2.466   7.349  19.437  0.00  0.00    +0.000 A 
ATOM     24  F   UNL     1       3.242   6.294  19.720  0.00  0.00    +0.000 F 
ATOM     25  C   UNL     1       1.703   7.919  20.446  0.00  0.00    +0.000 A 
ATOM     26  C   UNL     1       0.875   8.993  20.151  0.00  0.00    +0.000 A 
ENDBRANCH   6  20
TORSDOF 2
ENDMDL
MODEL 5
REMARK VINA RESULT:      -6.8      3.533      6.818
REMARK  Name = 
REMARK  3 active torsions:
REMARK  status: ('A' for Active; 'I' for Inactive)
REMARK    1  A    between atoms: C_1  and  N_2
REMARK    2  A    between atoms: C_5  and  N_6
REMARK    3  A    between atoms: C_11  and  C_12
REMARK                            x       y       z     vdW  Elec       q    Type
REMARK                         _______ _______ _______ _____ _____    ______ ____
ROOT
ATOM      1  N   UNL     1      -0.393  12.734  19.835  0.00  0.00    +0.000 N 
ATOM      2  C   UNL     1       0.044  12.433  21.132  0.00  0.00    +0.000 C 
ATOM      3  O   UNL     1       0.665  13.247  21.841  0.00  0.00    +0.000 OA
ATOM      4  C   UNL     1      -0.315  11.064  21.686  0.00  0.00    +0.000 C 
ATOM      5  N   UNL     1       0.581  10.073  21.106  0.00  0.00    +0.000 NA
ATOM      6  C   UNL     1       0.470   9.809  19.848  0.00  0.00    +0.000 C 
ATOM      7  C   UNL     1      -0.568  10.387  18.939  0.00  0.00    +0.000 A 
ATOM      8  C   UNL     1      -1.124   9.500  17.983  0.00  0.00    +0.000 A 
ATOM      9  C   UNL     1      -2.047   9.932  17.041  0.00  0.00    +0.000 A 
ATOM     10  C   UNL     1      -2.506  11.232  17.113  0.00  0.00    +0.000 A 
ATOM     11  C   UNL     1      -2.017  12.090  18.103  0.00  0.00    +0.000 A 
ATOM     12  C   UNL     1      -0.978  11.731  18.978  0.00  0.00    +0.000 A 
ENDROOT
BRANCH   1  17
ATOM     13  C   UNL     1       1.501  18.085  18.858  0.00  0.00    +0.000 C 
ATOM     14  N   UNL     1       1.082  16.771  19.339  0.00  0.00    +0.000 NA
ATOM     15  C   UNL     1      -0.361  16.562  19.164  0.00  0.00    +0.000 C 
ATOM     16  C   UNL     1      -0.810  15.235  19.787  0.00  0.00    +0.000 C 
ATOM     17  C   UNL     1       0.026  14.057  19.264  0.00  0.00    +0.000 C 
ATOM     18  C   UNL     1       1.526  14.379  19.338  0.00  0.00    +0.000 C 
ATOM     19  C   UNL     1       1.849  15.713  18.669  0.00  0.00    +0.000 C 
ENDBRANCH   1  17
BRANCH   6  20
ATOM     20  C   UNL     1       1.440   8.828  19.276  0.00  0.00    +0.000 A 
ATOM     21  C   UNL     1       1.748   7.665  19.991  0.00  0.00    +0.000 A 
ATOM     22  C   UNL     1       2.654   6.751  19.458  0.00  0.00    +0.000 A 
ATOM     23  C   UNL     1       3.241   7.013  18.222  0.00  0.00    +0.000 A 
ATOM     24  F   UNL     1       4.126   6.142  17.718  0.00  0.00    +0.000 F 
ATOM     25  C   UNL     1       2.940   8.164  17.506  0.00  0.00    +0.000 A 
ATOM     26  C   UNL     1       2.047   9.083  18.037  0.00  0.00    +0.000 A 
ENDBRANCH   6  20
TORSDOF 2
ENDMDL
MODEL 6
REMARK VINA RESULT:      -6.7      3.094      7.034
REMARK  Name = 
REMARK  3 active torsions:
REMARK  status: ('A' for Active; 'I' for Inactive)
REMARK    1  A    between atoms: C_1  and  N_2
REMARK    2  A    between atoms: C_5  and  N_6
REMARK    3  A    between atoms: C_11  and  C_12
REMARK                            x       y       z     vdW  Elec       q    Type
REMARK                         _______ _______ _______ _____ _____    ______ ____
ROOT
ATOM      1  N   UNL     1      -1.149  13.262  19.805  0.00  0.00    +0.000 N 
ATOM      2  C   UNL     1      -2.182  12.472  19.285  0.00  0.00    +0.000 C 
ATOM      3  O   UNL     1      -3.295  12.369  19.834  0.00  0.00    +0.000 OA
ATOM      4  C   UNL     1      -1.919  11.762  17.966  0.00  0.00    +0.000 C 
ATOM      5  N   UNL     1      -1.090  10.592  18.221  0.00  0.00    +0.000 NA
ATOM      6  C   UNL     1       0.132  10.775  18.591  0.00  0.00    +0.000 C 
ATOM      7  C   UNL     1       0.801  12.107  18.707  0.00  0.00    +0.000 A 
ATOM      8  C   UNL     1       2.150  12.168  18.273  0.00  0.00    +0.000 A 
ATOM      9  C   UNL     1       2.900  13.329  18.391  0.00  0.00    +0.000 A 
ATOM     10  C   UNL     1       2.278  14.474  18.844  0.00  0.00    +0.000 A 
ATOM     11  C   UNL     1       0.927  14.439  19.203  0.00  0.00    +0.000 A 
ATOM     12  C   UNL     1       0.178  13.251  19.235  0.00  0.00    +0.000 A 
ENDROOT
BRANCH   1  17
ATOM     13  C   UNL     1      -3.162  15.081  24.885  0.00  0.00    +0.000 C 
ATOM     14  N   UNL     1      -2.858  14.488  23.586  0.00  0.00    +0.000 NA
ATOM     15  C   UNL     1      -2.777  15.505  22.530  0.00  0.00    +0.000 C 
ATOM     16  C   UNL     1      -2.585  14.861  21.151  0.00  0.00    +0.000 C 
ATOM     17  C   UNL     1      -1.384  13.902  21.142  0.00  0.00    +0.000 C 
ATOM     18  C   UNL     1      -1.440  12.949  22.345  0.00  0.00    +0.000 C 
ATOM     19  C   UNL     1      -1.615  13.709  23.657  0.00  0.00    +0.000 C 
ENDBRANCH   1  17
BRANCH   6  20
ATOM     20  C   UNL     1       0.935   9.553  18.895  0.00  0.00    +0.000 A 
ATOM     21  C   UNL     1       0.999   9.078  20.210  0.00  0.00    +0.000 A 
ATOM     22  C   UNL     1       1.749   7.938  20.492  0.00  0.00    +0.000 A 
ATOM     23  C   UNL     1       2.426   7.293  19.460  0.00  0.00    +0.000 A 
ATOM     24  F   UNL     1       3.161   6.207  19.737  0.00  0.00    +0.000 F 
ATOM     25  C   UNL     1       2.366   7.756  18.153  0.00  0.00    +0.000 A 
ATOM     26  C   UNL     1       1.630   8.897  17.867  0.00  0.00    +0.000 A 
ENDBRANCH   6  20
TORSDOF 2
ENDMDL
MODEL 7
REMARK VINA RESULT:      -6.6      2.999      7.022
REMARK  Name = 
REMARK  3 active torsions:
REMARK  status: ('A' for Active; 'I' for Inactive)
REMARK    1  A    between atoms: C_1  and  N_2
REMARK    2  A    between atoms: C_5  and  N_6
REMARK    3  A    between atoms: C_11  and  C_12
REMARK                            x       y       z     vdW  Elec       q    Type
REMARK                         _______ _______ _______ _____ _____    ______ ____
ROOT
ATOM      1  N   UNL     1      -2.610  12.433  19.253  0.00  0.00    +0.000 N 
ATOM      2  C   UNL     1      -3.163  11.583  18.286  0.00  0.00    +0.000 C 
ATOM      3  O   UNL     1      -4.321  11.133  18.366  0.00  0.00    +0.000 OA
ATOM      4  C   UNL     1      -2.304  11.256  17.075  0.00  0.00    +0.000 C 
ATOM      5  N   UNL     1      -1.317  10.255  17.457  0.00  0.00    +0.000 NA
ATOM      6  C   UNL     1      -0.379  10.599  18.273  0.00  0.00    +0.000 C 
ATOM      7  C   UNL     1      -0.173  11.980  18.807  0.00  0.00    +0.000 A 
ATOM      8  C   UNL     1       1.173  12.413  18.915  0.00  0.00    +0.000 A 
ATOM      9  C   UNL     1       1.498  13.648  19.459  0.00  0.00    +0.000 A 
ATOM     10  C   UNL     1       0.476  14.510  19.800  0.00  0.00    +0.000 A 
ATOM     11  C   UNL     1      -0.855  14.117  19.626  0.00  0.00    +0.000 A 
ATOM     12  C   UNL     1      -1.221  12.823  19.218  0.00  0.00    +0.000 A 
ENDROOT
BRANCH   1  17
ATOM     13  C   UNL     1      -4.897  14.359  24.175  0.00  0.00    +0.000 C 
ATOM     14  N   UNL     1      -4.154  14.052  22.956  0.00  0.00    +0.000 NA
ATOM     15  C   UNL     1      -3.539  12.719  23.016  0.00  0.00    +0.000 C 
ATOM     16  C   UNL     1      -2.658  12.459  21.788  0.00  0.00    +0.000 C 
ATOM     17  C   UNL     1      -3.431  12.695  20.482  0.00  0.00    +0.000 C 
ATOM     18  C   UNL     1      -4.172  14.040  20.524  0.00  0.00    +0.000 C 
ATOM     19  C   UNL     1      -5.027  14.172  21.782  0.00  0.00    +0.000 C 
ENDBRANCH   1  17
BRANCH   6  20
ATOM     20  C   UNL     1       0.582   9.533  18.683  0.00  0.00    +0.000 A 
ATOM     21  C   UNL     1       1.409   8.941  17.721  0.00  0.00    +0.000 A 
ATOM     22  C   UNL     1       2.305   7.946  18.105  0.00  0.00    +0.000 A 
ATOM     23  C   UNL     1       2.360   7.554  19.441  0.00  0.00    +0.000 A 
ATOM     24  F   UNL     1       3.210   6.584  19.805  0.00  0.00    +0.000 F 
ATOM     25  C   UNL     1       1.544   8.137  20.401  0.00  0.00    +0.000 A 
ATOM     26  C   UNL     1       0.642   9.120  20.023  0.00  0.00    +0.000 A 
ENDBRANCH   6  20
TORSDOF 2
ENDMDL
MODEL 8
REMARK VINA RESULT:      -6.5      0.529      1.101
REMARK  Name = 
REMARK  3 active torsions:
REMARK  status: ('A' for Active; 'I' for Inactive)
REMARK    1  A    between atoms: C_1  and  N_2
REMARK    2  A    between atoms: C_5  and  N_6
REMARK    3  A    between atoms: C_11  and  C_12
REMARK                            x       y       z     vdW  Elec       q    Type
REMARK                         _______ _______ _______ _____ _____    ______ ____
ROOT
ATOM      1  N   UNL     1      -0.088  10.832  18.599  0.00  0.00    +0.000 N 
ATOM      2  C   UNL     1       0.670  11.934  19.017  0.00  0.00    +0.000 C 
ATOM      3  O   UNL     1       1.840  11.831  19.431  0.00  0.00    +0.000 OA
ATOM      4  C   UNL     1       0.026  13.306  18.898  0.00  0.00    +0.000 C 
ATOM      5  N   UNL     1      -0.914  13.479  19.997  0.00  0.00    +0.000 NA
ATOM      6  C   UNL     1      -1.986  12.761  20.005  0.00  0.00    +0.000 C 
ATOM      7  C   UNL     1      -2.387  11.807  18.925  0.00  0.00    +0.000 A 
ATOM      8  C   UNL     1      -3.766  11.776  18.601  0.00  0.00    +0.000 A 
ATOM      9  C   UNL     1      -4.273  10.886  17.663  0.00  0.00    +0.000 A 
ATOM     10  C   UNL     1      -3.389  10.093  16.960  0.00  0.00    +0.000 A 
ATOM     11  C   UNL     1      -2.018  10.175  17.223  0.00  0.00    +0.000 A 
ATOM     12  C   UNL     1      -1.486  10.954  18.263  0.00  0.00    +0.000 A 
ENDROOT
BRANCH   1  17
ATOM     13  C   UNL     1       3.328   6.285  19.507  0.00  0.00    +0.000 C 
ATOM     14  N   UNL     1       2.663   7.571  19.322  0.00  0.00    +0.000 NA
ATOM     15  C   UNL     1       2.169   7.735  17.948  0.00  0.00    +0.000 C 
ATOM     16  C   UNL     1       1.586   9.137  17.730  0.00  0.00    +0.000 C 
ATOM     17  C   UNL     1       0.522   9.473  18.786  0.00  0.00    +0.000 C 
ATOM     18  C   UNL     1       1.036   9.153  20.198  0.00  0.00    +0.000 C 
ATOM     19  C   UNL     1       1.572   7.727  20.292  0.00  0.00    +0.000 C 
ENDBRANCH   1  17
BRANCH   6  20
ATOM     20  C   UNL     1      -2.900  12.927  21.174  0.00  0.00    +0.000 A 
ATOM     21  C   UNL     1      -2.609  12.272  22.376  0.00  0.00    +0.000 A 
ATOM     22  C   UNL     1      -3.463  12.427  23.466  0.00  0.00    +0.000 A 
ATOM     23  C   UNL     1      -4.595  13.229  23.339  0.00  0.00    +0.000 A 
ATOM     24  F   UNL     1      -5.424  13.363  24.383  0.00  0.00    +0.000 F 
ATOM     25  C   UNL     1      -4.889  13.884  22.151  0.00  0.00    +0.000 A 
ATOM     26  C   UNL     1      -4.049  13.725  21.058  0.00  0.00    +0.000 A 
ENDBRANCH   6  20
TORSDOF 2
ENDMDL
MODEL 9
REMARK VINA RESULT:      -6.5      3.272      7.108
REMARK  Name = 
REMARK  3 active torsions:
REMARK  status: ('A' for Active; 'I' for Inactive)
REMARK    1  A    between atoms: C_1  and  N_2
REMARK    2  A    between atoms: C_5  and  N_6
REMARK    3  A    between atoms: C_11  and  C_12
REMARK                            x       y       z     vdW  Elec       q    Type
REMARK                         _______ _______ _______ _____ _____    ______ ____
ROOT
ATOM      1  N   UNL     1      -1.308  11.731  19.760  0.00  0.00    +0.000 N 
ATOM      2  C   UNL     1      -0.536  12.324  18.752  0.00  0.00    +0.000 C 
ATOM      3  O   UNL     1      -1.034  12.821  17.725  0.00  0.00    +0.000 OA
ATOM      4  C   UNL     1       0.966  12.393  18.977  0.00  0.00    +0.000 C 
ATOM      5  N   UNL     1       1.541  11.082  18.710  0.00  0.00    +0.000 NA
ATOM      6  C   UNL     1       1.267  10.116  19.519  0.00  0.00    +0.000 C 
ATOM      7  C   UNL     1       0.460  10.250  20.771  0.00  0.00    +0.000 A 
ATOM      8  C   UNL     1       0.915   9.507  21.890  0.00  0.00    +0.000 A 
ATOM      9  C   UNL     1       0.215   9.496  23.088  0.00  0.00    +0.000 A 
ATOM     10  C   UNL     1      -0.890  10.313  23.217  0.00  0.00    +0.000 A 
ATOM     11  C   UNL     1      -1.299  11.106  22.140  0.00  0.00    +0.000 A 
ATOM     12  C   UNL     1      -0.705  11.032  20.869  0.00  0.00    +0.000 A 
ENDROOT
BRANCH   1  17
ATOM     13  C   UNL     1      -6.756  12.175  17.946  0.00  0.00    +0.000 C 
ATOM     14  N   UNL     1      -5.328  12.239  18.242  0.00  0.00    +0.000 NA
ATOM     15  C   UNL     1      -5.078  12.668  19.624  0.00  0.00    +0.000 C 
ATOM     16  C   UNL     1      -3.578  12.855  19.886  0.00  0.00    +0.000 C 
ATOM     17  C   UNL     1      -2.781  11.598  19.503  0.00  0.00    +0.000 C 
ATOM     18  C   UNL     1      -3.180  11.106  18.104  0.00  0.00    +0.000 C 
ATOM     19  C   UNL     1      -4.692  10.942  17.974  0.00  0.00    +0.000 C 
ENDBRANCH   1  17
BRANCH   6  20
ATOM     20  C   UNL     1       1.830   8.774  19.184  0.00  0.00    +0.000 A 
ATOM     21  C   UNL     1       2.411   8.564  17.928  0.00  0.00    +0.000 A 
ATOM     22  C   UNL     1       2.935   7.311  17.615  0.00  0.00    +0.000 A 
ATOM     23  C   UNL     1       2.869   6.288  18.558  0.00  0.00    +0.000 A 
ATOM     24  F   UNL     1       3.358   5.079  18.249  0.00  0.00    +0.000 F 
ATOM     25  C   UNL     1       2.296   6.489  19.806  0.00  0.00    +0.000 A 
ATOM     26  C   UNL     1       1.762   7.731  20.119  0.00  0.00    +0.000 A 
ENDBRANCH   6  20
TORSDOF 2
ENDMDL
