MODEL 1
REMARK VINA RESULT:      -6.4      0.000      0.000
REMARK  Name = 
REMARK  7 active torsions:
REMARK  status: ('A' for Active; 'I' for Inactive)
REMARK    1  A    between atoms: C_1  and  C_2
REMARK    2  A    between atoms: C_2  and  O_3
REMARK    3  A    between atoms: O_3  and  C_4
REMARK    4  A    between atoms: C_4  and  C_6
REMARK    5  A    between atoms: C_7  and  C_8
REMARK    6  A    between atoms: C_8  and  S_9
REMARK    7  A    between atoms: S_9  and  C_10
REMARK                            x       y       z     vdW  Elec       q    Type
REMARK                         _______ _______ _______ _____ _____    ______ ____
ROOT
ATOM      1  S   UNL     1       2.588   6.883  19.257  0.00  0.00    +0.000 S 
ENDROOT
BRANCH   1   2
ATOM      2  C   UNL     1       2.072   5.228  18.988  0.00  0.00    +0.000 A 
ATOM      3  N   UNL     1       1.728   4.838  17.791  0.00  0.00    +0.000 NA
ATOM      4  N   UNL     1       1.299   3.496  17.551  0.00  0.00    +0.000 NA
ATOM      5  C   UNL     1       1.254   2.647  18.532  0.00  0.00    +0.000 A 
ATOM      6  C   UNL     1       1.623   3.036  19.843  0.00  0.00    +0.000 A 
ATOM      7  C   UNL     1       1.696   2.417  21.063  0.00  0.00    +0.000 A 
ATOM      8  N   UNL     1       2.128   3.305  22.016  0.00  0.00    +0.000 NA
ATOM      9  C   UNL     1       2.315   4.444  21.378  0.00  0.00    +0.000 A 
ATOM     10  N   UNL     1       2.024   4.326  20.046  0.00  0.00    +0.000 N 
ENDBRANCH   1   2
BRANCH   1  11
ATOM     11  C   UNL     1       3.412   7.230  17.675  0.00  0.00    +0.000 C 
BRANCH  11  13
ATOM     12  C   UNL     1       5.823   6.984  17.023  0.00  0.00    +0.000 C 
ATOM     13  C   UNL     1       4.731   6.523  17.655  0.00  0.00    +0.000 C 
BRANCH  12  14
ATOM     14  C   UNL     1       7.103   6.255  17.138  0.00  0.00    +0.000 C 
ATOM     15  O   UNL     1       7.774   6.172  18.153  0.00  0.00    +0.000 OA
BRANCH  14  16
ATOM     16  O   UNL     1       7.434   5.810  15.902  0.00  0.00    +0.000 OA
BRANCH  16  18
ATOM     17  C   UNL     1       6.178   4.446  14.395  0.00  0.00    +0.000 C 
ATOM     18  C   UNL     1       7.065   4.451  15.629  0.00  0.00    +0.000 C 
ENDBRANCH  16  18
ENDBRANCH  14  16
ENDBRANCH  12  14
ENDBRANCH  11  13
ENDBRANCH   1  11
TORSDOF 6
ENDMDL
MODEL 2
REMARK VINA RESULT:      -6.4      1.551      2.229
REMARK  Name = 
REMARK  7 active torsions:
REMARK  status: ('A' for Active; 'I' for Inactive)
REMARK    1  A    between atoms: C_1  and  C_2
REMARK    2  A    between atoms: C_2  and  O_3
REMARK    3  A    between atoms: O_3  and  C_4
REMARK    4  A    between atoms: C_4  and  C_6
REMARK    5  A    between atoms: C_7  and  C_8
REMARK    6  A    between atoms: C_8  and  S_9
REMARK    7  A    between atoms: S_9  and  C_10
REMARK                            x       y       z     vdW  Elec       q    Type
REMARK                         _______ _______ _______ _____ _____    ______ ____
ROOT
ATOM      1  S   UNL     1       2.544   6.218  18.407  0.00  0.00    +0.000 S 
ENDROOT
BRANCH   1   2
ATOM      2  C   UNL     1       2.248   4.498  18.581  0.00  0.00    +0.000 A 
ATOM      3  N   UNL     1       2.101   3.750  17.522  0.00  0.00    +0.000 NA
ATOM      4  N   UNL     1       1.853   2.348  17.641  0.00  0.00    +0.000 NA
ATOM      5  C   UNL     1       1.777   1.803  18.817  0.00  0.00    +0.000 A 
ATOM      6  C   UNL     1       1.934   2.585  19.988  0.00  0.00    +0.000 A 
ATOM      7  C   UNL     1       1.919   2.341  21.337  0.00  0.00    +0.000 A 
ATOM      8  N   UNL     1       2.130   3.509  22.028  0.00  0.00    +0.000 NA
ATOM      9  C   UNL     1       2.272   4.442  21.108  0.00  0.00    +0.000 A 
ATOM     10  N   UNL     1       2.165   3.924  19.846  0.00  0.00    +0.000 N 
ENDBRANCH   1   2
BRANCH   1  11
ATOM     11  C   UNL     1       3.953   6.191  17.260  0.00  0.00    +0.000 C 
BRANCH  11  13
ATOM     12  C   UNL     1       6.434   6.263  17.635  0.00  0.00    +0.000 C 
ATOM     13  C   UNL     1       5.202   5.912  18.037  0.00  0.00    +0.000 C 
BRANCH  12  14
ATOM     14  C   UNL     1       7.594   6.021  18.519  0.00  0.00    +0.000 C 
ATOM     15  O   UNL     1       7.823   4.977  19.104  0.00  0.00    +0.000 OA
BRANCH  14  16
ATOM     16  O   UNL     1       8.269   7.190  18.638  0.00  0.00    +0.000 OA
BRANCH  16  18
ATOM     17  C   UNL     1       8.477   9.525  18.175  0.00  0.00    +0.000 C 
ATOM     18  C   UNL     1       7.892   8.206  17.698  0.00  0.00    +0.000 C 
ENDBRANCH  16  18
ENDBRANCH  14  16
ENDBRANCH  12  14
ENDBRANCH  11  13
ENDBRANCH   1  11
TORSDOF 6
ENDMDL
MODEL 3
REMARK VINA RESULT:      -6.3      3.373      4.881
REMARK  Name = 
REMARK  7 active torsions:
REMARK  status: ('A' for Active; 'I' for Inactive)
REMARK    1  A    between atoms: C_1  and  C_2
REMARK    2  A    between atoms: C_2  and  O_3
REMARK    3  A    between atoms: O_3  and  C_4
REMARK    4  A    between atoms: C_4  and  C_6
REMARK    5  A    between atoms: C_7  and  C_8
REMARK    6  A    between atoms: C_8  and  S_9
REMARK    7  A    between atoms: S_9  and  C_10
REMARK                            x       y       z     vdW  Elec       q    Type
REMARK                         _______ _______ _______ _____ _____    ______ ____
ROOT
ATOM      1  S   UNL     1       5.839   3.932  16.410  0.00  0.00    +0.000 S 
ENDROOT
BRANCH   1   2
ATOM      2  C   UNL     1       4.506   4.831  17.112  0.00  0.00    +0.000 A 
ATOM      3  N   UNL     1       4.608   6.119  17.289  0.00  0.00    +0.000 NA
ATOM      4  N   UNL     1       3.537   6.870  17.864  0.00  0.00    +0.000 NA
ATOM      5  C   UNL     1       2.441   6.268  18.212  0.00  0.00    +0.000 A 
ATOM      6  C   UNL     1       2.294   4.871  18.031  0.00  0.00    +0.000 A 
ATOM      7  C   UNL     1       1.308   3.951  18.274  0.00  0.00    +0.000 A 
ATOM      8  N   UNL     1       1.726   2.700  17.892  0.00  0.00    +0.000 NA
ATOM      9  C   UNL     1       2.948   2.865  17.424  0.00  0.00    +0.000 A 
ATOM     10  N   UNL     1       3.336   4.176  17.484  0.00  0.00    +0.000 N 
ENDBRANCH   1   2
BRANCH   1  11
ATOM     11  C   UNL     1       6.198   4.962  14.957  0.00  0.00    +0.000 C 
BRANCH  11  13
ATOM     12  C   UNL     1       6.172   3.432  12.968  0.00  0.00    +0.000 C 
ATOM     13  C   UNL     1       5.565   4.335  13.754  0.00  0.00    +0.000 C 
BRANCH  12  14
ATOM     14  C   UNL     1       5.427   2.806  11.855  0.00  0.00    +0.000 C 
ATOM     15  O   UNL     1       5.724   1.753  11.317  0.00  0.00    +0.000 OA
BRANCH  14  16
ATOM     16  O   UNL     1       4.447   3.665  11.483  0.00  0.00    +0.000 OA
BRANCH  16  18
ATOM     17  C   UNL     1       2.967   4.123   9.665  0.00  0.00    +0.000 C 
ATOM     18  C   UNL     1       3.404   3.086  10.686  0.00  0.00    +0.000 C 
ENDBRANCH  16  18
ENDBRANCH  14  16
ENDBRANCH  12  14
ENDBRANCH  11  13
ENDBRANCH   1  11
TORSDOF 6
ENDMDL
MODEL 4
REMARK VINA RESULT:      -6.3      2.067      2.637
REMARK  Name = 
REMARK  7 active torsions:
REMARK  status: ('A' for Active; 'I' for Inactive)
REMARK    1  A    between atoms: C_1  and  C_2
REMARK    2  A    between atoms: C_2  and  O_3
REMARK    3  A    between atoms: O_3  and  C_4
REMARK    4  A    between atoms: C_4  and  C_6
REMARK    5  A    between atoms: C_7  and  C_8
REMARK    6  A    between atoms: C_8  and  S_9
REMARK    7  A    between atoms: S_9  and  C_10
REMARK                            x       y       z     vdW  Elec       q    Type
REMARK                         _______ _______ _______ _____ _____    ______ ____
ROOT
ATOM      1  S   UNL     1       5.484   5.038  19.129  0.00  0.00    +0.000 S 
ENDROOT
BRANCH   1   2
ATOM      2  C   UNL     1       4.154   3.925  18.862  0.00  0.00    +0.000 A 
ATOM      3  N   UNL     1       4.307   2.903  18.066  0.00  0.00    +0.000 NA
ATOM      4  N   UNL     1       3.236   1.988  17.829  0.00  0.00    +0.000 NA
ATOM      5  C   UNL     1       2.092   2.167  18.418  0.00  0.00    +0.000 A 
ATOM      6  C   UNL     1       1.892   3.264  19.292  0.00  0.00    +0.000 A 
ATOM      7  C   UNL     1       0.853   3.731  20.053  0.00  0.00    +0.000 A 
ATOM      8  N   UNL     1       1.233   4.872  20.718  0.00  0.00    +0.000 NA
ATOM      9  C   UNL     1       2.484   5.087  20.362  0.00  0.00    +0.000 A 
ATOM     10  N   UNL     1       2.932   4.127  19.495  0.00  0.00    +0.000 N 
ENDBRANCH   1   2
BRANCH   1  11
ATOM     11  C   UNL     1       5.296   6.122  17.683  0.00  0.00    +0.000 C 
BRANCH  11  13
ATOM     12  C   UNL     1       5.640   5.255  15.353  0.00  0.00    +0.000 C 
ATOM     13  C   UNL     1       6.126   5.577  16.562  0.00  0.00    +0.000 C 
BRANCH  12  14
ATOM     14  C   UNL     1       6.559   4.809  14.285  0.00  0.00    +0.000 C 
ATOM     15  O   UNL     1       7.655   5.292  14.055  0.00  0.00    +0.000 OA
BRANCH  14  16
ATOM     16  O   UNL     1       5.915   3.863  13.559  0.00  0.00    +0.000 OA
BRANCH  16  18
ATOM     17  C   UNL     1       5.785   2.369  11.698  0.00  0.00    +0.000 C 
ATOM     18  C   UNL     1       6.500   3.577  12.280  0.00  0.00    +0.000 C 
ENDBRANCH  16  18
ENDBRANCH  14  16
ENDBRANCH  12  14
ENDBRANCH  11  13
ENDBRANCH   1  11
TORSDOF 6
ENDMDL
MODEL 5
REMARK VINA RESULT:      -6.1      2.453      3.491
REMARK  Name = 
REMARK  7 active torsions:
REMARK  status: ('A' for Active; 'I' for Inactive)
REMARK    1  A    between atoms: C_1  and  C_2
REMARK    2  A    between atoms: C_2  and  O_3
REMARK    3  A    between atoms: O_3  and  C_4
REMARK    4  A    between atoms: C_4  and  C_6
REMARK    5  A    between atoms: C_7  and  C_8
REMARK    6  A    between atoms: C_8  and  S_9
REMARK    7  A    between atoms: S_9  and  C_10
REMARK                            x       y       z     vdW  Elec       q    Type
REMARK                         _______ _______ _______ _____ _____    ______ ____
ROOT
ATOM      1  S   UNL     1       4.744   3.818  16.538  0.00  0.00    +0.000 S 
ENDROOT
BRANCH   1   2
ATOM      2  C   UNL     1       3.732   4.471  17.814  0.00  0.00    +0.000 A 
ATOM      3  N   UNL     1       3.983   5.653  18.305  0.00  0.00    +0.000 NA
ATOM      4  N   UNL     1       3.176   6.202  19.349  0.00  0.00    +0.000 NA
ATOM      5  C   UNL     1       2.172   5.521  19.815  0.00  0.00    +0.000 A 
ATOM      6  C   UNL     1       1.871   4.236  19.302  0.00  0.00    +0.000 A 
ATOM      7  C   UNL     1       0.918   3.282  19.551  0.00  0.00    +0.000 A 
ATOM      8  N   UNL     1       1.114   2.197  18.733  0.00  0.00    +0.000 NA
ATOM      9  C   UNL     1       2.169   2.494  17.999  0.00  0.00    +0.000 A 
ATOM     10  N   UNL     1       2.662   3.733  18.309  0.00  0.00    +0.000 N 
ENDBRANCH   1   2
BRANCH   1  11
ATOM     11  C   UNL     1       6.334   4.594  16.954  0.00  0.00    +0.000 C 
BRANCH  11  13
ATOM     12  C   UNL     1       6.625   4.596  14.461  0.00  0.00    +0.000 C 
ATOM     13  C   UNL     1       7.120   4.786  15.694  0.00  0.00    +0.000 C 
BRANCH  12  14
ATOM     14  C   UNL     1       7.458   4.900  13.278  0.00  0.00    +0.000 C 
ATOM     15  O   UNL     1       8.310   5.770  13.225  0.00  0.00    +0.000 OA
BRANCH  14  16
ATOM     16  O   UNL     1       7.020   4.121  12.259  0.00  0.00    +0.000 OA
BRANCH  16  18
ATOM     17  C   UNL     1       5.714   2.242  11.572  0.00  0.00    +0.000 C 
ATOM     18  C   UNL     1       5.782   3.441  12.504  0.00  0.00    +0.000 C 
ENDBRANCH  16  18
ENDBRANCH  14  16
ENDBRANCH  12  14
ENDBRANCH  11  13
ENDBRANCH   1  11
TORSDOF 6
ENDMDL
MODEL 6
REMARK VINA RESULT:      -6.0      3.546      5.835
REMARK  Name = 
REMARK  7 active torsions:
REMARK  status: ('A' for Active; 'I' for Inactive)
REMARK    1  A    between atoms: C_1  and  C_2
REMARK    2  A    between atoms: C_2  and  O_3
REMARK    3  A    between atoms: O_3  and  C_4
REMARK    4  A    between atoms: C_4  and  C_6
REMARK    5  A    between atoms: C_7  and  C_8
REMARK    6  A    between atoms: C_8  and  S_9
REMARK    7  A    between atoms: S_9  and  C_10
REMARK                            x       y       z     vdW  Elec       q    Type
REMARK                         _______ _______ _______ _____ _____    ______ ____
ROOT
ATOM      1  S   UNL     1       3.470   6.838  17.905  0.00  0.00    +0.000 S 
ENDROOT
BRANCH   1   2
ATOM      2  C   UNL     1       4.999   5.978  17.937  0.00  0.00    +0.000 A 
ATOM      3  N   UNL     1       5.536   5.644  19.078  0.00  0.00    +0.000 NA
ATOM      4  N   UNL     1       6.784   4.949  19.128  0.00  0.00    +0.000 NA
ATOM      5  C   UNL     1       7.393   4.637  18.024  0.00  0.00    +0.000 A 
ATOM      6  C   UNL     1       6.837   4.982  16.768  0.00  0.00    +0.000 A 
ATOM      7  C   UNL     1       7.198   4.809  15.458  0.00  0.00    +0.000 A 
ATOM      8  N   UNL     1       6.253   5.366  14.632  0.00  0.00    +0.000 NA
ATOM      9  C   UNL     1       5.334   5.866  15.435  0.00  0.00    +0.000 A 
ATOM     10  N   UNL     1       5.646   5.651  16.750  0.00  0.00    +0.000 N 
ENDBRANCH   1   2
BRANCH   1  11
ATOM     11  C   UNL     1       2.803   6.378  19.532  0.00  0.00    +0.000 C 
BRANCH  11  13
ATOM     12  C   UNL     1       1.784   4.430  18.320  0.00  0.00    +0.000 C 
ATOM     13  C   UNL     1       2.246   4.990  19.449  0.00  0.00    +0.000 C 
BRANCH  12  14
ATOM     14  C   UNL     1       1.338   3.021  18.326  0.00  0.00    +0.000 C 
ATOM     15  O   UNL     1       0.532   2.543  19.107  0.00  0.00    +0.000 OA
BRANCH  14  16
ATOM     16  O   UNL     1       2.065   2.357  17.395  0.00  0.00    +0.000 OA
BRANCH  16  18
ATOM     17  C   UNL     1       3.770   1.269  18.667  0.00  0.00    +0.000 C 
ATOM     18  C   UNL     1       3.480   2.342  17.630  0.00  0.00    +0.000 C 
ENDBRANCH  16  18
ENDBRANCH  14  16
ENDBRANCH  12  14
ENDBRANCH  11  13
ENDBRANCH   1  11
TORSDOF 6
ENDMDL
MODEL 7
REMARK VINA RESULT:      -6.0      2.197      3.197
REMARK  Name = 
REMARK  7 active torsions:
REMARK  status: ('A' for Active; 'I' for Inactive)
REMARK    1  A    between atoms: C_1  and  C_2
REMARK    2  A    between atoms: C_2  and  O_3
REMARK    3  A    between atoms: O_3  and  C_4
REMARK    4  A    between atoms: C_4  and  C_6
REMARK    5  A    between atoms: C_7  and  C_8
REMARK    6  A    between atoms: C_8  and  S_9
REMARK    7  A    between atoms: S_9  and  C_10
REMARK                            x       y       z     vdW  Elec       q    Type
REMARK                         _______ _______ _______ _____ _____    ______ ____
ROOT
ATOM      1  S   UNL     1       5.386   5.845  18.756  0.00  0.00    +0.000 S 
ENDROOT
BRANCH   1   2
ATOM      2  C   UNL     1       4.612   4.297  19.045  0.00  0.00    +0.000 A 
ATOM      3  N   UNL     1       5.238   3.369  19.714  0.00  0.00    +0.000 NA
ATOM      4  N   UNL     1       4.629   2.099  19.955  0.00  0.00    +0.000 NA
ATOM      5  C   UNL     1       3.432   1.862  19.510  0.00  0.00    +0.000 A 
ATOM      6  C   UNL     1       2.723   2.849  18.782  0.00  0.00    +0.000 A 
ATOM      7  C   UNL     1       1.488   2.931  18.194  0.00  0.00    +0.000 A 
ATOM      8  N   UNL     1       1.327   4.162  17.607  0.00  0.00    +0.000 NA
ATOM      9  C   UNL     1       2.450   4.813  17.842  0.00  0.00    +0.000 A 
ATOM     10  N   UNL     1       3.331   4.052  18.561  0.00  0.00    +0.000 N 
ENDBRANCH   1   2
BRANCH   1  11
ATOM     11  C   UNL     1       7.108   5.310  18.530  0.00  0.00    +0.000 C 
BRANCH  11  13
ATOM     12  C   UNL     1       6.514   5.430  16.094  0.00  0.00    +0.000 C 
ATOM     13  C   UNL     1       7.341   5.038  17.076  0.00  0.00    +0.000 C 
BRANCH  12  14
ATOM     14  C   UNL     1       6.879   5.189  14.683  0.00  0.00    +0.000 C 
ATOM     15  O   UNL     1       7.910   5.565  14.151  0.00  0.00    +0.000 OA
BRANCH  14  16
ATOM     16  O   UNL     1       5.824   4.587  14.084  0.00  0.00    +0.000 OA
BRANCH  16  18
ATOM     17  C   UNL     1       5.750   3.341  12.046  0.00  0.00    +0.000 C 
ATOM     18  C   UNL     1       6.100   3.295  13.524  0.00  0.00    +0.000 C 
ENDBRANCH  16  18
ENDBRANCH  14  16
ENDBRANCH  12  14
ENDBRANCH  11  13
ENDBRANCH   1  11
TORSDOF 6
ENDMDL
MODEL 8
REMARK VINA RESULT:      -6.0      2.338      3.187
REMARK  Name = 
REMARK  7 active torsions:
REMARK  status: ('A' for Active; 'I' for Inactive)
REMARK    1  A    between atoms: C_1  and  C_2
REMARK    2  A    between atoms: C_2  and  O_3
REMARK    3  A    between atoms: O_3  and  C_4
REMARK    4  A    between atoms: C_4  and  C_6
REMARK    5  A    between atoms: C_7  and  C_8
REMARK    6  A    between atoms: C_8  and  S_9
REMARK    7  A    between atoms: S_9  and  C_10
REMARK                            x       y       z     vdW  Elec       q    Type
REMARK                         _______ _______ _______ _____ _____    ______ ____
ROOT
ATOM      1  S   UNL     1       5.638   5.932  18.394  0.00  0.00    +0.000 S 
ENDROOT
BRANCH   1   2
ATOM      2  C   UNL     1       4.802   4.635  19.228  0.00  0.00    +0.000 A 
ATOM      3  N   UNL     1       5.362   3.461  19.337  0.00  0.00    +0.000 NA
ATOM      4  N   UNL     1       4.696   2.388  20.006  0.00  0.00    +0.000 NA
ATOM      5  C   UNL     1       3.519   2.580  20.521  0.00  0.00    +0.000 A 
ATOM      6  C   UNL     1       2.884   3.842  20.424  0.00  0.00    +0.000 A 
ATOM      7  C   UNL     1       1.692   4.372  20.843  0.00  0.00    +0.000 A 
ATOM      8  N   UNL     1       1.599   5.686  20.455  0.00  0.00    +0.000 NA
ATOM      9  C   UNL     1       2.722   5.945  19.814  0.00  0.00    +0.000 A 
ATOM     10  N   UNL     1       3.541   4.849  19.773  0.00  0.00    +0.000 N 
ENDBRANCH   1   2
BRANCH   1  11
ATOM     11  C   UNL     1       4.911   5.777  16.737  0.00  0.00    +0.000 C 
BRANCH  11  13
ATOM     12  C   UNL     1       5.838   4.894  14.578  0.00  0.00    +0.000 C 
ATOM     13  C   UNL     1       6.008   5.525  15.751  0.00  0.00    +0.000 C 
BRANCH  12  14
ATOM     14  C   UNL     1       6.969   4.775  13.634  0.00  0.00    +0.000 C 
ATOM     15  O   UNL     1       7.968   5.475  13.644  0.00  0.00    +0.000 OA
BRANCH  14  16
ATOM     16  O   UNL     1       6.636   3.841  12.711  0.00  0.00    +0.000 OA
BRANCH  16  18
ATOM     17  C   UNL     1       4.683   3.278  11.455  0.00  0.00    +0.000 C 
ATOM     18  C   UNL     1       5.310   3.309  12.839  0.00  0.00    +0.000 C 
ENDBRANCH  16  18
ENDBRANCH  14  16
ENDBRANCH  12  14
ENDBRANCH  11  13
ENDBRANCH   1  11
TORSDOF 6
ENDMDL
MODEL 9
REMARK VINA RESULT:      -6.0      1.897      3.057
REMARK  Name = 
REMARK  7 active torsions:
REMARK  status: ('A' for Active; 'I' for Inactive)
REMARK    1  A    between atoms: C_1  and  C_2
REMARK    2  A    between atoms: C_2  and  O_3
REMARK    3  A    between atoms: O_3  and  C_4
REMARK    4  A    between atoms: C_4  and  C_6
REMARK    5  A    between atoms: C_7  and  C_8
REMARK    6  A    between atoms: C_8  and  S_9
REMARK    7  A    between atoms: S_9  and  C_10
REMARK                            x       y       z     vdW  Elec       q    Type
REMARK                         _______ _______ _______ _____ _____    ______ ____
ROOT
ATOM      1  S   UNL     1       4.515   5.999  17.898  0.00  0.00    +0.000 S 
ENDROOT
BRANCH   1   2
ATOM      2  C   UNL     1       3.217   5.311  18.857  0.00  0.00    +0.000 A 
ATOM      3  N   UNL     1       2.812   5.918  19.939  0.00  0.00    +0.000 NA
ATOM      4  N   UNL     1       1.761   5.372  20.738  0.00  0.00    +0.000 NA
ATOM      5  C   UNL     1       1.192   4.259  20.384  0.00  0.00    +0.000 A 
ATOM      6  C   UNL     1       1.605   3.576  19.214  0.00  0.00    +0.000 A 
ATOM      7  C   UNL     1       1.232   2.425  18.569  0.00  0.00    +0.000 A 
ATOM      8  N   UNL     1       2.001   2.245  17.446  0.00  0.00    +0.000 NA
ATOM      9  C   UNL     1       2.824   3.274  17.413  0.00  0.00    +0.000 A 
ATOM     10  N   UNL     1       2.616   4.117  18.471  0.00  0.00    +0.000 N 
ENDBRANCH   1   2
BRANCH   1  11
ATOM     11  C   UNL     1       5.680   4.605  17.879  0.00  0.00    +0.000 C 
BRANCH  11  13
ATOM     12  C   UNL     1       6.144   4.539  15.414  0.00  0.00    +0.000 C 
ATOM     13  C   UNL     1       6.561   4.729  16.675  0.00  0.00    +0.000 C 
BRANCH  12  14
ATOM     14  C   UNL     1       7.072   4.774  14.287  0.00  0.00    +0.000 C 
ATOM     15  O   UNL     1       7.996   5.569  14.295  0.00  0.00    +0.000 OA
BRANCH  14  16
ATOM     16  O   UNL     1       6.634   4.040  13.236  0.00  0.00    +0.000 OA
BRANCH  16  18
ATOM     17  C   UNL     1       4.887   3.168  11.858  0.00  0.00    +0.000 C 
ATOM     18  C   UNL     1       5.212   3.862  13.171  0.00  0.00    +0.000 C 
ENDBRANCH  16  18
ENDBRANCH  14  16
ENDBRANCH  12  14
ENDBRANCH  11  13
ENDBRANCH   1  11
TORSDOF 6
ENDMDL
