MODEL 1
REMARK VINA RESULT:      -8.1      0.000      0.000
REMARK  Name = 
REMARK  7 active torsions:
REMARK  status: ('A' for Active; 'I' for Inactive)
REMARK    1  A    between atoms: C_1  and  O_2
REMARK    2  A    between atoms: O_2  and  C_3
REMARK    3  A    between atoms: C_6  and  N_7
REMARK    4  A    between atoms: C_8  and  C_10
REMARK    5  A    between atoms: C_10  and  N_11
REMARK    6  A    between atoms: N_15  and  C_16
REMARK    7  A    between atoms: C_16  and  C_17
REMARK                            x       y       z     vdW  Elec       q    Type
REMARK                         _______ _______ _______ _____ _____    ______ ____
ROOT
ATOM      1  N   UNL     1       1.499   5.333  20.080  0.00  0.00    +0.000 NA
ATOM      2  C   UNL     1       1.832   4.067  20.764  0.00  0.00    +0.000 C 
ATOM      3  C   UNL     1       1.064   2.823  20.300  0.00  0.00    +0.000 C 
ATOM      4  C   UNL     1       0.931   2.499  18.805  0.00  0.00    +0.000 C 
ATOM      5  N   UNL     1       1.925   3.005  17.854  0.00  0.00    +0.000 NA
ATOM      6  C   UNL     1       1.762   4.453  17.678  0.00  0.00    +0.000 C 
ATOM      7  C   UNL     1       2.235   5.406  18.788  0.00  0.00    +0.000 C 
ENDROOT
BRANCH   1   8
ATOM      8  C   UNL     1       2.012   6.479  20.896  0.00  0.00    +0.000 C 
BRANCH   8  10
ATOM      9  N   UNL     1       1.494   8.717  20.094  0.00  0.00    +0.000 N 
ATOM     10  C   UNL     1       1.060   7.672  20.896  0.00  0.00    +0.000 C 
ATOM     11  O   UNL     1       0.028   7.636  21.561  0.00  0.00    +0.000 OA
ATOM     12  H   UNL     1       2.284   8.494  19.497  0.00  0.00    +0.000 HD
BRANCH   9  16
ATOM     13  C   UNL     1      -0.428  12.410  19.392  0.00  0.00    +0.000 A 
ATOM     14  C   UNL     1      -0.605  11.357  18.499  0.00  0.00    +0.000 A 
ATOM     15  C   UNL     1      -0.010  10.117  18.737  0.00  0.00    +0.000 A 
ATOM     16  C   UNL     1       0.799   9.919  19.856  0.00  0.00    +0.000 A 
ATOM     17  C   UNL     1       0.953  10.968  20.769  0.00  0.00    +0.000 A 
ATOM     18  C   UNL     1       0.349  12.213  20.533  0.00  0.00    +0.000 A 
BRANCH  13  20
ATOM     19  C   UNL     1      -0.183  14.726  18.988  0.00  0.00    +0.000 C 
ATOM     20  O   UNL     1      -1.023  13.581  19.016  0.00  0.00    +0.000 OA
ENDBRANCH  13  20
ENDBRANCH   9  16
ENDBRANCH   8  10
ENDBRANCH   1   8
BRANCH   5  21
ATOM     21  C   UNL     1       3.274   2.508  18.164  0.00  0.00    +0.000 C 
BRANCH  21  22
ATOM     22  C   UNL     1       4.392   3.495  18.058  0.00  0.00    +0.000 A 
ATOM     23  N   UNL     1       4.700   4.172  16.969  0.00  0.00    +0.000 NA
ATOM     24  C   UNL     1       5.723   5.008  17.321  0.00  0.00    +0.000 A 
ATOM     25  C   UNL     1       6.399   5.964  16.549  0.00  0.00    +0.000 A 
ATOM     26  C   UNL     1       7.431   6.692  17.138  0.00  0.00    +0.000 A 
ATOM     27  C   UNL     1       7.784   6.480  18.475  0.00  0.00    +0.000 A 
ATOM     28  C   UNL     1       7.108   5.538  19.267  0.00  0.00    +0.000 A 
ATOM     29  C   UNL     1       6.076   4.823  18.652  0.00  0.00    +0.000 A 
ATOM     30  N   UNL     1       5.208   3.857  19.102  0.00  0.00    +0.000 N 
ATOM     31  H   UNL     1       5.163   3.478  20.039  0.00  0.00    +0.000 HD
ENDBRANCH  21  22
ENDBRANCH   5  21
TORSDOF 6
ENDMDL
MODEL 2
REMARK VINA RESULT:      -8.1      1.577      1.902
REMARK  Name = 
REMARK  7 active torsions:
REMARK  status: ('A' for Active; 'I' for Inactive)
REMARK    1  A    between atoms: C_1  and  O_2
REMARK    2  A    between atoms: O_2  and  C_3
REMARK    3  A    between atoms: C_6  and  N_7
REMARK    4  A    between atoms: C_8  and  C_10
REMARK    5  A    between atoms: C_10  and  N_11
REMARK    6  A    between atoms: N_15  and  C_16
REMARK    7  A    between atoms: C_16  and  C_17
REMARK                            x       y       z     vdW  Elec       q    Type
REMARK                         _______ _______ _______ _____ _____    ______ ____
ROOT
ATOM      1  N   UNL     1       1.617   5.347  20.086  0.00  0.00    +0.000 NA
ATOM      2  C   UNL     1       1.948   4.067  20.745  0.00  0.00    +0.000 C 
ATOM      3  C   UNL     1       1.118   2.850  20.318  0.00  0.00    +0.000 C 
ATOM      4  C   UNL     1       0.892   2.540  18.832  0.00  0.00    +0.000 C 
ATOM      5  N   UNL     1       1.848   3.021  17.829  0.00  0.00    +0.000 NA
ATOM      6  C   UNL     1       1.720   4.474  17.669  0.00  0.00    +0.000 C 
ATOM      7  C   UNL     1       2.283   5.406  18.756  0.00  0.00    +0.000 C 
ENDROOT
BRANCH   1   8
ATOM      8  C   UNL     1       2.211   6.472  20.877  0.00  0.00    +0.000 C 
BRANCH   8  10
ATOM      9  N   UNL     1       0.733   8.231  21.677  0.00  0.00    +0.000 N 
ATOM     10  C   UNL     1       1.515   7.805  20.614  0.00  0.00    +0.000 C 
ATOM     11  O   UNL     1       1.684   8.388  19.546  0.00  0.00    +0.000 OA
ATOM     12  H   UNL     1       0.852   7.699  22.533  0.00  0.00    +0.000 HD
BRANCH   9  16
ATOM     13  C   UNL     1      -1.523  11.799  21.756  0.00  0.00    +0.000 A 
ATOM     14  C   UNL     1      -1.218  11.147  22.947  0.00  0.00    +0.000 A 
ATOM     15  C   UNL     1      -0.438   9.990  22.943  0.00  0.00    +0.000 A 
ATOM     16  C   UNL     1       0.022   9.446  21.743  0.00  0.00    +0.000 A 
ATOM     17  C   UNL     1      -0.260  10.118  20.549  0.00  0.00    +0.000 A 
ATOM     18  C   UNL     1      -1.038  11.285  20.554  0.00  0.00    +0.000 A 
BRANCH  13  20
ATOM     19  C   UNL     1      -3.549  12.678  22.599  0.00  0.00    +0.000 C 
ATOM     20  O   UNL     1      -2.332  12.891  21.896  0.00  0.00    +0.000 OA
ENDBRANCH  13  20
ENDBRANCH   9  16
ENDBRANCH   8  10
ENDBRANCH   1   8
BRANCH   5  21
ATOM     21  C   UNL     1       3.195   2.481  18.062  0.00  0.00    +0.000 C 
BRANCH  21  22
ATOM     22  C   UNL     1       4.329   3.454  17.986  0.00  0.00    +0.000 A 
ATOM     23  N   UNL     1       4.664   4.138  16.910  0.00  0.00    +0.000 NA
ATOM     24  C   UNL     1       5.693   4.956  17.290  0.00  0.00    +0.000 A 
ATOM     25  C   UNL     1       6.395   5.911  16.540  0.00  0.00    +0.000 A 
ATOM     26  C   UNL     1       7.426   6.618  17.155  0.00  0.00    +0.000 A 
ATOM     27  C   UNL     1       7.754   6.386  18.496  0.00  0.00    +0.000 A 
ATOM     28  C   UNL     1       7.051   5.445  19.265  0.00  0.00    +0.000 A 
ATOM     29  C   UNL     1       6.021   4.752  18.624  0.00  0.00    +0.000 A 
ATOM     30  N   UNL     1       5.131   3.792  19.049  0.00  0.00    +0.000 N 
ATOM     31  H   UNL     1       5.065   3.405  19.980  0.00  0.00    +0.000 HD
ENDBRANCH  21  22
ENDBRANCH   5  21
TORSDOF 6
ENDMDL
MODEL 3
REMARK VINA RESULT:      -8.0      1.278      1.773
REMARK  Name = 
REMARK  7 active torsions:
REMARK  status: ('A' for Active; 'I' for Inactive)
REMARK    1  A    between atoms: C_1  and  O_2
REMARK    2  A    between atoms: O_2  and  C_3
REMARK    3  A    between atoms: C_6  and  N_7
REMARK    4  A    between atoms: C_8  and  C_10
REMARK    5  A    between atoms: C_10  and  N_11
REMARK    6  A    between atoms: N_15  and  C_16
REMARK    7  A    between atoms: C_16  and  C_17
REMARK                            x       y       z     vdW  Elec       q    Type
REMARK                         _______ _______ _______ _____ _____    ______ ____
ROOT
ATOM      1  N   UNL     1       1.790   5.752  19.851  0.00  0.00    +0.000 NA
ATOM      2  C   UNL     1       2.343   4.905  20.927  0.00  0.00    +0.000 C 
ATOM      3  C   UNL     1       1.554   3.633  21.261  0.00  0.00    +0.000 C 
ATOM      4  C   UNL     1       1.085   2.688  20.146  0.00  0.00    +0.000 C 
ATOM      5  N   UNL     1       1.796   2.657  18.864  0.00  0.00    +0.000 NA
ATOM      6  C   UNL     1       1.518   3.883  18.106  0.00  0.00    +0.000 C 
ATOM      7  C   UNL     1       2.192   5.200  18.529  0.00  0.00    +0.000 C 
ENDROOT
BRANCH   1   8
ATOM      8  C   UNL     1       2.421   7.109  19.924  0.00  0.00    +0.000 C 
BRANCH   8  10
ATOM      9  N   UNL     1       1.215   9.173  19.476  0.00  0.00    +0.000 N 
ATOM     10  C   UNL     1       1.453   8.182  20.416  0.00  0.00    +0.000 C 
ATOM     11  O   UNL     1       0.969   8.105  21.542  0.00  0.00    +0.000 OA
ATOM     12  H   UNL     1       1.575   8.975  18.548  0.00  0.00    +0.000 HD
BRANCH   9  16
ATOM     13  C   UNL     1      -1.581  12.299  19.959  0.00  0.00    +0.000 A 
ATOM     14  C   UNL     1      -0.417  12.288  20.722  0.00  0.00    +0.000 A 
ATOM     15  C   UNL     1       0.537  11.285  20.546  0.00  0.00    +0.000 A 
ATOM     16  C   UNL     1       0.328  10.257  19.627  0.00  0.00    +0.000 A 
ATOM     17  C   UNL     1      -0.829  10.285  18.840  0.00  0.00    +0.000 A 
ATOM     18  C   UNL     1      -1.785  11.297  19.011  0.00  0.00    +0.000 A 
BRANCH  13  20
ATOM     19  C   UNL     1      -3.818  12.935  20.386  0.00  0.00    +0.000 C 
ATOM     20  O   UNL     1      -2.452  13.307  20.265  0.00  0.00    +0.000 OA
ENDBRANCH  13  20
ENDBRANCH   9  16
ENDBRANCH   8  10
ENDBRANCH   1   8
BRANCH   5  21
ATOM     21  C   UNL     1       3.204   2.270  19.034  0.00  0.00    +0.000 C 
BRANCH  21  22
ATOM     22  C   UNL     1       4.200   2.971  18.167  0.00  0.00    +0.000 A 
ATOM     23  N   UNL     1       4.161   3.008  16.850  0.00  0.00    +0.000 NA
ATOM     24  C   UNL     1       5.201   3.807  16.464  0.00  0.00    +0.000 A 
ATOM     25  C   UNL     1       5.590   4.203  15.176  0.00  0.00    +0.000 A 
ATOM     26  C   UNL     1       6.709   5.022  15.037  0.00  0.00    +0.000 A 
ATOM     27  C   UNL     1       7.430   5.446  16.159  0.00  0.00    +0.000 A 
ATOM     28  C   UNL     1       7.045   5.072  17.457  0.00  0.00    +0.000 A 
ATOM     29  C   UNL     1       5.919   4.252  17.567  0.00  0.00    +0.000 A 
ATOM     30  N   UNL     1       5.256   3.710  18.644  0.00  0.00    +0.000 N 
ATOM     31  H   UNL     1       5.491   3.835  19.619  0.00  0.00    +0.000 HD
ENDBRANCH  21  22
ENDBRANCH   5  21
TORSDOF 6
ENDMDL
MODEL 4
REMARK VINA RESULT:      -8.0      4.337     10.616
REMARK  Name = 
REMARK  7 active torsions:
REMARK  status: ('A' for Active; 'I' for Inactive)
REMARK    1  A    between atoms: C_1  and  O_2
REMARK    2  A    between atoms: O_2  and  C_3
REMARK    3  A    between atoms: C_6  and  N_7
REMARK    4  A    between atoms: C_8  and  C_10
REMARK    5  A    between atoms: C_10  and  N_11
REMARK    6  A    between atoms: N_15  and  C_16
REMARK    7  A    between atoms: C_16  and  C_17
REMARK                            x       y       z     vdW  Elec       q    Type
REMARK                         _______ _______ _______ _____ _____    ______ ____
ROOT
ATOM      1  N   UNL     1       0.599  10.271  18.824  0.00  0.00    +0.000 NA
ATOM      2  C   UNL     1       1.185  11.495  19.409  0.00  0.00    +0.000 C 
ATOM      3  C   UNL     1       0.849  12.813  18.700  0.00  0.00    +0.000 C 
ATOM      4  C   UNL     1      -0.600  13.150  18.321  0.00  0.00    +0.000 C 
ATOM      5  N   UNL     1      -1.711  12.544  19.061  0.00  0.00    +0.000 NA
ATOM      6  C   UNL     1      -1.826  11.121  18.718  0.00  0.00    +0.000 C 
ATOM      7  C   UNL     1      -0.806  10.122  19.292  0.00  0.00    +0.000 C 
ENDROOT
BRANCH   1   8
ATOM      8  C   UNL     1       1.325   9.076  19.362  0.00  0.00    +0.000 C 
BRANCH   8  10
ATOM      9  N   UNL     1       2.753   7.204  18.752  0.00  0.00    +0.000 N 
ATOM     10  C   UNL     1       2.179   8.384  18.303  0.00  0.00    +0.000 C 
ATOM     11  O   UNL     1       2.296   8.878  17.185  0.00  0.00    +0.000 OA
ATOM     12  H   UNL     1       2.407   6.877  19.649  0.00  0.00    +0.000 HD
BRANCH   9  16
ATOM     13  C   UNL     1       4.965   4.526  16.352  0.00  0.00    +0.000 A 
ATOM     14  C   UNL     1       5.386   5.847  16.484  0.00  0.00    +0.000 A 
ATOM     15  C   UNL     1       4.690   6.734  17.306  0.00  0.00    +0.000 A 
ATOM     16  C   UNL     1       3.542   6.325  17.984  0.00  0.00    +0.000 A 
ATOM     17  C   UNL     1       3.136   4.990  17.874  0.00  0.00    +0.000 A 
ATOM     18  C   UNL     1       3.840   4.096  17.054  0.00  0.00    +0.000 A 
BRANCH  13  20
ATOM     19  C   UNL     1       6.666   4.488  14.710  0.00  0.00    +0.000 C 
ATOM     20  O   UNL     1       5.706   3.779  15.480  0.00  0.00    +0.000 OA
ENDBRANCH  13  20
ENDBRANCH   9  16
ENDBRANCH   8  10
ENDBRANCH   1   8
BRANCH   5  21
ATOM     21  C   UNL     1      -1.669  12.896  20.487  0.00  0.00    +0.000 C 
BRANCH  21  22
ATOM     22  C   UNL     1      -2.974  12.895  21.217  0.00  0.00    +0.000 A 
ATOM     23  N   UNL     1      -4.160  12.832  20.643  0.00  0.00    +0.000 NA
ATOM     24  C   UNL     1      -5.070  12.779  21.662  0.00  0.00    +0.000 A 
ATOM     25  C   UNL     1      -6.467  12.672  21.604  0.00  0.00    +0.000 A 
ATOM     26  C   UNL     1      -7.186  12.650  22.798  0.00  0.00    +0.000 A 
ATOM     27  C   UNL     1      -6.530  12.729  24.031  0.00  0.00    +0.000 A 
ATOM     28  C   UNL     1      -5.131  12.821  24.108  0.00  0.00    +0.000 A 
ATOM     29  C   UNL     1      -4.434  12.839  22.896  0.00  0.00    +0.000 A 
ATOM     30  N   UNL     1      -3.096  12.906  22.585  0.00  0.00    +0.000 N 
ATOM     31  H   UNL     1      -2.328  12.947  23.242  0.00  0.00    +0.000 HD
ENDBRANCH  21  22
ENDBRANCH   5  21
TORSDOF 6
ENDMDL
MODEL 5
REMARK VINA RESULT:      -7.9      0.939      1.368
REMARK  Name = 
REMARK  7 active torsions:
REMARK  status: ('A' for Active; 'I' for Inactive)
REMARK    1  A    between atoms: C_1  and  O_2
REMARK    2  A    between atoms: O_2  and  C_3
REMARK    3  A    between atoms: C_6  and  N_7
REMARK    4  A    between atoms: C_8  and  C_10
REMARK    5  A    between atoms: C_10  and  N_11
REMARK    6  A    between atoms: N_15  and  C_16
REMARK    7  A    between atoms: C_16  and  C_17
REMARK                            x       y       z     vdW  Elec       q    Type
REMARK                         _______ _______ _______ _____ _____    ______ ____
ROOT
ATOM      1  N   UNL     1       1.577   5.640  19.795  0.00  0.00    +0.000 NA
ATOM      2  C   UNL     1       1.898   4.522  20.705  0.00  0.00    +0.000 C 
ATOM      3  C   UNL     1       1.070   3.243  20.525  0.00  0.00    +0.000 C 
ATOM      4  C   UNL     1       0.860   2.637  19.130  0.00  0.00    +0.000 C 
ATOM      5  N   UNL     1       1.828   2.903  18.062  0.00  0.00    +0.000 NA
ATOM      6  C   UNL     1       1.705   4.294  17.608  0.00  0.00    +0.000 C 
ATOM      7  C   UNL     1       2.259   5.427  18.489  0.00  0.00    +0.000 C 
ENDROOT
BRANCH   1   8
ATOM      8  C   UNL     1       2.164   6.903  20.348  0.00  0.00    +0.000 C 
BRANCH   8  10
ATOM      9  N   UNL     1       1.170   9.082  19.925  0.00  0.00    +0.000 N 
ATOM     10  C   UNL     1       1.100   7.938  20.705  0.00  0.00    +0.000 C 
ATOM     11  O   UNL     1       0.292   7.707  21.601  0.00  0.00    +0.000 OA
ATOM     12  H   UNL     1       1.796   9.017  19.129  0.00  0.00    +0.000 HD
BRANCH   9  16
ATOM     13  C   UNL     1      -1.617  12.248  20.119  0.00  0.00    +0.000 A 
ATOM     14  C   UNL     1      -0.581  12.180  21.047  0.00  0.00    +0.000 A 
ATOM     15  C   UNL     1       0.372  11.164  20.972  0.00  0.00    +0.000 A 
ATOM     16  C   UNL     1       0.287  10.179  19.988  0.00  0.00    +0.000 A 
ATOM     17  C   UNL     1      -0.737  10.264  19.039  0.00  0.00    +0.000 A 
ATOM     18  C   UNL     1      -1.691  11.289  19.109  0.00  0.00    +0.000 A 
BRANCH  13  20
ATOM     19  C   UNL     1      -3.882  12.915  20.236  0.00  0.00    +0.000 C 
ATOM     20  O   UNL     1      -2.508  13.261  20.335  0.00  0.00    +0.000 OA
ENDBRANCH  13  20
ENDBRANCH   9  16
ENDBRANCH   8  10
ENDBRANCH   1   8
BRANCH   5  21
ATOM     21  C   UNL     1       3.172   2.422  18.416  0.00  0.00    +0.000 C 
BRANCH  21  22
ATOM     22  C   UNL     1       4.301   3.383  18.217  0.00  0.00    +0.000 A 
ATOM     23  N   UNL     1       4.673   3.878  17.053  0.00  0.00    +0.000 NA
ATOM     24  C   UNL     1       5.680   4.762  17.326  0.00  0.00    +0.000 A 
ATOM     25  C   UNL     1       6.405   5.584  16.450  0.00  0.00    +0.000 A 
ATOM     26  C   UNL     1       7.407   6.400  16.974  0.00  0.00    +0.000 A 
ATOM     27  C   UNL     1       7.683   6.405  18.346  0.00  0.00    +0.000 A 
ATOM     28  C   UNL     1       6.956   5.600  19.238  0.00  0.00    +0.000 A 
ATOM     29  C   UNL     1       5.957   4.793  18.687  0.00  0.00    +0.000 A 
ATOM     30  N   UNL     1       5.058   3.908  19.235  0.00  0.00    +0.000 N 
ATOM     31  H   UNL     1       4.958   3.684  20.216  0.00  0.00    +0.000 HD
ENDBRANCH  21  22
ENDBRANCH   5  21
TORSDOF 6
ENDMDL
MODEL 6
REMARK VINA RESULT:      -7.9      1.880      2.178
REMARK  Name = 
REMARK  7 active torsions:
REMARK  status: ('A' for Active; 'I' for Inactive)
REMARK    1  A    between atoms: C_1  and  O_2
REMARK    2  A    between atoms: O_2  and  C_3
REMARK    3  A    between atoms: C_6  and  N_7
REMARK    4  A    between atoms: C_8  and  C_10
REMARK    5  A    between atoms: C_10  and  N_11
REMARK    6  A    between atoms: N_15  and  C_16
REMARK    7  A    between atoms: C_16  and  C_17
REMARK                            x       y       z     vdW  Elec       q    Type
REMARK                         _______ _______ _______ _____ _____    ______ ____
ROOT
ATOM      1  N   UNL     1       1.818   5.731  19.864  0.00  0.00    +0.000 NA
ATOM      2  C   UNL     1       2.278   4.751  20.868  0.00  0.00    +0.000 C 
ATOM      3  C   UNL     1       1.385   3.520  21.072  0.00  0.00    +0.000 C 
ATOM      4  C   UNL     1       0.872   2.718  19.868  0.00  0.00    +0.000 C 
ATOM      5  N   UNL     1       1.609   2.745  18.601  0.00  0.00    +0.000 NA
ATOM      6  C   UNL     1       1.445   4.051  17.953  0.00  0.00    +0.000 C 
ATOM      7  C   UNL     1       2.208   5.268  18.504  0.00  0.00    +0.000 C 
ENDROOT
BRANCH   1   8
ATOM      8  C   UNL     1       2.550   7.022  20.069  0.00  0.00    +0.000 C 
BRANCH   8  10
ATOM      9  N   UNL     1       0.998   8.473  21.251  0.00  0.00    +0.000 N 
ATOM     10  C   UNL     1       1.624   8.234  20.038  0.00  0.00    +0.000 C 
ATOM     11  O   UNL     1       1.500   8.889  19.005  0.00  0.00    +0.000 OA
ATOM     12  H   UNL     1       1.353   7.926  22.029  0.00  0.00    +0.000 HD
BRANCH   9  16
ATOM     13  C   UNL     1      -1.482  11.741  22.254  0.00  0.00    +0.000 A 
ATOM     14  C   UNL     1      -0.949  11.644  20.971  0.00  0.00    +0.000 A 
ATOM     15  C   UNL     1      -0.162  10.550  20.610  0.00  0.00    +0.000 A 
ATOM     16  C   UNL     1       0.134   9.550  21.537  0.00  0.00    +0.000 A 
ATOM     17  C   UNL     1      -0.425   9.632  22.817  0.00  0.00    +0.000 A 
ATOM     18  C   UNL     1      -1.223  10.729  23.177  0.00  0.00    +0.000 A 
BRANCH  13  20
ATOM     19  C   UNL     1      -3.010  12.881  23.651  0.00  0.00    +0.000 C 
ATOM     20  O   UNL     1      -2.192  12.884  22.489  0.00  0.00    +0.000 OA
ENDBRANCH  13  20
ENDBRANCH   9  16
ENDBRANCH   8  10
ENDBRANCH   1   8
BRANCH   5  21
ATOM     21  C   UNL     1       2.978   2.234  18.760  0.00  0.00    +0.000 C 
BRANCH  21  22
ATOM     22  C   UNL     1       4.050   2.944  17.996  0.00  0.00    +0.000 A 
ATOM     23  N   UNL     1       4.121   3.012  16.681  0.00  0.00    +0.000 NA
ATOM     24  C   UNL     1       5.197   3.808  16.403  0.00  0.00    +0.000 A 
ATOM     25  C   UNL     1       5.696   4.230  15.162  0.00  0.00    +0.000 A 
ATOM     26  C   UNL     1       6.831   5.040  15.136  0.00  0.00    +0.000 A 
ATOM     27  C   UNL     1       7.459   5.428  16.325  0.00  0.00    +0.000 A 
ATOM     28  C   UNL     1       6.964   5.028  17.576  0.00  0.00    +0.000 A 
ATOM     29  C   UNL     1       5.825   4.219  17.572  0.00  0.00    +0.000 A 
ATOM     30  N   UNL     1       5.070   3.659  18.577  0.00  0.00    +0.000 N 
ATOM     31  H   UNL     1       5.224   3.758  19.571  0.00  0.00    +0.000 HD
ENDBRANCH  21  22
ENDBRANCH   5  21
TORSDOF 6
ENDMDL
MODEL 7
REMARK VINA RESULT:      -7.8      1.859      2.428
REMARK  Name = 
REMARK  7 active torsions:
REMARK  status: ('A' for Active; 'I' for Inactive)
REMARK    1  A    between atoms: C_1  and  O_2
REMARK    2  A    between atoms: O_2  and  C_3
REMARK    3  A    between atoms: C_6  and  N_7
REMARK    4  A    between atoms: C_8  and  C_10
REMARK    5  A    between atoms: C_10  and  N_11
REMARK    6  A    between atoms: N_15  and  C_16
REMARK    7  A    between atoms: C_16  and  C_17
REMARK                            x       y       z     vdW  Elec       q    Type
REMARK                         _______ _______ _______ _____ _____    ______ ____
ROOT
ATOM      1  N   UNL     1       1.901   5.903  19.630  0.00  0.00    +0.000 NA
ATOM      2  C   UNL     1       2.495   5.108  20.724  0.00  0.00    +0.000 C 
ATOM      3  C   UNL     1       1.686   3.893  21.196  0.00  0.00    +0.000 C 
ATOM      4  C   UNL     1       1.109   2.896  20.181  0.00  0.00    +0.000 C 
ATOM      5  N   UNL     1       1.730   2.751  18.861  0.00  0.00    +0.000 NA
ATOM      6  C   UNL     1       1.446   3.934  18.040  0.00  0.00    +0.000 C 
ATOM      7  C   UNL     1       2.193   5.249  18.326  0.00  0.00    +0.000 C 
ENDROOT
BRANCH   1   8
ATOM      8  C   UNL     1       2.583   7.235  19.568  0.00  0.00    +0.000 C 
BRANCH   8  10
ATOM      9  N   UNL     1       1.338   8.645  21.109  0.00  0.00    +0.000 N 
ATOM     10  C   UNL     1       1.619   8.400  19.774  0.00  0.00    +0.000 C 
ATOM     11  O   UNL     1       1.181   9.017  18.806  0.00  0.00    +0.000 OA
ATOM     12  H   UNL     1       1.922   8.138  21.767  0.00  0.00    +0.000 HD
BRANCH   9  16
ATOM     13  C   UNL     1      -1.023  11.728  22.766  0.00  0.00    +0.000 A 
ATOM     14  C   UNL     1      -0.160  12.009  21.711  0.00  0.00    +0.000 A 
ATOM     15  C   UNL     1       0.597  10.994  21.124  0.00  0.00    +0.000 A 
ATOM     16  C   UNL     1       0.528   9.686  21.605  0.00  0.00    +0.000 A 
ATOM     17  C   UNL     1      -0.361   9.399  22.647  0.00  0.00    +0.000 A 
ATOM     18  C   UNL     1      -1.127  10.418  23.232  0.00  0.00    +0.000 A 
BRANCH  13  20
ATOM     19  C   UNL     1      -2.273  13.688  22.333  0.00  0.00    +0.000 C 
ATOM     20  O   UNL     1      -1.667  12.819  23.279  0.00  0.00    +0.000 OA
ENDBRANCH  13  20
ENDBRANCH   9  16
ENDBRANCH   8  10
ENDBRANCH   1   8
BRANCH   5  21
ATOM     21  C   UNL     1       3.132   2.320  18.966  0.00  0.00    +0.000 C 
BRANCH  21  22
ATOM     22  C   UNL     1       4.130   3.084  18.155  0.00  0.00    +0.000 A 
ATOM     23  N   UNL     1       4.995   3.950  18.643  0.00  0.00    +0.000 NA
ATOM     24  C   UNL     1       5.760   4.356  17.585  0.00  0.00    +0.000 A 
ATOM     25  C   UNL     1       6.845   5.245  17.559  0.00  0.00    +0.000 A 
ATOM     26  C   UNL     1       7.461   5.513  16.339  0.00  0.00    +0.000 A 
ATOM     27  C   UNL     1       7.012   4.905  15.161  0.00  0.00    +0.000 A 
ATOM     28  C   UNL     1       5.938   4.001  15.171  0.00  0.00    +0.000 A 
ATOM     29  C   UNL     1       5.339   3.749  16.409  0.00  0.00    +0.000 A 
ATOM     30  N   UNL     1       4.301   2.936  16.799  0.00  0.00    +0.000 N 
ATOM     31  H   UNL     1       3.759   2.325  16.203  0.00  0.00    +0.000 HD
ENDBRANCH  21  22
ENDBRANCH   5  21
TORSDOF 6
ENDMDL
MODEL 8
REMARK VINA RESULT:      -7.8      1.206      1.631
REMARK  Name = 
REMARK  7 active torsions:
REMARK  status: ('A' for Active; 'I' for Inactive)
REMARK    1  A    between atoms: C_1  and  O_2
REMARK    2  A    between atoms: O_2  and  C_3
REMARK    3  A    between atoms: C_6  and  N_7
REMARK    4  A    between atoms: C_8  and  C_10
REMARK    5  A    between atoms: C_10  and  N_11
REMARK    6  A    between atoms: N_15  and  C_16
REMARK    7  A    between atoms: C_16  and  C_17
REMARK                            x       y       z     vdW  Elec       q    Type
REMARK                         _______ _______ _______ _____ _____    ______ ____
ROOT
ATOM      1  N   UNL     1       1.532   5.338  20.153  0.00  0.00    +0.000 NA
ATOM      2  C   UNL     1       1.920   4.071  20.805  0.00  0.00    +0.000 C 
ATOM      3  C   UNL     1       1.154   2.818  20.362  0.00  0.00    +0.000 C 
ATOM      4  C   UNL     1       0.955   2.510  18.871  0.00  0.00    +0.000 C 
ATOM      5  N   UNL     1       1.894   3.044  17.880  0.00  0.00    +0.000 NA
ATOM      6  C   UNL     1       1.695   4.491  17.730  0.00  0.00    +0.000 C 
ATOM      7  C   UNL     1       2.204   5.440  18.829  0.00  0.00    +0.000 C 
ENDROOT
BRANCH   1   8
ATOM      8  C   UNL     1       2.063   6.484  20.958  0.00  0.00    +0.000 C 
BRANCH   8  10
ATOM      9  N   UNL     1       0.504   8.299  21.398  0.00  0.00    +0.000 N 
ATOM     10  C   UNL     1       1.474   7.826  20.529  0.00  0.00    +0.000 C 
ATOM     11  O   UNL     1       1.875   8.375  19.505  0.00  0.00    +0.000 OA
ATOM     12  H   UNL     1       0.429   7.787  22.272  0.00  0.00    +0.000 HD
BRANCH   9  16
ATOM     13  C   UNL     1      -1.376  12.072  21.162  0.00  0.00    +0.000 A 
ATOM     14  C   UNL     1      -1.187  11.320  20.006  0.00  0.00    +0.000 A 
ATOM     15  C   UNL     1      -0.605  10.053  20.071  0.00  0.00    +0.000 A 
ATOM     16  C   UNL     1      -0.171   9.531  21.290  0.00  0.00    +0.000 A 
ATOM     17  C   UNL     1      -0.388  10.275  22.455  0.00  0.00    +0.000 A 
ATOM     18  C   UNL     1      -0.980  11.545  22.391  0.00  0.00    +0.000 A 
BRANCH  13  20
ATOM     19  C   UNL     1      -0.988  14.391  20.920  0.00  0.00    +0.000 C 
ATOM     20  O   UNL     1      -1.911  13.311  20.952  0.00  0.00    +0.000 OA
ENDBRANCH  13  20
ENDBRANCH   9  16
ENDBRANCH   8  10
ENDBRANCH   1   8
BRANCH   5  21
ATOM     21  C   UNL     1       3.264   2.570  18.120  0.00  0.00    +0.000 C 
BRANCH  21  22
ATOM     22  C   UNL     1       4.345   3.602  18.090  0.00  0.00    +0.000 A 
ATOM     23  N   UNL     1       5.102   3.933  19.118  0.00  0.00    +0.000 NA
ATOM     24  C   UNL     1       6.001   4.848  18.646  0.00  0.00    +0.000 A 
ATOM     25  C   UNL     1       7.049   5.496  19.316  0.00  0.00    +0.000 A 
ATOM     26  C   UNL     1       7.829   6.411  18.612  0.00  0.00    +0.000 A 
ATOM     27  C   UNL     1       7.578   6.677  17.262  0.00  0.00    +0.000 A 
ATOM     28  C   UNL     1       6.543   6.026  16.571  0.00  0.00    +0.000 A 
ATOM     29  C   UNL     1       5.777   5.112  17.301  0.00  0.00    +0.000 A 
ATOM     30  N   UNL     1       4.719   4.299  16.967  0.00  0.00    +0.000 N 
ATOM     31  H   UNL     1       4.290   4.215  16.055  0.00  0.00    +0.000 HD
ENDBRANCH  21  22
ENDBRANCH   5  21
TORSDOF 6
ENDMDL
MODEL 9
REMARK VINA RESULT:      -7.8      1.331      1.620
REMARK  Name = 
REMARK  7 active torsions:
REMARK  status: ('A' for Active; 'I' for Inactive)
REMARK    1  A    between atoms: C_1  and  O_2
REMARK    2  A    between atoms: O_2  and  C_3
REMARK    3  A    between atoms: C_6  and  N_7
REMARK    4  A    between atoms: C_8  and  C_10
REMARK    5  A    between atoms: C_10  and  N_11
REMARK    6  A    between atoms: N_15  and  C_16
REMARK    7  A    between atoms: C_16  and  C_17
REMARK                            x       y       z     vdW  Elec       q    Type
REMARK                         _______ _______ _______ _____ _____    ______ ____
ROOT
ATOM      1  N   UNL     1       1.627   5.172  20.186  0.00  0.00    +0.000 NA
ATOM      2  C   UNL     1       2.034   3.938  20.888  0.00  0.00    +0.000 C 
ATOM      3  C   UNL     1       1.339   2.645  20.442  0.00  0.00    +0.000 C 
ATOM      4  C   UNL     1       1.221   2.293  18.953  0.00  0.00    +0.000 C 
ATOM      5  N   UNL     1       2.183   2.841  17.992  0.00  0.00    +0.000 NA
ATOM      6  C   UNL     1       1.936   4.275  17.796  0.00  0.00    +0.000 C 
ATOM      7  C   UNL     1       2.356   5.270  18.892  0.00  0.00    +0.000 C 
ENDROOT
BRANCH   1   8
ATOM      8  C   UNL     1       2.075   6.358  20.984  0.00  0.00    +0.000 C 
BRANCH   8  10
ATOM      9  N   UNL     1       1.453   8.628  21.598  0.00  0.00    +0.000 N 
ATOM     10  C   UNL     1       0.978   7.409  21.141  0.00  0.00    +0.000 C 
ATOM     11  O   UNL     1      -0.186   7.130  20.864  0.00  0.00    +0.000 OA
ATOM     12  H   UNL     1       2.465   8.713  21.612  0.00  0.00    +0.000 HD
BRANCH   9  16
ATOM     13  C   UNL     1      -0.789  12.130  22.333  0.00  0.00    +0.000 A 
ATOM     14  C   UNL     1       0.125  12.101  21.283  0.00  0.00    +0.000 A 
ATOM     15  C   UNL     1       0.844  10.939  21.000  0.00  0.00    +0.000 A 
ATOM     16  C   UNL     1       0.686   9.796  21.784  0.00  0.00    +0.000 A 
ATOM     17  C   UNL     1      -0.254   9.816  22.821  0.00  0.00    +0.000 A 
ATOM     18  C   UNL     1      -0.982  10.982  23.100  0.00  0.00    +0.000 A 
BRANCH  13  20
ATOM     19  C   UNL     1      -0.516  14.438  22.762  0.00  0.00    +0.000 C 
ATOM     20  O   UNL     1      -1.388  13.341  22.531  0.00  0.00    +0.000 OA
ENDBRANCH  13  20
ENDBRANCH   9  16
ENDBRANCH   8  10
ENDBRANCH   1   8
BRANCH   5  21
ATOM     21  C   UNL     1       3.559   2.428  18.306  0.00  0.00    +0.000 C 
BRANCH  21  22
ATOM     22  C   UNL     1       4.621   3.470  18.157  0.00  0.00    +0.000 A 
ATOM     23  N   UNL     1       4.857   4.156  17.056  0.00  0.00    +0.000 NA
ATOM     24  C   UNL     1       5.848   5.044  17.369  0.00  0.00    +0.000 A 
ATOM     25  C   UNL     1       6.448   6.028  16.571  0.00  0.00    +0.000 A 
ATOM     26  C   UNL     1       7.461   6.811  17.121  0.00  0.00    +0.000 A 
ATOM     27  C   UNL     1       7.871   6.624  18.446  0.00  0.00    +0.000 A 
ATOM     28  C   UNL     1       7.270   5.654  19.265  0.00  0.00    +0.000 A 
ATOM     29  C   UNL     1       6.256   4.884  18.688  0.00  0.00    +0.000 A 
ATOM     30  N   UNL     1       5.453   3.878  19.172  0.00  0.00    +0.000 N 
ATOM     31  H   UNL     1       5.459   3.503  20.110  0.00  0.00    +0.000 HD
ENDBRANCH  21  22
ENDBRANCH   5  21
TORSDOF 6
ENDMDL
