MODEL 1
REMARK VINA RESULT:      -7.3      0.000      0.000
REMARK  Name = 
REMARK  7 active torsions:
REMARK  status: ('A' for Active; 'I' for Inactive)
REMARK    1  A    between atoms: C_1  and  C_2
REMARK    2  A    between atoms: C_2  and  C_3
REMARK    3  A    between atoms: C_2  and  C_4
REMARK    4  A    between atoms: C_6  and  O_7
REMARK    5  A    between atoms: C_11  and  O_12
REMARK    6  A    between atoms: O_12  and  C_13
REMARK    7  A    between atoms: C_19  and  N_20
REMARK                            x       y       z     vdW  Elec       q    Type
REMARK                         _______ _______ _______ _____ _____    ______ ____
ROOT
ATOM      1  O   UNL     1       2.615   6.642  19.707  0.00  0.00    +0.000 OA
ENDROOT
BRANCH   1   2
ATOM      2  C   UNL     1       2.115   7.834  19.294  0.00  0.00    +0.000 A 
ATOM      3  C   UNL     1       2.230   8.382  18.042  0.00  0.00    +0.000 A 
ATOM      4  N   UNL     1       1.536   9.466  17.644  0.00  0.00    +0.000 NA
ATOM      5  C   UNL     1       0.790  10.063  18.579  0.00  0.00    +0.000 A 
ATOM      6  N   UNL     1      -0.128  11.004  18.156  0.00  0.00    +0.000 N 
ATOM      7  N   UNL     1       0.759   9.722  19.868  0.00  0.00    +0.000 NA
ATOM      8  C   UNL     1       1.448   8.628  20.216  0.00  0.00    +0.000 A 
ATOM      9  H   UNL     1      -0.373  10.802  17.196  0.00  0.00    +0.000 HD
ATOM     10  H   UNL     1      -0.893  11.019  18.819  0.00  0.00    +0.000 HD
BRANCH   8  11
ATOM     11  N   UNL     1       1.525   8.377  21.589  0.00  0.00    +0.000 N 
ATOM     12  H   UNL     1       0.985   7.543  21.802  0.00  0.00    +0.000 HD
ATOM     13  H   UNL     1       2.474   8.356  21.939  0.00  0.00    +0.000 HD
ENDBRANCH   8  11
ENDBRANCH   1   2
BRANCH   1  20
ATOM     14  C   UNL     1       2.562   4.341  18.651  0.00  0.00    +0.000 A 
ATOM     15  C   UNL     1       3.368   3.465  17.876  0.00  0.00    +0.000 A 
ATOM     16  C   UNL     1       4.581   3.857  17.315  0.00  0.00    +0.000 A 
ATOM     17  C   UNL     1       5.041   5.152  17.498  0.00  0.00    +0.000 A 
ATOM     18  I   UNL     1       6.832   5.824  16.675  0.00  0.00    +0.000 I 
ATOM     19  C   UNL     1       4.285   6.030  18.275  0.00  0.00    +0.000 A 
ATOM     20  C   UNL     1       3.058   5.649  18.860  0.00  0.00    +0.000 A 
BRANCH  14  22
ATOM     21  C   UNL     1       1.045   2.328  18.590  0.00  0.00    +0.000 C 
ATOM     22  C   UNL     1       1.231   3.763  19.131  0.00  0.00    +0.000 C 
ATOM     23  C   UNL     1       1.080   3.749  20.659  0.00  0.00    +0.000 C 
ENDBRANCH  14  22
BRANCH  16  24
ATOM     24  O   UNL     1       5.303   2.956  16.585  0.00  0.00    +0.000 OA
ATOM     25  H   UNL     1       6.087   3.391  16.214  0.00  0.00    +0.000 HD
ENDBRANCH  16  24
ENDBRANCH   1  20
TORSDOF 5
ENDMDL
MODEL 2
REMARK VINA RESULT:      -7.1      3.410      5.344
REMARK  Name = 
REMARK  7 active torsions:
REMARK  status: ('A' for Active; 'I' for Inactive)
REMARK    1  A    between atoms: C_1  and  C_2
REMARK    2  A    between atoms: C_2  and  C_3
REMARK    3  A    between atoms: C_2  and  C_4
REMARK    4  A    between atoms: C_6  and  O_7
REMARK    5  A    between atoms: C_11  and  O_12
REMARK    6  A    between atoms: O_12  and  C_13
REMARK    7  A    between atoms: C_19  and  N_20
REMARK                            x       y       z     vdW  Elec       q    Type
REMARK                         _______ _______ _______ _____ _____    ______ ____
ROOT
ATOM      1  O   UNL     1       4.638   3.643  16.947  0.00  0.00    +0.000 OA
ENDROOT
BRANCH   1   2
ATOM      2  C   UNL     1       4.027   4.359  17.924  0.00  0.00    +0.000 A 
ATOM      3  C   UNL     1       3.320   5.523  17.766  0.00  0.00    +0.000 A 
ATOM      4  N   UNL     1       2.567   6.068  18.742  0.00  0.00    +0.000 NA
ATOM      5  C   UNL     1       2.625   5.468  19.935  0.00  0.00    +0.000 A 
ATOM      6  N   UNL     1       1.683   5.830  20.876  0.00  0.00    +0.000 N 
ATOM      7  N   UNL     1       3.428   4.448  20.241  0.00  0.00    +0.000 NA
ATOM      8  C   UNL     1       4.143   3.925  19.237  0.00  0.00    +0.000 A 
ATOM      9  H   UNL     1       0.868   6.182  20.393  0.00  0.00    +0.000 HD
ATOM     10  H   UNL     1       1.531   5.041  21.491  0.00  0.00    +0.000 HD
BRANCH   8  11
ATOM     11  N   UNL     1       5.085   2.960  19.608  0.00  0.00    +0.000 N 
ATOM     12  H   UNL     1       5.901   3.049  19.008  0.00  0.00    +0.000 HD
ATOM     13  H   UNL     1       5.295   2.967  20.597  0.00  0.00    +0.000 HD
ENDBRANCH   8  11
ENDBRANCH   1   2
BRANCH   1  20
ATOM     14  C   UNL     1       6.580   5.160  16.365  0.00  0.00    +0.000 A 
ATOM     15  C   UNL     1       7.344   5.593  15.249  0.00  0.00    +0.000 A 
ATOM     16  C   UNL     1       7.212   5.029  13.982  0.00  0.00    +0.000 A 
ATOM     17  C   UNL     1       6.309   3.998  13.775  0.00  0.00    +0.000 A 
ATOM     18  I   UNL     1       6.066   3.087  11.918  0.00  0.00    +0.000 I 
ATOM     19  C   UNL     1       5.526   3.565  14.846  0.00  0.00    +0.000 A 
ATOM     20  C   UNL     1       5.639   4.130  16.134  0.00  0.00    +0.000 A 
BRANCH  14  22
ATOM     21  C   UNL     1       7.884   4.976  18.515  0.00  0.00    +0.000 C 
ATOM     22  C   UNL     1       6.906   5.843  17.693  0.00  0.00    +0.000 C 
ATOM     23  C   UNL     1       7.495   7.253  17.532  0.00  0.00    +0.000 C 
ENDBRANCH  14  22
BRANCH  16  24
ATOM     24  O   UNL     1       7.979   5.502  12.956  0.00  0.00    +0.000 OA
ATOM     25  H   UNL     1       7.932   4.890  12.205  0.00  0.00    +0.000 HD
ENDBRANCH  16  24
ENDBRANCH   1  20
TORSDOF 5
ENDMDL
MODEL 3
REMARK VINA RESULT:      -7.1      3.898      5.871
REMARK  Name = 
REMARK  7 active torsions:
REMARK  status: ('A' for Active; 'I' for Inactive)
REMARK    1  A    between atoms: C_1  and  C_2
REMARK    2  A    between atoms: C_2  and  C_3
REMARK    3  A    between atoms: C_2  and  C_4
REMARK    4  A    between atoms: C_6  and  O_7
REMARK    5  A    between atoms: C_11  and  O_12
REMARK    6  A    between atoms: O_12  and  C_13
REMARK    7  A    between atoms: C_19  and  N_20
REMARK                            x       y       z     vdW  Elec       q    Type
REMARK                         _______ _______ _______ _____ _____    ______ ____
ROOT
ATOM      1  O   UNL     1       4.095   5.115  17.222  0.00  0.00    +0.000 OA
ENDROOT
BRANCH   1   2
ATOM      2  C   UNL     1       3.849   4.246  18.235  0.00  0.00    +0.000 A 
ATOM      3  C   UNL     1       4.780   3.556  18.967  0.00  0.00    +0.000 A 
ATOM      4  N   UNL     1       4.478   2.873  20.089  0.00  0.00    +0.000 NA
ATOM      5  C   UNL     1       3.182   2.805  20.407  0.00  0.00    +0.000 A 
ATOM      6  N   UNL     1       2.858   2.347  21.668  0.00  0.00    +0.000 N 
ATOM      7  N   UNL     1       2.184   3.279  19.659  0.00  0.00    +0.000 NA
ATOM      8  C   UNL     1       2.530   3.968  18.563  0.00  0.00    +0.000 A 
ATOM      9  H   UNL     1       3.644   2.519  22.281  0.00  0.00    +0.000 HD
ATOM     10  H   UNL     1       1.979   2.768  21.941  0.00  0.00    +0.000 HD
BRANCH   8  11
ATOM     11  N   UNL     1       1.474   4.323  17.719  0.00  0.00    +0.000 N 
ATOM     12  H   UNL     1       0.994   5.128  18.111  0.00  0.00    +0.000 HD
ATOM     13  H   UNL     1       1.756   4.440  16.754  0.00  0.00    +0.000 HD
ENDBRANCH   8  11
ENDBRANCH   1   2
BRANCH   1  20
ATOM     14  C   UNL     1       6.460   5.850  16.696  0.00  0.00    +0.000 A 
ATOM     15  C   UNL     1       7.405   5.849  15.636  0.00  0.00    +0.000 A 
ATOM     16  C   UNL     1       7.194   5.164  14.441  0.00  0.00    +0.000 A 
ATOM     17  C   UNL     1       6.025   4.442  14.255  0.00  0.00    +0.000 A 
ATOM     18  I   UNL     1       5.642   3.374  12.508  0.00  0.00    +0.000 I 
ATOM     19  C   UNL     1       5.066   4.443  15.268  0.00  0.00    +0.000 A 
ATOM     20  C   UNL     1       5.257   5.138  16.482  0.00  0.00    +0.000 A 
BRANCH  14  22
ATOM     21  C   UNL     1       7.711   5.667  18.877  0.00  0.00    +0.000 C 
ATOM     22  C   UNL     1       6.888   6.597  17.960  0.00  0.00    +0.000 C 
ATOM     23  C   UNL     1       7.697   7.872  17.678  0.00  0.00    +0.000 C 
ENDBRANCH  14  22
BRANCH  16  24
ATOM     24  O   UNL     1       8.147   5.213  13.464  0.00  0.00    +0.000 OA
ATOM     25  H   UNL     1       8.014   6.004  12.919  0.00  0.00    +0.000 HD
ENDBRANCH  16  24
ENDBRANCH   1  20
TORSDOF 5
ENDMDL
MODEL 4
REMARK VINA RESULT:      -6.9      4.123      5.693
REMARK  Name = 
REMARK  7 active torsions:
REMARK  status: ('A' for Active; 'I' for Inactive)
REMARK    1  A    between atoms: C_1  and  C_2
REMARK    2  A    between atoms: C_2  and  C_3
REMARK    3  A    between atoms: C_2  and  C_4
REMARK    4  A    between atoms: C_6  and  O_7
REMARK    5  A    between atoms: C_11  and  O_12
REMARK    6  A    between atoms: O_12  and  C_13
REMARK    7  A    between atoms: C_19  and  N_20
REMARK                            x       y       z     vdW  Elec       q    Type
REMARK                         _______ _______ _______ _____ _____    ______ ____
ROOT
ATOM      1  O   UNL     1       3.649   3.835  17.419  0.00  0.00    +0.000 OA
ENDROOT
BRANCH   1   2
ATOM      2  C   UNL     1       4.712   4.070  16.609  0.00  0.00    +0.000 A 
ATOM      3  C   UNL     1       4.702   4.128  15.239  0.00  0.00    +0.000 A 
ATOM      4  N   UNL     1       5.747   4.569  14.512  0.00  0.00    +0.000 NA
ATOM      5  C   UNL     1       6.861   4.855  15.193  0.00  0.00    +0.000 A 
ATOM      6  N   UNL     1       7.853   5.548  14.530  0.00  0.00    +0.000 N 
ATOM      7  N   UNL     1       7.033   4.650  16.500  0.00  0.00    +0.000 NA
ATOM      8  C   UNL     1       5.963   4.230  17.188  0.00  0.00    +0.000 A 
ATOM      9  H   UNL     1       7.427   6.076  13.780  0.00  0.00    +0.000 HD
ATOM     10  H   UNL     1       8.375   6.084  15.213  0.00  0.00    +0.000 HD
BRANCH   8  11
ATOM     11  N   UNL     1       6.204   3.880  18.519  0.00  0.00    +0.000 N 
ATOM     12  H   UNL     1       5.895   2.923  18.670  0.00  0.00    +0.000 HD
ATOM     13  H   UNL     1       7.155   4.058  18.814  0.00  0.00    +0.000 HD
ENDBRANCH   8  11
ENDBRANCH   1   2
BRANCH   1  20
ATOM     14  C   UNL     1       2.977   4.331  19.809  0.00  0.00    +0.000 A 
ATOM     15  C   UNL     1       2.394   5.357  20.600  0.00  0.00    +0.000 A 
ATOM     16  C   UNL     1       2.138   6.634  20.106  0.00  0.00    +0.000 A 
ATOM     17  C   UNL     1       2.462   6.947  18.795  0.00  0.00    +0.000 A 
ATOM     18  I   UNL     1       2.133   8.838  17.987  0.00  0.00    +0.000 I 
ATOM     19  C   UNL     1       3.014   5.954  17.985  0.00  0.00    +0.000 A 
ATOM     20  C   UNL     1       3.271   4.651  18.463  0.00  0.00    +0.000 A 
BRANCH  14  22
ATOM     21  C   UNL     1       2.147   2.742  21.581  0.00  0.00    +0.000 C 
ATOM     22  C   UNL     1       3.248   3.013  20.534  0.00  0.00    +0.000 C 
ATOM     23  C   UNL     1       3.358   1.804  19.593  0.00  0.00    +0.000 C 
ENDBRANCH  14  22
BRANCH  16  24
ATOM     24  O   UNL     1       1.571   7.567  20.926  0.00  0.00    +0.000 OA
ATOM     25  H   UNL     1       1.555   7.234  21.837  0.00  0.00    +0.000 HD
ENDBRANCH  16  24
ENDBRANCH   1  20
TORSDOF 5
ENDMDL
MODEL 5
REMARK VINA RESULT:      -6.9      4.353      5.837
REMARK  Name = 
REMARK  7 active torsions:
REMARK  status: ('A' for Active; 'I' for Inactive)
REMARK    1  A    between atoms: C_1  and  C_2
REMARK    2  A    between atoms: C_2  and  C_3
REMARK    3  A    between atoms: C_2  and  C_4
REMARK    4  A    between atoms: C_6  and  O_7
REMARK    5  A    between atoms: C_11  and  O_12
REMARK    6  A    between atoms: O_12  and  C_13
REMARK    7  A    between atoms: C_19  and  N_20
REMARK                            x       y       z     vdW  Elec       q    Type
REMARK                         _______ _______ _______ _____ _____    ______ ____
ROOT
ATOM      1  O   UNL     1       5.505   5.492  18.705  0.00  0.00    +0.000 OA
ENDROOT
BRANCH   1   2
ATOM      2  C   UNL     1       5.861   5.249  17.418  0.00  0.00    +0.000 A 
ATOM      3  C   UNL     1       5.069   5.393  16.308  0.00  0.00    +0.000 A 
ATOM      4  N   UNL     1       5.546   5.335  15.049  0.00  0.00    +0.000 NA
ATOM      5  C   UNL     1       6.838   5.018  14.922  0.00  0.00    +0.000 A 
ATOM      6  N   UNL     1       7.422   5.203  13.685  0.00  0.00    +0.000 N 
ATOM      7  N   UNL     1       7.644   4.674  15.927  0.00  0.00    +0.000 NA
ATOM      8  C   UNL     1       7.136   4.764  17.163  0.00  0.00    +0.000 A 
ATOM      9  H   UNL     1       6.902   5.916  13.191  0.00  0.00    +0.000 HD
ATOM     10  H   UNL     1       8.408   5.385  13.824  0.00  0.00    +0.000 HD
BRANCH   8  11
ATOM     11  N   UNL     1       7.944   4.257  18.185  0.00  0.00    +0.000 N 
ATOM     12  H   UNL     1       8.187   3.295  17.967  0.00  0.00    +0.000 HD
ATOM     13  H   UNL     1       8.739   4.847  18.395  0.00  0.00    +0.000 HD
ENDBRANCH   8  11
ENDBRANCH   1   2
BRANCH   1  20
ATOM     14  C   UNL     1       3.739   3.803  19.372  0.00  0.00    +0.000 A 
ATOM     15  C   UNL     1       2.390   3.734  19.811  0.00  0.00    +0.000 A 
ATOM     16  C   UNL     1       1.654   4.865  20.159  0.00  0.00    +0.000 A 
ATOM     17  C   UNL     1       2.238   6.120  20.089  0.00  0.00    +0.000 A 
ATOM     18  I   UNL     1       1.213   7.856  20.611  0.00  0.00    +0.000 I 
ATOM     19  C   UNL     1       3.554   6.224  19.638  0.00  0.00    +0.000 A 
ATOM     20  C   UNL     1       4.314   5.092  19.271  0.00  0.00    +0.000 A 
BRANCH  14  22
ATOM     21  C   UNL     1       4.772   1.761  20.428  0.00  0.00    +0.000 C 
ATOM     22  C   UNL     1       4.414   2.459  19.099  0.00  0.00    +0.000 C 
ATOM     23  C   UNL     1       3.566   1.508  18.242  0.00  0.00    +0.000 C 
ENDBRANCH  14  22
BRANCH  16  24
ATOM     24  O   UNL     1       0.359   4.719  20.568  0.00  0.00    +0.000 OA
ATOM     25  H   UNL     1       0.085   3.795  20.460  0.00  0.00    +0.000 HD
ENDBRANCH  16  24
ENDBRANCH   1  20
TORSDOF 5
ENDMDL
MODEL 6
REMARK VINA RESULT:      -6.9      3.809      5.458
REMARK  Name = 
REMARK  7 active torsions:
REMARK  status: ('A' for Active; 'I' for Inactive)
REMARK    1  A    between atoms: C_1  and  C_2
REMARK    2  A    between atoms: C_2  and  C_3
REMARK    3  A    between atoms: C_2  and  C_4
REMARK    4  A    between atoms: C_6  and  O_7
REMARK    5  A    between atoms: C_11  and  O_12
REMARK    6  A    between atoms: O_12  and  C_13
REMARK    7  A    between atoms: C_19  and  N_20
REMARK                            x       y       z     vdW  Elec       q    Type
REMARK                         _______ _______ _______ _____ _____    ______ ____
ROOT
ATOM      1  O   UNL     1       4.541   2.707  17.095  0.00  0.00    +0.000 OA
ENDROOT
BRANCH   1   2
ATOM      2  C   UNL     1       3.606   3.202  17.944  0.00  0.00    +0.000 A 
ATOM      3  C   UNL     1       2.627   4.115  17.645  0.00  0.00    +0.000 A 
ATOM      4  N   UNL     1       1.608   4.405  18.477  0.00  0.00    +0.000 NA
ATOM      5  C   UNL     1       1.649   3.829  19.682  0.00  0.00    +0.000 A 
ATOM      6  N   UNL     1       0.509   3.889  20.457  0.00  0.00    +0.000 N 
ATOM      7  N   UNL     1       2.654   3.079  20.138  0.00  0.00    +0.000 NA
ATOM      8  C   UNL     1       3.636   2.800  19.272  0.00  0.00    +0.000 A 
ATOM      9  H   UNL     1      -0.288   3.998  19.844  0.00  0.00    +0.000 HD
ATOM     10  H   UNL     1       0.496   3.080  21.065  0.00  0.00    +0.000 HD
BRANCH   8  11
ATOM     11  N   UNL     1       4.745   2.142  19.812  0.00  0.00    +0.000 N 
ATOM     12  H   UNL     1       5.476   2.824  19.995  0.00  0.00    +0.000 HD
ATOM     13  H   UNL     1       4.516   1.558  20.606  0.00  0.00    +0.000 HD
ENDBRANCH   8  11
ENDBRANCH   1   2
BRANCH   1  20
ATOM     14  C   UNL     1       6.312   4.515  16.996  0.00  0.00    +0.000 A 
ATOM     15  C   UNL     1       7.073   5.262  16.058  0.00  0.00    +0.000 A 
ATOM     16  C   UNL     1       7.073   4.979  14.694  0.00  0.00    +0.000 A 
ATOM     17  C   UNL     1       6.313   3.928  14.205  0.00  0.00    +0.000 A 
ATOM     18  I   UNL     1       6.275   3.427  12.184  0.00  0.00    +0.000 I 
ATOM     19  C   UNL     1       5.535   3.190  15.098  0.00  0.00    +0.000 A 
ATOM     20  C   UNL     1       5.514   3.466  16.482  0.00  0.00    +0.000 A 
BRANCH  14  22
ATOM     21  C   UNL     1       7.892   5.517  18.686  0.00  0.00    +0.000 C 
ATOM     22  C   UNL     1       6.486   4.920  18.460  0.00  0.00    +0.000 C 
ATOM     23  C   UNL     1       5.429   5.921  18.951  0.00  0.00    +0.000 C 
ENDBRANCH  14  22
BRANCH  16  24
ATOM     24  O   UNL     1       7.827   5.746  13.852  0.00  0.00    +0.000 OA
ATOM     25  H   UNL     1       8.106   5.215  13.089  0.00  0.00    +0.000 HD
ENDBRANCH  16  24
ENDBRANCH   1  20
TORSDOF 5
ENDMDL
MODEL 7
REMARK VINA RESULT:      -6.9      3.992      5.786
REMARK  Name = 
REMARK  7 active torsions:
REMARK  status: ('A' for Active; 'I' for Inactive)
REMARK    1  A    between atoms: C_1  and  C_2
REMARK    2  A    between atoms: C_2  and  C_3
REMARK    3  A    between atoms: C_2  and  C_4
REMARK    4  A    between atoms: C_6  and  O_7
REMARK    5  A    between atoms: C_11  and  O_12
REMARK    6  A    between atoms: O_12  and  C_13
REMARK    7  A    between atoms: C_19  and  N_20
REMARK                            x       y       z     vdW  Elec       q    Type
REMARK                         _______ _______ _______ _____ _____    ______ ____
ROOT
ATOM      1  O   UNL     1       4.986   6.015  18.455  0.00  0.00    +0.000 OA
ENDROOT
BRANCH   1   2
ATOM      2  C   UNL     1       5.565   5.711  17.266  0.00  0.00    +0.000 A 
ATOM      3  C   UNL     1       5.071   5.993  16.018  0.00  0.00    +0.000 A 
ATOM      4  N   UNL     1       5.792   5.848  14.889  0.00  0.00    +0.000 NA
ATOM      5  C   UNL     1       7.004   5.303  15.030  0.00  0.00    +0.000 A 
ATOM      6  N   UNL     1       7.865   5.378  13.954  0.00  0.00    +0.000 N 
ATOM      7  N   UNL     1       7.499   4.820  16.170  0.00  0.00    +0.000 NA
ATOM      8  C   UNL     1       6.758   5.003  17.271  0.00  0.00    +0.000 A 
ATOM      9  H   UNL     1       7.600   6.172  13.387  0.00  0.00    +0.000 HD
ATOM     10  H   UNL     1       8.814   5.379  14.307  0.00  0.00    +0.000 HD
BRANCH   8  11
ATOM     11  N   UNL     1       7.223   4.360  18.422  0.00  0.00    +0.000 N 
ATOM     12  H   UNL     1       7.105   4.982  19.217  0.00  0.00    +0.000 HD
ATOM     13  H   UNL     1       6.824   3.439  18.555  0.00  0.00    +0.000 HD
ENDBRANCH   8  11
ENDBRANCH   1   2
BRANCH   1  20
ATOM     14  C   UNL     1       2.653   6.281  19.401  0.00  0.00    +0.000 A 
ATOM     15  C   UNL     1       1.581   5.510  19.926  0.00  0.00    +0.000 A 
ATOM     16  C   UNL     1       1.570   4.118  19.892  0.00  0.00    +0.000 A 
ATOM     17  C   UNL     1       2.630   3.431  19.322  0.00  0.00    +0.000 A 
ATOM     18  I   UNL     1       2.679   1.352  19.212  0.00  0.00    +0.000 I 
ATOM     19  C   UNL     1       3.709   4.158  18.819  0.00  0.00    +0.000 A 
ATOM     20  C   UNL     1       3.745   5.569  18.854  0.00  0.00    +0.000 A 
BRANCH  14  22
ATOM     21  C   UNL     1       2.058   8.342  18.076  0.00  0.00    +0.000 C 
ATOM     22  C   UNL     1       2.466   7.797  19.462  0.00  0.00    +0.000 C 
ATOM     23  C   UNL     1       1.434   8.249  20.505  0.00  0.00    +0.000 C 
ENDBRANCH  14  22
BRANCH  16  24
ATOM     24  O   UNL     1       0.505   3.445  20.421  0.00  0.00    +0.000 OA
ATOM     25  H   UNL     1       0.758   3.054  21.272  0.00  0.00    +0.000 HD
ENDBRANCH  16  24
ENDBRANCH   1  20
TORSDOF 5
ENDMDL
MODEL 8
REMARK VINA RESULT:      -6.7      4.574      6.451
REMARK  Name = 
REMARK  7 active torsions:
REMARK  status: ('A' for Active; 'I' for Inactive)
REMARK    1  A    between atoms: C_1  and  C_2
REMARK    2  A    between atoms: C_2  and  C_3
REMARK    3  A    between atoms: C_2  and  C_4
REMARK    4  A    between atoms: C_6  and  O_7
REMARK    5  A    between atoms: C_11  and  O_12
REMARK    6  A    between atoms: O_12  and  C_13
REMARK    7  A    between atoms: C_19  and  N_20
REMARK                            x       y       z     vdW  Elec       q    Type
REMARK                         _______ _______ _______ _____ _____    ______ ____
ROOT
ATOM      1  O   UNL     1       5.405   3.946  18.078  0.00  0.00    +0.000 OA
ENDROOT
BRANCH   1   2
ATOM      2  C   UNL     1       5.881   4.111  16.818  0.00  0.00    +0.000 A 
ATOM      3  C   UNL     1       5.175   3.975  15.651  0.00  0.00    +0.000 A 
ATOM      4  N   UNL     1       5.654   4.355  14.450  0.00  0.00    +0.000 NA
ATOM      5  C   UNL     1       6.920   4.784  14.429  0.00  0.00    +0.000 A 
ATOM      6  N   UNL     1       7.359   5.420  13.286  0.00  0.00    +0.000 N 
ATOM      7  N   UNL     1       7.749   4.774  15.474  0.00  0.00    +0.000 NA
ATOM      8  C   UNL     1       7.226   4.407  16.652  0.00  0.00    +0.000 A 
ATOM      9  H   UNL     1       6.557   5.817  12.814  0.00  0.00    +0.000 HD
ATOM     10  H   UNL     1       8.090   6.070  13.547  0.00  0.00    +0.000 HD
BRANCH   8  11
ATOM     11  N   UNL     1       8.143   4.260  17.697  0.00  0.00    +0.000 N 
ATOM     12  H   UNL     1       9.085   4.333  17.322  0.00  0.00    +0.000 HD
ATOM     13  H   UNL     1       7.960   4.876  18.479  0.00  0.00    +0.000 HD
ENDBRANCH   8  11
ENDBRANCH   1   2
BRANCH   1  20
ATOM     14  C   UNL     1       3.784   5.867  18.384  0.00  0.00    +0.000 A 
ATOM     15  C   UNL     1       2.692   6.269  19.199  0.00  0.00    +0.000 A 
ATOM     16  C   UNL     1       2.089   5.417  20.122  0.00  0.00    +0.000 A 
ATOM     17  C   UNL     1       2.548   4.118  20.267  0.00  0.00    +0.000 A 
ATOM     18  I   UNL     1       1.687   2.776  21.607  0.00  0.00    +0.000 I 
ATOM     19  C   UNL     1       3.635   3.699  19.498  0.00  0.00    +0.000 A 
ATOM     20  C   UNL     1       4.265   4.550  18.565  0.00  0.00    +0.000 A 
BRANCH  14  22
ATOM     21  C   UNL     1       3.349   8.143  17.391  0.00  0.00    +0.000 C 
ATOM     22  C   UNL     1       4.276   6.909  17.379  0.00  0.00    +0.000 C 
ATOM     23  C   UNL     1       5.723   7.363  17.622  0.00  0.00    +0.000 C 
ENDBRANCH  14  22
BRANCH  16  24
ATOM     24  O   UNL     1       1.045   5.877  20.873  0.00  0.00    +0.000 OA
ATOM     25  H   UNL     1       1.047   5.436  21.738  0.00  0.00    +0.000 HD
ENDBRANCH  16  24
ENDBRANCH   1  20
TORSDOF 5
ENDMDL
MODEL 9
REMARK VINA RESULT:      -6.7      3.352      5.414
REMARK  Name = 
REMARK  7 active torsions:
REMARK  status: ('A' for Active; 'I' for Inactive)
REMARK    1  A    between atoms: C_1  and  C_2
REMARK    2  A    between atoms: C_2  and  C_3
REMARK    3  A    between atoms: C_2  and  C_4
REMARK    4  A    between atoms: C_6  and  O_7
REMARK    5  A    between atoms: C_11  and  O_12
REMARK    6  A    between atoms: O_12  and  C_13
REMARK    7  A    between atoms: C_19  and  N_20
REMARK                            x       y       z     vdW  Elec       q    Type
REMARK                         _______ _______ _______ _____ _____    ______ ____
ROOT
ATOM      1  O   UNL     1       3.683   5.198  17.123  0.00  0.00    +0.000 OA
ENDROOT
BRANCH   1   2
ATOM      2  C   UNL     1       3.307   4.438  18.182  0.00  0.00    +0.000 A 
ATOM      3  C   UNL     1       3.271   3.068  18.237  0.00  0.00    +0.000 A 
ATOM      4  N   UNL     1       3.088   2.380  19.382  0.00  0.00    +0.000 NA
ATOM      5  C   UNL     1       2.831   3.108  20.472  0.00  0.00    +0.000 A 
ATOM      6  N   UNL     1       2.897   2.471  21.695  0.00  0.00    +0.000 N 
ATOM      7  N   UNL     1       2.656   4.431  20.487  0.00  0.00    +0.000 NA
ATOM      8  C   UNL     1       2.866   5.077  19.333  0.00  0.00    +0.000 A 
ATOM      9  H   UNL     1       3.515   1.675  21.606  0.00  0.00    +0.000 HD
ATOM     10  H   UNL     1       3.149   3.156  22.396  0.00  0.00    +0.000 HD
BRANCH   8  11
ATOM     11  N   UNL     1       2.532   6.435  19.334  0.00  0.00    +0.000 N 
ATOM     12  H   UNL     1       2.494   6.765  18.374  0.00  0.00    +0.000 HD
ATOM     13  H   UNL     1       1.704   6.642  19.876  0.00  0.00    +0.000 HD
ENDBRANCH   8  11
ENDBRANCH   1   2
BRANCH   1  20
ATOM     14  C   UNL     1       6.151   5.719  16.909  0.00  0.00    +0.000 A 
ATOM     15  C   UNL     1       7.211   5.668  15.964  0.00  0.00    +0.000 A 
ATOM     16  C   UNL     1       7.080   5.055  14.720  0.00  0.00    +0.000 A 
ATOM     17  C   UNL     1       5.881   4.459  14.365  0.00  0.00    +0.000 A 
ATOM     18  I   UNL     1       5.611   3.505  12.533  0.00  0.00    +0.000 I 
ATOM     19  C   UNL     1       4.812   4.514  15.261  0.00  0.00    +0.000 A 
ATOM     20  C   UNL     1       4.922   5.137  16.522  0.00  0.00    +0.000 A 
BRANCH  14  22
ATOM     21  C   UNL     1       6.576   5.297  19.358  0.00  0.00    +0.000 C 
ATOM     22  C   UNL     1       6.493   6.369  18.250  0.00  0.00    +0.000 C 
ATOM     23  C   UNL     1       7.801   7.174  18.228  0.00  0.00    +0.000 C 
ENDBRANCH  14  22
BRANCH  16  24
ATOM     24  O   UNL     1       8.143   5.050  13.862  0.00  0.00    +0.000 OA
ATOM     25  H   UNL     1       8.543   5.934  13.834  0.00  0.00    +0.000 HD
ENDBRANCH  16  24
ENDBRANCH   1  20
TORSDOF 5
ENDMDL
