MODEL 1
REMARK VINA RESULT:      -8.9      0.000      0.000
REMARK  Name = 
REMARK  8 active torsions:
REMARK  status: ('A' for Active; 'I' for Inactive)
REMARK    1  A    between atoms: C_1  and  N_2
REMARK    2  A    between atoms: C_3  and  C_5
REMARK    3  A    between atoms: C_5  and  C_9
REMARK    4  A    between atoms: N_6  and  O_7
REMARK    5  A    between atoms: O_7  and  C_8
REMARK    6  A    between atoms: C_14  and  C_15
REMARK    7  A    between atoms: C_15  and  O_16
REMARK    8  A    between atoms: O_16  and  C_17
REMARK                            x       y       z     vdW  Elec       q    Type
REMARK                         _______ _______ _______ _____ _____    ______ ____
ROOT
ATOM      1  C   UNL     1       5.221   5.321  16.888  0.00  0.00    +0.000 A 
ATOM      2  C   UNL     1       5.070   6.721  16.893  0.00  0.00    +0.000 A 
ATOM      3  C   UNL     1       3.897   7.317  17.350  0.00  0.00    +0.000 A 
ATOM      4  C   UNL     1       2.854   6.525  17.807  0.00  0.00    +0.000 A 
ATOM      5  C   UNL     1       2.976   5.135  17.787  0.00  0.00    +0.000 A 
ATOM      6  C   UNL     1       4.153   4.504  17.327  0.00  0.00    +0.000 A 
ENDROOT
BRANCH   1   7
ATOM      7  C   UNL     1       6.567   4.817  16.468  0.00  0.00    +0.000 C 
ATOM      8  N   UNL     1       7.566   4.492  17.247  0.00  0.00    +0.000 NA
BRANCH   7  11
ATOM      9  C   UNL     1       6.350   3.676  12.840  0.00  0.00    +0.000 C 
ATOM     10  N   UNL     1       6.118   3.979  14.228  0.00  0.00    +0.000 N 
ATOM     11  C   UNL     1       6.910   4.845  14.955  0.00  0.00    +0.000 C 
ATOM     12  O   UNL     1       7.832   5.508  14.514  0.00  0.00    +0.000 OA
ATOM     13  H   UNL     1       5.340   3.558  14.729  0.00  0.00    +0.000 HD
ENDBRANCH   7  11
BRANCH   8  14
ATOM     14  O   UNL     1       7.309   4.775  18.592  0.00  0.00    +0.000 OA
ATOM     15  C   UNL     1       8.014   5.955  18.958  0.00  0.00    +0.000 C 
ENDBRANCH   8  14
ENDBRANCH   1   7
BRANCH   6  16
ATOM     16  C   UNL     1       4.172   2.988  17.337  0.00  0.00    +0.000 C 
BRANCH  16  17
ATOM     17  O   UNL     1       2.903   2.459  17.717  0.00  0.00    +0.000 OA
BRANCH  17  18
ATOM     18  C   UNL     1       2.589   2.563  19.050  0.00  0.00    +0.000 A 
ATOM     19  C   UNL     1       1.253   2.853  19.333  0.00  0.00    +0.000 A 
ATOM     20  F   UNL     1       0.376   3.035  18.331  0.00  0.00    +0.000 F 
ATOM     21  C   UNL     1       0.789   2.982  20.645  0.00  0.00    +0.000 A 
ATOM     22  C   UNL     1       1.664   2.805  21.714  0.00  0.00    +0.000 A 
ATOM     23  C   UNL     1       2.995   2.502  21.456  0.00  0.00    +0.000 A 
ATOM     24  C   UNL     1       3.456   2.385  20.140  0.00  0.00    +0.000 A 
ATOM     25  F   UNL     1       4.746   2.082  19.980  0.00  0.00    +0.000 F 
ENDBRANCH  17  18
ENDBRANCH  16  17
ENDBRANCH   6  16
TORSDOF 6
ENDMDL
MODEL 2
REMARK VINA RESULT:      -8.7      0.571      1.703
REMARK  Name = 
REMARK  8 active torsions:
REMARK  status: ('A' for Active; 'I' for Inactive)
REMARK    1  A    between atoms: C_1  and  N_2
REMARK    2  A    between atoms: C_3  and  C_5
REMARK    3  A    between atoms: C_5  and  C_9
REMARK    4  A    between atoms: N_6  and  O_7
REMARK    5  A    between atoms: O_7  and  C_8
REMARK    6  A    between atoms: C_14  and  C_15
REMARK    7  A    between atoms: C_15  and  O_16
REMARK    8  A    between atoms: O_16  and  C_17
REMARK                            x       y       z     vdW  Elec       q    Type
REMARK                         _______ _______ _______ _____ _____    ______ ____
ROOT
ATOM      1  C   UNL     1       4.949   5.339  17.047  0.00  0.00    +0.000 A 
ATOM      2  C   UNL     1       4.918   6.729  17.272  0.00  0.00    +0.000 A 
ATOM      3  C   UNL     1       3.762   7.359  17.728  0.00  0.00    +0.000 A 
ATOM      4  C   UNL     1       2.618   6.611  17.967  0.00  0.00    +0.000 A 
ATOM      5  C   UNL     1       2.623   5.236  17.726  0.00  0.00    +0.000 A 
ATOM      6  C   UNL     1       3.780   4.572  17.261  0.00  0.00    +0.000 A 
ENDROOT
BRANCH   1   7
ATOM      7  C   UNL     1       6.281   4.777  16.656  0.00  0.00    +0.000 C 
ATOM      8  N   UNL     1       7.235   4.375  17.456  0.00  0.00    +0.000 NA
BRANCH   7  11
ATOM      9  C   UNL     1       6.198   3.698  13.004  0.00  0.00    +0.000 C 
ATOM     10  N   UNL     1       5.915   3.975  14.387  0.00  0.00    +0.000 N 
ATOM     11  C   UNL     1       6.677   4.833  15.157  0.00  0.00    +0.000 C 
ATOM     12  O   UNL     1       7.610   5.507  14.760  0.00  0.00    +0.000 OA
ATOM     13  H   UNL     1       5.123   3.542  14.853  0.00  0.00    +0.000 HD
ENDBRANCH   7  11
BRANCH   8  14
ATOM     14  O   UNL     1       6.946   4.631  18.801  0.00  0.00    +0.000 OA
ATOM     15  C   UNL     1       7.804   5.665  19.268  0.00  0.00    +0.000 C 
ENDBRANCH   8  14
ENDBRANCH   1   7
BRANCH   6  16
ATOM     16  C   UNL     1       3.670   3.079  17.023  0.00  0.00    +0.000 C 
BRANCH  16  17
ATOM     17  O   UNL     1       3.955   2.345  18.212  0.00  0.00    +0.000 OA
BRANCH  17  18
ATOM     18  C   UNL     1       3.029   2.459  19.220  0.00  0.00    +0.000 A 
ATOM     19  C   UNL     1       3.547   2.736  20.486  0.00  0.00    +0.000 A 
ATOM     20  F   UNL     1       4.875   2.849  20.660  0.00  0.00    +0.000 F 
ATOM     21  C   UNL     1       2.722   2.885  21.604  0.00  0.00    +0.000 A 
ATOM     22  C   UNL     1       1.340   2.772  21.470  0.00  0.00    +0.000 A 
ATOM     23  C   UNL     1       0.801   2.510  20.216  0.00  0.00    +0.000 A 
ATOM     24  C   UNL     1       1.634   2.351  19.103  0.00  0.00    +0.000 A 
ATOM     25  F   UNL     1       1.034   2.112  17.934  0.00  0.00    +0.000 F 
ENDBRANCH  17  18
ENDBRANCH  16  17
ENDBRANCH   6  16
TORSDOF 6
ENDMDL
MODEL 3
REMARK VINA RESULT:      -8.4      1.642      2.245
REMARK  Name = 
REMARK  8 active torsions:
REMARK  status: ('A' for Active; 'I' for Inactive)
REMARK    1  A    between atoms: C_1  and  N_2
REMARK    2  A    between atoms: C_3  and  C_5
REMARK    3  A    between atoms: C_5  and  C_9
REMARK    4  A    between atoms: N_6  and  O_7
REMARK    5  A    between atoms: O_7  and  C_8
REMARK    6  A    between atoms: C_14  and  C_15
REMARK    7  A    between atoms: C_15  and  O_16
REMARK    8  A    between atoms: O_16  and  C_17
REMARK                            x       y       z     vdW  Elec       q    Type
REMARK                         _______ _______ _______ _____ _____    ______ ____
ROOT
ATOM      1  C   UNL     1       5.016   6.070  17.313  0.00  0.00    +0.000 A 
ATOM      2  C   UNL     1       4.272   7.116  16.732  0.00  0.00    +0.000 A 
ATOM      3  C   UNL     1       3.173   7.667  17.386  0.00  0.00    +0.000 A 
ATOM      4  C   UNL     1       2.796   7.183  18.630  0.00  0.00    +0.000 A 
ATOM      5  C   UNL     1       3.506   6.130  19.211  0.00  0.00    +0.000 A 
ATOM      6  C   UNL     1       4.623   5.551  18.569  0.00  0.00    +0.000 A 
ENDROOT
BRANCH   1   7
ATOM      7  C   UNL     1       6.231   5.641  16.552  0.00  0.00    +0.000 C 
ATOM      8  N   UNL     1       7.382   6.259  16.487  0.00  0.00    +0.000 NA
BRANCH   7  11
ATOM      9  C   UNL     1       6.331   3.873  13.179  0.00  0.00    +0.000 C 
ATOM     10  N   UNL     1       6.522   4.746  14.307  0.00  0.00    +0.000 N 
ATOM     11  C   UNL     1       6.089   4.438  15.582  0.00  0.00    +0.000 C 
ATOM     12  O   UNL     1       5.576   3.387  15.925  0.00  0.00    +0.000 OA
ATOM     13  H   UNL     1       6.998   5.637  14.201  0.00  0.00    +0.000 HD
ENDBRANCH   7  11
BRANCH   8  14
ATOM     14  O   UNL     1       7.359   7.499  17.134  0.00  0.00    +0.000 OA
ATOM     15  C   UNL     1       8.114   7.404  18.337  0.00  0.00    +0.000 C 
ENDBRANCH   8  14
ENDBRANCH   1   7
BRANCH   6  16
ATOM     16  C   UNL     1       5.313   4.406  19.285  0.00  0.00    +0.000 C 
BRANCH  16  17
ATOM     17  O   UNL     1       4.777   3.148  18.880  0.00  0.00    +0.000 OA
BRANCH  17  18
ATOM     18  C   UNL     1       3.418   3.003  19.026  0.00  0.00    +0.000 A 
ATOM     19  C   UNL     1       2.983   2.663  20.308  0.00  0.00    +0.000 A 
ATOM     20  F   UNL     1       3.875   2.475  21.295  0.00  0.00    +0.000 F 
ATOM     21  C   UNL     1       1.628   2.489  20.604  0.00  0.00    +0.000 A 
ATOM     22  C   UNL     1       0.669   2.670  19.611  0.00  0.00    +0.000 A 
ATOM     23  C   UNL     1       1.079   3.023  18.331  0.00  0.00    +0.000 A 
ATOM     24  C   UNL     1       2.438   3.184  18.038  0.00  0.00    +0.000 A 
ATOM     25  F   UNL     1       2.745   3.534  16.786  0.00  0.00    +0.000 F 
ENDBRANCH  17  18
ENDBRANCH  16  17
ENDBRANCH   6  16
TORSDOF 6
ENDMDL
MODEL 4
REMARK VINA RESULT:      -8.4      1.654      1.859
REMARK  Name = 
REMARK  8 active torsions:
REMARK  status: ('A' for Active; 'I' for Inactive)
REMARK    1  A    between atoms: C_1  and  N_2
REMARK    2  A    between atoms: C_3  and  C_5
REMARK    3  A    between atoms: C_5  and  C_9
REMARK    4  A    between atoms: N_6  and  O_7
REMARK    5  A    between atoms: O_7  and  C_8
REMARK    6  A    between atoms: C_14  and  C_15
REMARK    7  A    between atoms: C_15  and  O_16
REMARK    8  A    between atoms: O_16  and  C_17
REMARK                            x       y       z     vdW  Elec       q    Type
REMARK                         _______ _______ _______ _____ _____    ______ ____
ROOT
ATOM      1  C   UNL     1       5.034   6.093  17.303  0.00  0.00    +0.000 A 
ATOM      2  C   UNL     1       4.314   7.154  16.721  0.00  0.00    +0.000 A 
ATOM      3  C   UNL     1       3.200   7.702  17.353  0.00  0.00    +0.000 A 
ATOM      4  C   UNL     1       2.785   7.198  18.576  0.00  0.00    +0.000 A 
ATOM      5  C   UNL     1       3.471   6.129  19.158  0.00  0.00    +0.000 A 
ATOM      6  C   UNL     1       4.602   5.554  18.538  0.00  0.00    +0.000 A 
ENDROOT
BRANCH   1   7
ATOM      7  C   UNL     1       6.267   5.669  16.570  0.00  0.00    +0.000 C 
ATOM      8  N   UNL     1       7.411   6.302  16.514  0.00  0.00    +0.000 NA
BRANCH   7  11
ATOM      9  C   UNL     1       6.286   3.886  13.203  0.00  0.00    +0.000 C 
ATOM     10  N   UNL     1       6.481   4.780  14.313  0.00  0.00    +0.000 N 
ATOM     11  C   UNL     1       6.158   4.450  15.615  0.00  0.00    +0.000 C 
ATOM     12  O   UNL     1       5.754   3.366  15.995  0.00  0.00    +0.000 OA
ATOM     13  H   UNL     1       6.877   5.706  14.173  0.00  0.00    +0.000 HD
ENDBRANCH   7  11
BRANCH   8  14
ATOM     14  O   UNL     1       7.361   7.550  17.143  0.00  0.00    +0.000 OA
ATOM     15  C   UNL     1       8.153   7.503  18.325  0.00  0.00    +0.000 C 
ENDBRANCH   8  14
ENDBRANCH   1   7
BRANCH   6  16
ATOM     16  C   UNL     1       5.263   4.391  19.251  0.00  0.00    +0.000 C 
BRANCH  16  17
ATOM     17  O   UNL     1       4.679   3.149  18.864  0.00  0.00    +0.000 OA
BRANCH  17  18
ATOM     18  C   UNL     1       3.352   2.988  19.185  0.00  0.00    +0.000 A 
ATOM     19  C   UNL     1       2.457   3.102  18.120  0.00  0.00    +0.000 A 
ATOM     20  F   UNL     1       2.909   3.377  16.885  0.00  0.00    +0.000 F 
ATOM     21  C   UNL     1       1.078   2.955  18.298  0.00  0.00    +0.000 A 
ATOM     22  C   UNL     1       0.565   2.673  19.562  0.00  0.00    +0.000 A 
ATOM     23  C   UNL     1       1.440   2.542  20.634  0.00  0.00    +0.000 A 
ATOM     24  C   UNL     1       2.818   2.701  20.451  0.00  0.00    +0.000 A 
ATOM     25  F   UNL     1       3.588   2.548  21.530  0.00  0.00    +0.000 F 
ENDBRANCH  17  18
ENDBRANCH  16  17
ENDBRANCH   6  16
TORSDOF 6
ENDMDL
MODEL 5
REMARK VINA RESULT:      -8.4      1.968      2.621
REMARK  Name = 
REMARK  8 active torsions:
REMARK  status: ('A' for Active; 'I' for Inactive)
REMARK    1  A    between atoms: C_1  and  N_2
REMARK    2  A    between atoms: C_3  and  C_5
REMARK    3  A    between atoms: C_5  and  C_9
REMARK    4  A    between atoms: N_6  and  O_7
REMARK    5  A    between atoms: O_7  and  C_8
REMARK    6  A    between atoms: C_14  and  C_15
REMARK    7  A    between atoms: C_15  and  O_16
REMARK    8  A    between atoms: O_16  and  C_17
REMARK                            x       y       z     vdW  Elec       q    Type
REMARK                         _______ _______ _______ _____ _____    ______ ____
ROOT
ATOM      1  C   UNL     1       5.313   6.527  17.611  0.00  0.00    +0.000 A 
ATOM      2  C   UNL     1       4.454   7.447  16.980  0.00  0.00    +0.000 A 
ATOM      3  C   UNL     1       3.180   7.703  17.481  0.00  0.00    +0.000 A 
ATOM      4  C   UNL     1       2.741   7.043  18.619  0.00  0.00    +0.000 A 
ATOM      5  C   UNL     1       3.569   6.108  19.244  0.00  0.00    +0.000 A 
ATOM      6  C   UNL     1       4.865   5.828  18.756  0.00  0.00    +0.000 A 
ENDROOT
BRANCH   1   7
ATOM      7  C   UNL     1       6.688   6.423  17.029  0.00  0.00    +0.000 C 
ATOM      8  N   UNL     1       7.631   7.330  17.063  0.00  0.00    +0.000 NA
BRANCH   7  11
ATOM      9  C   UNL     1       6.319   4.182  13.971  0.00  0.00    +0.000 C 
ATOM     10  N   UNL     1       6.348   5.270  14.913  0.00  0.00    +0.000 N 
ATOM     11  C   UNL     1       7.002   5.200  16.128  0.00  0.00    +0.000 C 
ATOM     12  O   UNL     1       7.687   4.270  16.515  0.00  0.00    +0.000 OA
ATOM     13  H   UNL     1       5.879   6.148  14.709  0.00  0.00    +0.000 HD
ENDBRANCH   7  11
BRANCH   8  14
ATOM     14  O   UNL     1       7.193   8.534  17.624  0.00  0.00    +0.000 OA
ATOM     15  C   UNL     1       8.322   9.261  18.093  0.00  0.00    +0.000 C 
ENDBRANCH   8  14
ENDBRANCH   1   7
BRANCH   6  16
ATOM     16  C   UNL     1       5.673   4.787  19.505  0.00  0.00    +0.000 C 
BRANCH  16  17
ATOM     17  O   UNL     1       5.493   3.490  18.940  0.00  0.00    +0.000 OA
BRANCH  17  18
ATOM     18  C   UNL     1       4.191   3.109  18.723  0.00  0.00    +0.000 A 
ATOM     19  C   UNL     1       3.529   2.569  19.827  0.00  0.00    +0.000 A 
ATOM     20  F   UNL     1       4.175   2.428  20.996  0.00  0.00    +0.000 F 
ATOM     21  C   UNL     1       2.200   2.145  19.754  0.00  0.00    +0.000 A 
ATOM     22  C   UNL     1       1.493   2.269  18.560  0.00  0.00    +0.000 A 
ATOM     23  C   UNL     1       2.128   2.816  17.452  0.00  0.00    +0.000 A 
ATOM     24  C   UNL     1       3.463   3.229  17.528  0.00  0.00    +0.000 A 
ATOM     25  F   UNL     1       3.994   3.754  16.421  0.00  0.00    +0.000 F 
ENDBRANCH  17  18
ENDBRANCH  16  17
ENDBRANCH   6  16
TORSDOF 6
ENDMDL
MODEL 6
REMARK VINA RESULT:      -8.3      2.805      4.742
REMARK  Name = 
REMARK  8 active torsions:
REMARK  status: ('A' for Active; 'I' for Inactive)
REMARK    1  A    between atoms: C_1  and  N_2
REMARK    2  A    between atoms: C_3  and  C_5
REMARK    3  A    between atoms: C_5  and  C_9
REMARK    4  A    between atoms: N_6  and  O_7
REMARK    5  A    between atoms: O_7  and  C_8
REMARK    6  A    between atoms: C_14  and  C_15
REMARK    7  A    between atoms: C_15  and  O_16
REMARK    8  A    between atoms: O_16  and  C_17
REMARK                            x       y       z     vdW  Elec       q    Type
REMARK                         _______ _______ _______ _____ _____    ______ ____
ROOT
ATOM      1  C   UNL     1       5.165   4.571  16.992  0.00  0.00    +0.000 A 
ATOM      2  C   UNL     1       5.698   3.663  16.058  0.00  0.00    +0.000 A 
ATOM      3  C   UNL     1       5.971   4.052  14.749  0.00  0.00    +0.000 A 
ATOM      4  C   UNL     1       5.713   5.356  14.350  0.00  0.00    +0.000 A 
ATOM      5  C   UNL     1       5.161   6.264  15.255  0.00  0.00    +0.000 A 
ATOM      6  C   UNL     1       4.873   5.895  16.588  0.00  0.00    +0.000 A 
ENDROOT
BRANCH   1   7
ATOM      7  C   UNL     1       5.016   4.050  18.388  0.00  0.00    +0.000 C 
ATOM      8  N   UNL     1       5.914   4.073  19.339  0.00  0.00    +0.000 NA
BRANCH   7  11
ATOM      9  C   UNL     1       1.291   3.254  18.348  0.00  0.00    +0.000 C 
ATOM     10  N   UNL     1       2.626   3.716  18.073  0.00  0.00    +0.000 N 
ATOM     11  C   UNL     1       3.744   3.228  18.722  0.00  0.00    +0.000 C 
ATOM     12  O   UNL     1       3.756   2.316  19.529  0.00  0.00    +0.000 OA
ATOM     13  H   UNL     1       2.794   4.431  17.370  0.00  0.00    +0.000 HD
ENDBRANCH   7  11
BRANCH   8  14
ATOM     14  O   UNL     1       7.151   4.551  18.894  0.00  0.00    +0.000 OA
ATOM     15  C   UNL     1       7.439   5.775  19.560  0.00  0.00    +0.000 C 
ENDBRANCH   8  14
ENDBRANCH   1   7
BRANCH   6  16
ATOM     16  C   UNL     1       4.264   6.957  17.482  0.00  0.00    +0.000 C 
BRANCH  16  17
ATOM     17  O   UNL     1       2.873   6.721  17.691  0.00  0.00    +0.000 OA
BRANCH  17  18
ATOM     18  C   UNL     1       2.295   7.426  18.718  0.00  0.00    +0.000 A 
ATOM     19  C   UNL     1       1.824   8.698  18.385  0.00  0.00    +0.000 A 
ATOM     20  F   UNL     1       1.973   9.165  17.134  0.00  0.00    +0.000 F 
ATOM     21  C   UNL     1       1.208   9.525  19.328  0.00  0.00    +0.000 A 
ATOM     22  C   UNL     1       1.037   9.082  20.638  0.00  0.00    +0.000 A 
ATOM     23  C   UNL     1       1.487   7.815  20.988  0.00  0.00    +0.000 A 
ATOM     24  C   UNL     1       2.113   6.995  20.041  0.00  0.00    +0.000 A 
ATOM     25  F   UNL     1       2.505   5.789  20.458  0.00  0.00    +0.000 F 
ENDBRANCH  17  18
ENDBRANCH  16  17
ENDBRANCH   6  16
TORSDOF 6
ENDMDL
MODEL 7
REMARK VINA RESULT:      -8.2      2.812      4.218
REMARK  Name = 
REMARK  8 active torsions:
REMARK  status: ('A' for Active; 'I' for Inactive)
REMARK    1  A    between atoms: C_1  and  N_2
REMARK    2  A    between atoms: C_3  and  C_5
REMARK    3  A    between atoms: C_5  and  C_9
REMARK    4  A    between atoms: N_6  and  O_7
REMARK    5  A    between atoms: O_7  and  C_8
REMARK    6  A    between atoms: C_14  and  C_15
REMARK    7  A    between atoms: C_15  and  O_16
REMARK    8  A    between atoms: O_16  and  C_17
REMARK                            x       y       z     vdW  Elec       q    Type
REMARK                         _______ _______ _______ _____ _____    ______ ____
ROOT
ATOM      1  C   UNL     1       4.234   3.995  17.450  0.00  0.00    +0.000 A 
ATOM      2  C   UNL     1       3.910   2.627  17.361  0.00  0.00    +0.000 A 
ATOM      3  C   UNL     1       2.658   2.156  17.752  0.00  0.00    +0.000 A 
ATOM      4  C   UNL     1       1.710   3.043  18.240  0.00  0.00    +0.000 A 
ATOM      5  C   UNL     1       2.022   4.399  18.359  0.00  0.00    +0.000 A 
ATOM      6  C   UNL     1       3.284   4.903  17.972  0.00  0.00    +0.000 A 
ENDROOT
BRANCH   1   7
ATOM      7  C   UNL     1       5.573   4.378  16.903  0.00  0.00    +0.000 C 
ATOM      8  N   UNL     1       6.676   4.575  17.578  0.00  0.00    +0.000 NA
BRANCH   7  11
ATOM      9  C   UNL     1       6.382   3.848  13.218  0.00  0.00    +0.000 C 
ATOM     10  N   UNL     1       6.049   3.709  14.611  0.00  0.00    +0.000 N 
ATOM     11  C   UNL     1       5.656   4.770  15.404  0.00  0.00    +0.000 C 
ATOM     12  O   UNL     1       5.467   5.912  15.022  0.00  0.00    +0.000 OA
ATOM     13  H   UNL     1       6.090   2.803  15.068  0.00  0.00    +0.000 HD
ENDBRANCH   7  11
BRANCH   8  14
ATOM     14  O   UNL     1       6.474   4.506  18.961  0.00  0.00    +0.000 OA
ATOM     15  C   UNL     1       7.142   5.600  19.579  0.00  0.00    +0.000 C 
ENDBRANCH   8  14
ENDBRANCH   1   7
BRANCH   6  16
ATOM     16  C   UNL     1       3.518   6.390  18.156  0.00  0.00    +0.000 C 
BRANCH  16  17
ATOM     17  O   UNL     1       2.325   7.133  17.916  0.00  0.00    +0.000 OA
BRANCH  17  18
ATOM     18  C   UNL     1       1.896   7.923  18.955  0.00  0.00    +0.000 A 
ATOM     19  C   UNL     1       1.556   9.234  18.614  0.00  0.00    +0.000 A 
ATOM     20  F   UNL     1       1.683   9.654  17.344  0.00  0.00    +0.000 F 
ATOM     21  C   UNL     1       1.099  10.148  19.567  0.00  0.00    +0.000 A 
ATOM     22  C   UNL     1       0.957   9.756  20.897  0.00  0.00    +0.000 A 
ATOM     23  C   UNL     1       1.276   8.452  21.255  0.00  0.00    +0.000 A 
ATOM     24  C   UNL     1       1.744   7.545  20.298  0.00  0.00    +0.000 A 
ATOM     25  F   UNL     1       2.018   6.310  20.725  0.00  0.00    +0.000 F 
ENDBRANCH  17  18
ENDBRANCH  16  17
ENDBRANCH   6  16
TORSDOF 6
ENDMDL
MODEL 8
REMARK VINA RESULT:      -8.2      0.906      2.628
REMARK  Name = 
REMARK  8 active torsions:
REMARK  status: ('A' for Active; 'I' for Inactive)
REMARK    1  A    between atoms: C_1  and  N_2
REMARK    2  A    between atoms: C_3  and  C_5
REMARK    3  A    between atoms: C_5  and  C_9
REMARK    4  A    between atoms: N_6  and  O_7
REMARK    5  A    between atoms: O_7  and  C_8
REMARK    6  A    between atoms: C_14  and  C_15
REMARK    7  A    between atoms: C_15  and  O_16
REMARK    8  A    between atoms: O_16  and  C_17
REMARK                            x       y       z     vdW  Elec       q    Type
REMARK                         _______ _______ _______ _____ _____    ______ ____
ROOT
ATOM      1  C   UNL     1       5.018   5.564  17.025  0.00  0.00    +0.000 A 
ATOM      2  C   UNL     1       4.786   6.951  17.099  0.00  0.00    +0.000 A 
ATOM      3  C   UNL     1       3.566   7.455  17.544  0.00  0.00    +0.000 A 
ATOM      4  C   UNL     1       2.556   6.582  17.921  0.00  0.00    +0.000 A 
ATOM      5  C   UNL     1       2.759   5.204  17.831  0.00  0.00    +0.000 A 
ATOM      6  C   UNL     1       3.985   4.666  17.382  0.00  0.00    +0.000 A 
ENDROOT
BRANCH   1   7
ATOM      7  C   UNL     1       6.403   5.160  16.629  0.00  0.00    +0.000 C 
ATOM      8  N   UNL     1       6.831   4.883  15.424  0.00  0.00    +0.000 NA
BRANCH   7  11
ATOM      9  C   UNL     1       8.099   5.669  20.002  0.00  0.00    +0.000 C 
ATOM     10  N   UNL     1       7.195   5.625  18.883  0.00  0.00    +0.000 N 
ATOM     11  C   UNL     1       7.419   4.852  17.761  0.00  0.00    +0.000 C 
ATOM     12  O   UNL     1       8.340   4.069  17.607  0.00  0.00    +0.000 OA
ATOM     13  H   UNL     1       6.338   6.172  18.885  0.00  0.00    +0.000 HD
ENDBRANCH   7  11
BRANCH   8  14
ATOM     14  O   UNL     1       5.800   4.880  14.479  0.00  0.00    +0.000 OA
ATOM     15  C   UNL     1       6.040   3.841  13.537  0.00  0.00    +0.000 C 
ENDBRANCH   8  14
ENDBRANCH   1   7
BRANCH   6  16
ATOM     16  C   UNL     1       4.091   3.155  17.313  0.00  0.00    +0.000 C 
BRANCH  16  17
ATOM     17  O   UNL     1       2.870   2.534  17.708  0.00  0.00    +0.000 OA
BRANCH  17  18
ATOM     18  C   UNL     1       2.576   2.595  19.049  0.00  0.00    +0.000 A 
ATOM     19  C   UNL     1       1.235   2.823  19.362  0.00  0.00    +0.000 A 
ATOM     20  F   UNL     1       0.333   2.991  18.380  0.00  0.00    +0.000 F 
ATOM     21  C   UNL     1       0.791   2.904  20.684  0.00  0.00    +0.000 A 
ATOM     22  C   UNL     1       1.692   2.740  21.734  0.00  0.00    +0.000 A 
ATOM     23  C   UNL     1       3.030   2.498  21.445  0.00  0.00    +0.000 A 
ATOM     24  C   UNL     1       3.470   2.430  20.118  0.00  0.00    +0.000 A 
ATOM     25  F   UNL     1       4.769   2.184  19.929  0.00  0.00    +0.000 F 
ENDBRANCH  17  18
ENDBRANCH  16  17
ENDBRANCH   6  16
TORSDOF 6
ENDMDL
MODEL 9
REMARK VINA RESULT:      -8.2      2.828      4.469
REMARK  Name = 
REMARK  8 active torsions:
REMARK  status: ('A' for Active; 'I' for Inactive)
REMARK    1  A    between atoms: C_1  and  N_2
REMARK    2  A    between atoms: C_3  and  C_5
REMARK    3  A    between atoms: C_5  and  C_9
REMARK    4  A    between atoms: N_6  and  O_7
REMARK    5  A    between atoms: O_7  and  C_8
REMARK    6  A    between atoms: C_14  and  C_15
REMARK    7  A    between atoms: C_15  and  O_16
REMARK    8  A    between atoms: O_16  and  C_17
REMARK                            x       y       z     vdW  Elec       q    Type
REMARK                         _______ _______ _______ _____ _____    ______ ____
ROOT
ATOM      1  C   UNL     1       4.138   4.016  17.407  0.00  0.00    +0.000 A 
ATOM      2  C   UNL     1       3.849   2.638  17.401  0.00  0.00    +0.000 A 
ATOM      3  C   UNL     1       2.596   2.163  17.780  0.00  0.00    +0.000 A 
ATOM      4  C   UNL     1       1.610   3.056  18.174  0.00  0.00    +0.000 A 
ATOM      5  C   UNL     1       1.886   4.425  18.210  0.00  0.00    +0.000 A 
ATOM      6  C   UNL     1       3.149   4.933  17.833  0.00  0.00    +0.000 A 
ENDROOT
BRANCH   1   7
ATOM      7  C   UNL     1       5.486   4.396  16.880  0.00  0.00    +0.000 C 
ATOM      8  N   UNL     1       6.576   4.606  17.575  0.00  0.00    +0.000 NA
BRANCH   7  11
ATOM      9  C   UNL     1       6.306   3.790  13.210  0.00  0.00    +0.000 C 
ATOM     10  N   UNL     1       5.957   3.681  14.602  0.00  0.00    +0.000 N 
ATOM     11  C   UNL     1       5.598   4.766  15.378  0.00  0.00    +0.000 C 
ATOM     12  O   UNL     1       5.457   5.909  14.981  0.00  0.00    +0.000 OA
ATOM     13  H   UNL     1       5.958   2.779  15.069  0.00  0.00    +0.000 HD
ENDBRANCH   7  11
BRANCH   8  14
ATOM     14  O   UNL     1       6.347   4.557  18.954  0.00  0.00    +0.000 OA
ATOM     15  C   UNL     1       7.128   5.564  19.586  0.00  0.00    +0.000 C 
ENDBRANCH   8  14
ENDBRANCH   1   7
BRANCH   6  16
ATOM     16  C   UNL     1       3.342   6.434  17.922  0.00  0.00    +0.000 C 
BRANCH  16  17
ATOM     17  O   UNL     1       3.000   6.922  19.218  0.00  0.00    +0.000 OA
BRANCH  17  18
ATOM     18  C   UNL     1       2.117   7.975  19.245  0.00  0.00    +0.000 A 
ATOM     19  C   UNL     1       1.442   8.164  20.452  0.00  0.00    +0.000 A 
ATOM     20  F   UNL     1       1.658   7.330  21.482  0.00  0.00    +0.000 F 
ATOM     21  C   UNL     1       0.519   9.199  20.625  0.00  0.00    +0.000 A 
ATOM     22  C   UNL     1       0.261  10.085  19.582  0.00  0.00    +0.000 A 
ATOM     23  C   UNL     1       0.932   9.923  18.376  0.00  0.00    +0.000 A 
ATOM     24  C   UNL     1       1.847   8.878  18.205  0.00  0.00    +0.000 A 
ATOM     25  F   UNL     1       2.455   8.801  17.019  0.00  0.00    +0.000 F 
ENDBRANCH  17  18
ENDBRANCH  16  17
ENDBRANCH   6  16
TORSDOF 6
ENDMDL
