MODEL 1
REMARK VINA RESULT:      -7.0      0.000      0.000
REMARK  Name = 
REMARK  10 active torsions:
REMARK  status: ('A' for Active; 'I' for Inactive)
REMARK    1  A    between atoms: C_1  and  C_2
REMARK    2  A    between atoms: C_2  and  C_3
REMARK    3  A    between atoms: C_3  and  C_4
REMARK    4  A    between atoms: C_8  and  O_9
REMARK    5  A    between atoms: O_9  and  C_10
REMARK    6  A    between atoms: C_10  and  C_11
REMARK    7  A    between atoms: C_17  and  C_18
REMARK    8  A    between atoms: C_23  and  O_24
REMARK    9  A    between atoms: O_24  and  C_25
REMARK   10  A    between atoms: C_25  and  C_26
REMARK                            x       y       z     vdW  Elec       q    Type
REMARK                         _______ _______ _______ _____ _____    ______ ____
ROOT
ATOM      1  C   UNL     1      -0.497  11.602  18.816  0.00  0.00    +0.000 C 
ATOM      2  C   UNL     1       0.901  11.060  18.411  0.00  0.00    +0.000 C 
ATOM      3  C   UNL     1       1.227   9.711  18.983  0.00  0.00    +0.000 A 
ATOM      4  C   UNL     1       2.064   8.824  18.277  0.00  0.00    +0.000 A 
ATOM      5  C   UNL     1       2.407   7.588  18.830  0.00  0.00    +0.000 A 
ATOM      6  C   UNL     1       1.907   7.238  20.076  0.00  0.00    +0.000 A 
ATOM      7  C   UNL     1       1.053   8.117  20.763  0.00  0.00    +0.000 A 
ATOM      8  C   UNL     1       0.730   9.379  20.251  0.00  0.00    +0.000 A 
ATOM      9  C   UNL     1      -0.142  10.347  20.953  0.00  0.00    +0.000 A 
ATOM     10  C   UNL     1      -0.575  10.422  22.276  0.00  0.00    +0.000 A 
ATOM     11  C   UNL     1      -1.585  11.428  22.343  0.00  0.00    +0.000 A 
ATOM     12  C   UNL     1      -2.440  11.852  23.390  0.00  0.00    +0.000 A 
ATOM     13  C   UNL     1      -3.365  12.872  23.185  0.00  0.00    +0.000 A 
ATOM     14  C   UNL     1      -3.431  13.497  21.951  0.00  0.00    +0.000 A 
ATOM     15  C   UNL     1      -2.589  13.116  20.900  0.00  0.00    +0.000 A 
ATOM     16  C   UNL     1      -1.662  12.058  21.093  0.00  0.00    +0.000 A 
ATOM     17  N   UNL     1      -0.735  11.421  20.267  0.00  0.00    +0.000 N 
ENDROOT
BRANCH  10  18
ATOM     18  C   UNL     1      -0.122   9.609  23.395  0.00  0.00    +0.000 C 
ATOM     19  O   UNL     1       1.022   9.622  23.843  0.00  0.00    +0.000 OA
ENDBRANCH  10  18
BRANCH   1  20
ATOM     20  C   UNL     1      -0.604  13.046  18.275  0.00  0.00    +0.000 C 
BRANCH  20  22
ATOM     21  C   UNL     1      -0.045  15.444  18.774  0.00  0.00    +0.000 C 
ATOM     22  C   UNL     1       0.464  14.010  18.811  0.00  0.00    +0.000 C 
ENDBRANCH  20  22
ENDBRANCH   1  20
BRANCH   5  23
ATOM     23  O   UNL     1       3.236   6.761  18.025  0.00  0.00    +0.000 OA
BRANCH  23  24
ATOM     24  C   UNL     1       3.507   5.405  18.255  0.00  0.00    +0.000 C 
ATOM     25  C   UNL     1       2.400   4.544  17.714  0.00  0.00    +0.000 C 
ATOM     26  O   UNL     1       4.474   4.945  18.839  0.00  0.00    +0.000 OA
ENDBRANCH  23  24
ENDBRANCH   5  23
BRANCH  14  27
ATOM     27  O   UNL     1      -4.425  14.514  21.856  0.00  0.00    +0.000 OA
BRANCH  27  28
ATOM     28  C   UNL     1      -5.461  14.630  20.922  0.00  0.00    +0.000 C 
ATOM     29  C   UNL     1      -6.444  13.513  21.146  0.00  0.00    +0.000 C 
ATOM     30  O   UNL     1      -5.592  15.498  20.073  0.00  0.00    +0.000 OA
ENDBRANCH  27  28
ENDBRANCH  14  27
TORSDOF 7
ENDMDL
MODEL 2
REMARK VINA RESULT:      -6.8      1.665      8.327
REMARK  Name = 
REMARK  10 active torsions:
REMARK  status: ('A' for Active; 'I' for Inactive)
REMARK    1  A    between atoms: C_1  and  C_2
REMARK    2  A    between atoms: C_2  and  C_3
REMARK    3  A    between atoms: C_3  and  C_4
REMARK    4  A    between atoms: C_8  and  O_9
REMARK    5  A    between atoms: O_9  and  C_10
REMARK    6  A    between atoms: C_10  and  C_11
REMARK    7  A    between atoms: C_17  and  C_18
REMARK    8  A    between atoms: C_23  and  O_24
REMARK    9  A    between atoms: O_24  and  C_25
REMARK   10  A    between atoms: C_25  and  C_26
REMARK                            x       y       z     vdW  Elec       q    Type
REMARK                         _______ _______ _______ _____ _____    ______ ____
ROOT
ATOM      1  C   UNL     1      -1.147  11.786  18.847  0.00  0.00    +0.000 C 
ATOM      2  C   UNL     1      -2.477  12.429  19.327  0.00  0.00    +0.000 C 
ATOM      3  C   UNL     1      -2.462  12.877  20.759  0.00  0.00    +0.000 A 
ATOM      4  C   UNL     1      -3.238  13.982  21.165  0.00  0.00    +0.000 A 
ATOM      5  C   UNL     1      -3.263  14.370  22.507  0.00  0.00    +0.000 A 
ATOM      6  C   UNL     1      -2.508  13.666  23.434  0.00  0.00    +0.000 A 
ATOM      7  C   UNL     1      -1.716  12.582  23.016  0.00  0.00    +0.000 A 
ATOM      8  C   UNL     1      -1.709  12.145  21.686  0.00  0.00    +0.000 A 
ATOM      9  C   UNL     1      -0.913  10.992  21.210  0.00  0.00    +0.000 A 
ATOM     10  C   UNL     1      -0.284   9.950  21.889  0.00  0.00    +0.000 A 
ATOM     11  C   UNL     1       0.533   9.253  20.948  0.00  0.00    +0.000 A 
ATOM     12  C   UNL     1       1.464   8.195  21.094  0.00  0.00    +0.000 A 
ATOM     13  C   UNL     1       2.149   7.693  19.991  0.00  0.00    +0.000 A 
ATOM     14  C   UNL     1       1.897   8.216  18.734  0.00  0.00    +0.000 A 
ATOM     15  C   UNL     1       0.970   9.248  18.551  0.00  0.00    +0.000 A 
ATOM     16  C   UNL     1       0.287   9.784  19.674  0.00  0.00    +0.000 A 
ATOM     17  N   UNL     1      -0.641  10.812  19.843  0.00  0.00    +0.000 N 
ENDROOT
BRANCH  10  18
ATOM     18  C   UNL     1      -0.393   9.632  23.305  0.00  0.00    +0.000 C 
ATOM     19  O   UNL     1       0.551   9.629  24.090  0.00  0.00    +0.000 OA
ENDBRANCH  10  18
BRANCH   1  20
ATOM     20  C   UNL     1      -1.385  11.249  17.418  0.00  0.00    +0.000 C 
BRANCH  20  22
ATOM     21  C   UNL     1      -2.832   9.933  15.841  0.00  0.00    +0.000 C 
ATOM     22  C   UNL     1      -2.521  10.223  17.302  0.00  0.00    +0.000 C 
ENDBRANCH  20  22
ENDBRANCH   1  20
BRANCH   5  23
ATOM     23  O   UNL     1      -4.059  15.509  22.804  0.00  0.00    +0.000 OA
BRANCH  23  24
ATOM     24  C   UNL     1      -4.948  15.626  23.882  0.00  0.00    +0.000 C 
ATOM     25  C   UNL     1      -6.128  14.714  23.698  0.00  0.00    +0.000 C 
ATOM     26  O   UNL     1      -4.838  16.376  24.838  0.00  0.00    +0.000 OA
ENDBRANCH  23  24
ENDBRANCH   5  23
BRANCH  14  27
ATOM     27  O   UNL     1       2.669   7.633  17.687  0.00  0.00    +0.000 OA
BRANCH  27  28
ATOM     28  C   UNL     1       3.256   6.363  17.646  0.00  0.00    +0.000 C 
ATOM     29  C   UNL     1       4.743   6.520  17.488  0.00  0.00    +0.000 C 
ATOM     30  O   UNL     1       2.688   5.286  17.749  0.00  0.00    +0.000 OA
ENDBRANCH  27  28
ENDBRANCH  14  27
TORSDOF 7
ENDMDL
MODEL 3
REMARK VINA RESULT:      -6.8      1.453      1.894
REMARK  Name = 
REMARK  10 active torsions:
REMARK  status: ('A' for Active; 'I' for Inactive)
REMARK    1  A    between atoms: C_1  and  C_2
REMARK    2  A    between atoms: C_2  and  C_3
REMARK    3  A    between atoms: C_3  and  C_4
REMARK    4  A    between atoms: C_8  and  O_9
REMARK    5  A    between atoms: O_9  and  C_10
REMARK    6  A    between atoms: C_10  and  C_11
REMARK    7  A    between atoms: C_17  and  C_18
REMARK    8  A    between atoms: C_23  and  O_24
REMARK    9  A    between atoms: O_24  and  C_25
REMARK   10  A    between atoms: C_25  and  C_26
REMARK                            x       y       z     vdW  Elec       q    Type
REMARK                         _______ _______ _______ _____ _____    ______ ____
ROOT
ATOM      1  C   UNL     1      -0.695  10.450  18.445  0.00  0.00    +0.000 C 
ATOM      2  C   UNL     1       0.649   9.992  17.814  0.00  0.00    +0.000 C 
ATOM      3  C   UNL     1       1.299   8.839  18.523  0.00  0.00    +0.000 A 
ATOM      4  C   UNL     1       2.090   7.920  17.805  0.00  0.00    +0.000 A 
ATOM      5  C   UNL     1       2.735   6.875  18.471  0.00  0.00    +0.000 A 
ATOM      6  C   UNL     1       2.581   6.744  19.843  0.00  0.00    +0.000 A 
ATOM      7  C   UNL     1       1.769   7.650  20.548  0.00  0.00    +0.000 A 
ATOM      8  C   UNL     1       1.149   8.731  19.912  0.00  0.00    +0.000 A 
ATOM      9  C   UNL     1       0.310   9.724  20.620  0.00  0.00    +0.000 A 
ATOM     10  C   UNL     1       0.170  10.030  21.972  0.00  0.00    +0.000 A 
ATOM     11  C   UNL     1      -0.947  10.910  22.102  0.00  0.00    +0.000 A 
ATOM     12  C   UNL     1      -1.608  11.450  23.233  0.00  0.00    +0.000 A 
ATOM     13  C   UNL     1      -2.704  12.295  23.080  0.00  0.00    +0.000 A 
ATOM     14  C   UNL     1      -3.134  12.632  21.808  0.00  0.00    +0.000 A 
ATOM     15  C   UNL     1      -2.493  12.132  20.670  0.00  0.00    +0.000 A 
ATOM     16  C   UNL     1      -1.392  11.247  20.817  0.00  0.00    +0.000 A 
ATOM     17  N   UNL     1      -0.579  10.556  19.918  0.00  0.00    +0.000 N 
ENDROOT
BRANCH  10  18
ATOM     18  C   UNL     1       0.978   9.528  23.074  0.00  0.00    +0.000 C 
ATOM     19  O   UNL     1       0.601   9.476  24.242  0.00  0.00    +0.000 OA
ENDBRANCH  10  18
BRANCH   1  20
ATOM     20  C   UNL     1      -1.143  11.726  17.695  0.00  0.00    +0.000 C 
BRANCH  20  22
ATOM     21  C   UNL     1      -2.835  10.129  16.747  0.00  0.00    +0.000 C 
ATOM     22  C   UNL     1      -2.481  11.595  16.955  0.00  0.00    +0.000 C 
ENDBRANCH  20  22
ENDBRANCH   1  20
BRANCH   5  23
ATOM     23  O   UNL     1       3.488   5.993  17.650  0.00  0.00    +0.000 OA
BRANCH  23  24
ATOM     24  C   UNL     1       3.427   4.592  17.684  0.00  0.00    +0.000 C 
ATOM     25  C   UNL     1       2.004   4.121  17.570  0.00  0.00    +0.000 C 
ATOM     26  O   UNL     1       4.366   3.827  17.822  0.00  0.00    +0.000 OA
ENDBRANCH  23  24
ENDBRANCH   5  23
BRANCH  14  27
ATOM     27  O   UNL     1      -4.272  13.490  21.778  0.00  0.00    +0.000 OA
BRANCH  27  28
ATOM     28  C   UNL     1      -5.532  13.280  22.351  0.00  0.00    +0.000 C 
ATOM     29  C   UNL     1      -5.914  14.497  23.147  0.00  0.00    +0.000 C 
ATOM     30  O   UNL     1      -6.245  12.296  22.219  0.00  0.00    +0.000 OA
ENDBRANCH  27  28
ENDBRANCH  14  27
TORSDOF 7
ENDMDL
MODEL 4
REMARK VINA RESULT:      -6.8      0.937      1.153
REMARK  Name = 
REMARK  10 active torsions:
REMARK  status: ('A' for Active; 'I' for Inactive)
REMARK    1  A    between atoms: C_1  and  C_2
REMARK    2  A    between atoms: C_2  and  C_3
REMARK    3  A    between atoms: C_3  and  C_4
REMARK    4  A    between atoms: C_8  and  O_9
REMARK    5  A    between atoms: O_9  and  C_10
REMARK    6  A    between atoms: C_10  and  C_11
REMARK    7  A    between atoms: C_17  and  C_18
REMARK    8  A    between atoms: C_23  and  O_24
REMARK    9  A    between atoms: O_24  and  C_25
REMARK   10  A    between atoms: C_25  and  C_26
REMARK                            x       y       z     vdW  Elec       q    Type
REMARK                         _______ _______ _______ _____ _____    ______ ____
ROOT
ATOM      1  C   UNL     1      -0.443  11.471  18.789  0.00  0.00    +0.000 C 
ATOM      2  C   UNL     1       0.948  10.911  18.384  0.00  0.00    +0.000 C 
ATOM      3  C   UNL     1       1.268   9.571  18.979  0.00  0.00    +0.000 A 
ATOM      4  C   UNL     1       2.093   8.663  18.284  0.00  0.00    +0.000 A 
ATOM      5  C   UNL     1       2.432   7.435  18.858  0.00  0.00    +0.000 A 
ATOM      6  C   UNL     1       1.939   7.113  20.115  0.00  0.00    +0.000 A 
ATOM      7  C   UNL     1       1.097   8.012  20.791  0.00  0.00    +0.000 A 
ATOM      8  C   UNL     1       0.779   9.267  20.257  0.00  0.00    +0.000 A 
ATOM      9  C   UNL     1      -0.080  10.254  20.947  0.00  0.00    +0.000 A 
ATOM     10  C   UNL     1      -0.501  10.358  22.272  0.00  0.00    +0.000 A 
ATOM     11  C   UNL     1      -1.504  11.373  22.327  0.00  0.00    +0.000 A 
ATOM     12  C   UNL     1      -2.347  11.824  23.373  0.00  0.00    +0.000 A 
ATOM     13  C   UNL     1      -3.266  12.847  23.155  0.00  0.00    +0.000 A 
ATOM     14  C   UNL     1      -3.337  13.448  21.910  0.00  0.00    +0.000 A 
ATOM     15  C   UNL     1      -2.507  13.040  20.860  0.00  0.00    +0.000 A 
ATOM     16  C   UNL     1      -1.586  11.979  21.066  0.00  0.00    +0.000 A 
ATOM     17  N   UNL     1      -0.670  11.320  20.246  0.00  0.00    +0.000 N 
ENDROOT
BRANCH  10  18
ATOM     18  C   UNL     1      -0.045   9.564  23.403  0.00  0.00    +0.000 C 
ATOM     19  O   UNL     1       1.090   9.611  23.871  0.00  0.00    +0.000 OA
ENDBRANCH  10  18
BRANCH   1  20
ATOM     20  C   UNL     1      -0.544  12.904  18.221  0.00  0.00    +0.000 C 
BRANCH  20  22
ATOM     21  C   UNL     1      -0.010  15.246  18.958  0.00  0.00    +0.000 C 
ATOM     22  C   UNL     1       0.560  13.859  18.696  0.00  0.00    +0.000 C 
ENDBRANCH  20  22
ENDBRANCH   1  20
BRANCH   5  23
ATOM     23  O   UNL     1       3.248   6.587  18.063  0.00  0.00    +0.000 OA
BRANCH  23  24
ATOM     24  C   UNL     1       3.035   5.219  17.843  0.00  0.00    +0.000 C 
ATOM     25  C   UNL     1       4.338   4.471  17.853  0.00  0.00    +0.000 C 
ATOM     26  O   UNL     1       1.964   4.675  17.632  0.00  0.00    +0.000 OA
ENDBRANCH  23  24
ENDBRANCH   5  23
BRANCH  14  27
ATOM     27  O   UNL     1      -4.325  14.470  21.804  0.00  0.00    +0.000 OA
BRANCH  27  28
ATOM     28  C   UNL     1      -4.165  15.851  21.971  0.00  0.00    +0.000 C 
ATOM     29  C   UNL     1      -5.305  16.558  21.290  0.00  0.00    +0.000 C 
ATOM     30  O   UNL     1      -3.277  16.419  22.588  0.00  0.00    +0.000 OA
ENDBRANCH  27  28
ENDBRANCH  14  27
TORSDOF 7
ENDMDL
MODEL 5
REMARK VINA RESULT:      -6.7      1.075      1.304
REMARK  Name = 
REMARK  10 active torsions:
REMARK  status: ('A' for Active; 'I' for Inactive)
REMARK    1  A    between atoms: C_1  and  C_2
REMARK    2  A    between atoms: C_2  and  C_3
REMARK    3  A    between atoms: C_3  and  C_4
REMARK    4  A    between atoms: C_8  and  O_9
REMARK    5  A    between atoms: O_9  and  C_10
REMARK    6  A    between atoms: C_10  and  C_11
REMARK    7  A    between atoms: C_17  and  C_18
REMARK    8  A    between atoms: C_23  and  O_24
REMARK    9  A    between atoms: O_24  and  C_25
REMARK   10  A    between atoms: C_25  and  C_26
REMARK                            x       y       z     vdW  Elec       q    Type
REMARK                         _______ _______ _______ _____ _____    ______ ____
ROOT
ATOM      1  C   UNL     1      -0.110  11.529  18.738  0.00  0.00    +0.000 C 
ATOM      2  C   UNL     1       1.279  10.984  18.305  0.00  0.00    +0.000 C 
ATOM      3  C   UNL     1       1.574   9.595  18.792  0.00  0.00    +0.000 A 
ATOM      4  C   UNL     1       2.395   8.736  18.034  0.00  0.00    +0.000 A 
ATOM      5  C   UNL     1       2.710   7.460  18.510  0.00  0.00    +0.000 A 
ATOM      6  C   UNL     1       2.197   7.043  19.730  0.00  0.00    +0.000 A 
ATOM      7  C   UNL     1       1.358   7.896  20.467  0.00  0.00    +0.000 A 
ATOM      8  C   UNL     1       1.064   9.194  20.035  0.00  0.00    +0.000 A 
ATOM      9  C   UNL     1       0.209  10.134  20.794  0.00  0.00    +0.000 A 
ATOM     10  C   UNL     1      -0.228  10.135  22.117  0.00  0.00    +0.000 A 
ATOM     11  C   UNL     1      -1.218  11.156  22.243  0.00  0.00    +0.000 A 
ATOM     12  C   UNL     1      -2.068  11.532  23.313  0.00  0.00    +0.000 A 
ATOM     13  C   UNL     1      -2.970  12.583  23.169  0.00  0.00    +0.000 A 
ATOM     14  C   UNL     1      -3.017  13.284  21.976  0.00  0.00    +0.000 A 
ATOM     15  C   UNL     1      -2.179  12.952  20.906  0.00  0.00    +0.000 A 
ATOM     16  C   UNL     1      -1.276  11.865  21.035  0.00  0.00    +0.000 A 
ATOM     17  N   UNL     1      -0.358  11.262  20.175  0.00  0.00    +0.000 N 
ENDROOT
BRANCH  10  18
ATOM     18  C   UNL     1       0.202   9.245  23.184  0.00  0.00    +0.000 C 
ATOM     19  O   UNL     1       0.911   9.585  24.128  0.00  0.00    +0.000 OA
ENDBRANCH  10  18
BRANCH   1  20
ATOM     20  C   UNL     1      -0.184  13.005  18.288  0.00  0.00    +0.000 C 
BRANCH  20  22
ATOM     21  C   UNL     1       0.971  14.566  19.883  0.00  0.00    +0.000 C 
ATOM     22  C   UNL     1       1.088  13.821  18.561  0.00  0.00    +0.000 C 
ENDBRANCH  20  22
ENDBRANCH   1  20
BRANCH   5  23
ATOM     23  O   UNL     1       3.526   6.669  17.658  0.00  0.00    +0.000 OA
BRANCH  23  24
ATOM     24  C   UNL     1       4.205   5.500  18.031  0.00  0.00    +0.000 C 
ATOM     25  C   UNL     1       3.596   4.297  17.366  0.00  0.00    +0.000 C 
ATOM     26  O   UNL     1       5.139   5.420  18.810  0.00  0.00    +0.000 OA
ENDBRANCH  23  24
ENDBRANCH   5  23
BRANCH  14  27
ATOM     27  O   UNL     1      -3.990  14.326  21.942  0.00  0.00    +0.000 OA
BRANCH  27  28
ATOM     28  C   UNL     1      -4.339  15.220  22.962  0.00  0.00    +0.000 C 
ATOM     29  C   UNL     1      -3.340  16.344  22.986  0.00  0.00    +0.000 C 
ATOM     30  O   UNL     1      -5.306  15.146  23.705  0.00  0.00    +0.000 OA
ENDBRANCH  27  28
ENDBRANCH  14  27
TORSDOF 7
ENDMDL
MODEL 6
REMARK VINA RESULT:      -6.7      0.905      1.007
REMARK  Name = 
REMARK  10 active torsions:
REMARK  status: ('A' for Active; 'I' for Inactive)
REMARK    1  A    between atoms: C_1  and  C_2
REMARK    2  A    between atoms: C_2  and  C_3
REMARK    3  A    between atoms: C_3  and  C_4
REMARK    4  A    between atoms: C_8  and  O_9
REMARK    5  A    between atoms: O_9  and  C_10
REMARK    6  A    between atoms: C_10  and  C_11
REMARK    7  A    between atoms: C_17  and  C_18
REMARK    8  A    between atoms: C_23  and  O_24
REMARK    9  A    between atoms: O_24  and  C_25
REMARK   10  A    between atoms: C_25  and  C_26
REMARK                            x       y       z     vdW  Elec       q    Type
REMARK                         _______ _______ _______ _____ _____    ______ ____
ROOT
ATOM      1  C   UNL     1      -0.064  11.337  18.784  0.00  0.00    +0.000 C 
ATOM      2  C   UNL     1       1.298  10.692  18.406  0.00  0.00    +0.000 C 
ATOM      3  C   UNL     1       1.512   9.324  18.984  0.00  0.00    +0.000 A 
ATOM      4  C   UNL     1       2.295   8.376  18.294  0.00  0.00    +0.000 A 
ATOM      5  C   UNL     1       2.535   7.119  18.854  0.00  0.00    +0.000 A 
ATOM      6  C   UNL     1       1.988   6.808  20.091  0.00  0.00    +0.000 A 
ATOM      7  C   UNL     1       1.188   7.749  20.760  0.00  0.00    +0.000 A 
ATOM      8  C   UNL     1       0.969   9.031  20.242  0.00  0.00    +0.000 A 
ATOM      9  C   UNL     1       0.157  10.062  20.928  0.00  0.00    +0.000 A 
ATOM     10  C   UNL     1      -0.294  10.171  22.242  0.00  0.00    +0.000 A 
ATOM     11  C   UNL     1      -1.228  11.249  22.289  0.00  0.00    +0.000 A 
ATOM     12  C   UNL     1      -2.069  11.736  23.321  0.00  0.00    +0.000 A 
ATOM     13  C   UNL     1      -2.912  12.822  23.097  0.00  0.00    +0.000 A 
ATOM     14  C   UNL     1      -2.908  13.448  21.862  0.00  0.00    +0.000 A 
ATOM     15  C   UNL     1      -2.077  13.004  20.828  0.00  0.00    +0.000 A 
ATOM     16  C   UNL     1      -1.235  11.881  21.038  0.00  0.00    +0.000 A 
ATOM     17  N   UNL     1      -0.341  11.176  20.231  0.00  0.00    +0.000 N 
ENDROOT
BRANCH  10  18
ATOM     18  C   UNL     1       0.076   9.329  23.370  0.00  0.00    +0.000 C 
ATOM     19  O   UNL     1       1.015   9.559  24.128  0.00  0.00    +0.000 OA
ENDBRANCH  10  18
BRANCH   1  20
ATOM     20  C   UNL     1      -0.054  12.784  18.241  0.00  0.00    +0.000 C 
BRANCH  20  22
ATOM     21  C   UNL     1       1.299  14.317  19.701  0.00  0.00    +0.000 C 
ATOM     22  C   UNL     1       1.284  13.518  18.405  0.00  0.00    +0.000 C 
ENDBRANCH  20  22
ENDBRANCH   1  20
BRANCH   5  23
ATOM     23  O   UNL     1       3.316   6.232  18.065  0.00  0.00    +0.000 OA
BRANCH  23  24
ATOM     24  C   UNL     1       4.717   6.187  18.031  0.00  0.00    +0.000 C 
ATOM     25  C   UNL     1       5.245   5.252  19.083  0.00  0.00    +0.000 C 
ATOM     26  O   UNL     1       5.447   6.828  17.293  0.00  0.00    +0.000 OA
ENDBRANCH  23  24
ENDBRANCH   5  23
BRANCH  14  27
ATOM     27  O   UNL     1      -3.823  14.535  21.749  0.00  0.00    +0.000 OA
BRANCH  27  28
ATOM     28  C   UNL     1      -4.909  14.667  20.876  0.00  0.00    +0.000 C 
ATOM     29  C   UNL     1      -5.751  13.423  20.956  0.00  0.00    +0.000 C 
ATOM     30  O   UNL     1      -5.176  15.631  20.174  0.00  0.00    +0.000 OA
ENDBRANCH  27  28
ENDBRANCH  14  27
TORSDOF 7
ENDMDL
MODEL 7
REMARK VINA RESULT:      -6.5      0.972      1.234
REMARK  Name = 
REMARK  10 active torsions:
REMARK  status: ('A' for Active; 'I' for Inactive)
REMARK    1  A    between atoms: C_1  and  C_2
REMARK    2  A    between atoms: C_2  and  C_3
REMARK    3  A    between atoms: C_3  and  C_4
REMARK    4  A    between atoms: C_8  and  O_9
REMARK    5  A    between atoms: O_9  and  C_10
REMARK    6  A    between atoms: C_10  and  C_11
REMARK    7  A    between atoms: C_17  and  C_18
REMARK    8  A    between atoms: C_23  and  O_24
REMARK    9  A    between atoms: O_24  and  C_25
REMARK   10  A    between atoms: C_25  and  C_26
REMARK                            x       y       z     vdW  Elec       q    Type
REMARK                         _______ _______ _______ _____ _____    ______ ____
ROOT
ATOM      1  C   UNL     1      -0.104  11.592  18.826  0.00  0.00    +0.000 C 
ATOM      2  C   UNL     1       1.265  10.926  18.514  0.00  0.00    +0.000 C 
ATOM      3  C   UNL     1       1.423   9.549  19.090  0.00  0.00    +0.000 A 
ATOM      4  C   UNL     1       2.223   8.592  18.433  0.00  0.00    +0.000 A 
ATOM      5  C   UNL     1       2.411   7.326  18.993  0.00  0.00    +0.000 A 
ATOM      6  C   UNL     1       1.792   7.015  20.196  0.00  0.00    +0.000 A 
ATOM      7  C   UNL     1       0.975   7.965  20.831  0.00  0.00    +0.000 A 
ATOM      8  C   UNL     1       0.807   9.255  20.314  0.00  0.00    +0.000 A 
ATOM      9  C   UNL     1      -0.021  10.295  20.966  0.00  0.00    +0.000 A 
ATOM     10  C   UNL     1      -0.539  10.401  22.255  0.00  0.00    +0.000 A 
ATOM     11  C   UNL     1      -1.455  11.496  22.263  0.00  0.00    +0.000 A 
ATOM     12  C   UNL     1      -2.341  11.990  23.253  0.00  0.00    +0.000 A 
ATOM     13  C   UNL     1      -3.151  13.093  22.996  0.00  0.00    +0.000 A 
ATOM     14  C   UNL     1      -3.069  13.729  21.769  0.00  0.00    +0.000 A 
ATOM     15  C   UNL     1      -2.192  13.279  20.775  0.00  0.00    +0.000 A 
ATOM     16  C   UNL     1      -1.384  12.138  21.019  0.00  0.00    +0.000 A 
ATOM     17  N   UNL     1      -0.461  11.424  20.254  0.00  0.00    +0.000 N 
ENDROOT
BRANCH  10  18
ATOM     18  C   UNL     1      -0.245   9.542  23.393  0.00  0.00    +0.000 C 
ATOM     19  O   UNL     1       0.790   9.595  24.052  0.00  0.00    +0.000 OA
ENDBRANCH  10  18
BRANCH   1  20
ATOM     20  C   UNL     1      -0.038  13.043  18.298  0.00  0.00    +0.000 C 
BRANCH  20  22
ATOM     21  C   UNL     1       2.158  14.257  18.168  0.00  0.00    +0.000 C 
ATOM     22  C   UNL     1       0.951  13.950  19.043  0.00  0.00    +0.000 C 
ENDBRANCH  20  22
ENDBRANCH   1  20
BRANCH   5  23
ATOM     23  O   UNL     1       3.216   6.432  18.238  0.00  0.00    +0.000 OA
BRANCH  23  24
ATOM     24  C   UNL     1       3.304   5.046  18.435  0.00  0.00    +0.000 C 
ATOM     25  C   UNL     1       2.243   4.330  17.647  0.00  0.00    +0.000 C 
ATOM     26  O   UNL     1       4.090   4.463  19.163  0.00  0.00    +0.000 OA
ENDBRANCH  23  24
ENDBRANCH   5  23
BRANCH  14  27
ATOM     27  O   UNL     1      -3.957  14.835  21.617  0.00  0.00    +0.000 OA
BRANCH  27  28
ATOM     28  C   UNL     1      -3.648  16.152  21.257  0.00  0.00    +0.000 C 
ATOM     29  C   UNL     1      -2.642  16.699  22.233  0.00  0.00    +0.000 C 
ATOM     30  O   UNL     1      -4.080  16.773  20.298  0.00  0.00    +0.000 OA
ENDBRANCH  27  28
ENDBRANCH  14  27
TORSDOF 7
ENDMDL
MODEL 8
REMARK VINA RESULT:      -6.5      1.657      8.300
REMARK  Name = 
REMARK  10 active torsions:
REMARK  status: ('A' for Active; 'I' for Inactive)
REMARK    1  A    between atoms: C_1  and  C_2
REMARK    2  A    between atoms: C_2  and  C_3
REMARK    3  A    between atoms: C_3  and  C_4
REMARK    4  A    between atoms: C_8  and  O_9
REMARK    5  A    between atoms: O_9  and  C_10
REMARK    6  A    between atoms: C_10  and  C_11
REMARK    7  A    between atoms: C_17  and  C_18
REMARK    8  A    between atoms: C_23  and  O_24
REMARK    9  A    between atoms: O_24  and  C_25
REMARK   10  A    between atoms: C_25  and  C_26
REMARK                            x       y       z     vdW  Elec       q    Type
REMARK                         _______ _______ _______ _____ _____    ______ ____
ROOT
ATOM      1  C   UNL     1      -1.134  11.740  18.898  0.00  0.00    +0.000 C 
ATOM      2  C   UNL     1      -2.471  12.349  19.404  0.00  0.00    +0.000 C 
ATOM      3  C   UNL     1      -2.455  12.750  20.851  0.00  0.00    +0.000 A 
ATOM      4  C   UNL     1      -3.244  13.830  21.296  0.00  0.00    +0.000 A 
ATOM      5  C   UNL     1      -3.268  14.174  22.650  0.00  0.00    +0.000 A 
ATOM      6  C   UNL     1      -2.499  13.450  23.550  0.00  0.00    +0.000 A 
ATOM      7  C   UNL     1      -1.695  12.392  23.094  0.00  0.00    +0.000 A 
ATOM      8  C   UNL     1      -1.688  11.998  21.750  0.00  0.00    +0.000 A 
ATOM      9  C   UNL     1      -0.879  10.872  21.233  0.00  0.00    +0.000 A 
ATOM     10  C   UNL     1      -0.232   9.817  21.875  0.00  0.00    +0.000 A 
ATOM     11  C   UNL     1       0.589   9.163  20.908  0.00  0.00    +0.000 A 
ATOM     12  C   UNL     1       1.536   8.114  21.016  0.00  0.00    +0.000 A 
ATOM     13  C   UNL     1       2.222   7.657  19.893  0.00  0.00    +0.000 A 
ATOM     14  C   UNL     1       1.957   8.218  18.655  0.00  0.00    +0.000 A 
ATOM     15  C   UNL     1       1.015   9.243  18.511  0.00  0.00    +0.000 A 
ATOM     16  C   UNL     1       0.331   9.732  19.653  0.00  0.00    +0.000 A 
ATOM     17  N   UNL     1      -0.610  10.741  19.860  0.00  0.00    +0.000 N 
ENDROOT
BRANCH  10  18
ATOM     18  C   UNL     1      -0.331   9.452  23.280  0.00  0.00    +0.000 C 
ATOM     19  O   UNL     1       0.573   9.597  24.099  0.00  0.00    +0.000 OA
ENDBRANCH  10  18
BRANCH   1  20
ATOM     20  C   UNL     1      -1.372  11.247  17.453  0.00  0.00    +0.000 C 
BRANCH  20  22
ATOM     21  C   UNL     1      -3.054  10.269  15.864  0.00  0.00    +0.000 C 
ATOM     22  C   UNL     1      -2.543  10.268  17.297  0.00  0.00    +0.000 C 
ENDBRANCH  20  22
ENDBRANCH   1  20
BRANCH   5  23
ATOM     23  O   UNL     1      -4.078  15.291  22.988  0.00  0.00    +0.000 OA
BRANCH  23  24
ATOM     24  C   UNL     1      -3.990  16.568  22.415  0.00  0.00    +0.000 C 
ATOM     25  C   UNL     1      -2.746  17.273  22.879  0.00  0.00    +0.000 C 
ATOM     26  O   UNL     1      -4.802  17.088  21.669  0.00  0.00    +0.000 OA
ENDBRANCH  23  24
ENDBRANCH   5  23
BRANCH  14  27
ATOM     27  O   UNL     1       2.732   7.680  17.586  0.00  0.00    +0.000 OA
BRANCH  27  28
ATOM     28  C   UNL     1       3.500   6.510  17.575  0.00  0.00    +0.000 C 
ATOM     29  C   UNL     1       4.943   6.879  17.363  0.00  0.00    +0.000 C 
ATOM     30  O   UNL     1       3.102   5.367  17.739  0.00  0.00    +0.000 OA
ENDBRANCH  27  28
ENDBRANCH  14  27
TORSDOF 7
ENDMDL
MODEL 9
REMARK VINA RESULT:      -6.4      1.239      1.537
REMARK  Name = 
REMARK  10 active torsions:
REMARK  status: ('A' for Active; 'I' for Inactive)
REMARK    1  A    between atoms: C_1  and  C_2
REMARK    2  A    between atoms: C_2  and  C_3
REMARK    3  A    between atoms: C_3  and  C_4
REMARK    4  A    between atoms: C_8  and  O_9
REMARK    5  A    between atoms: O_9  and  C_10
REMARK    6  A    between atoms: C_10  and  C_11
REMARK    7  A    between atoms: C_17  and  C_18
REMARK    8  A    between atoms: C_23  and  O_24
REMARK    9  A    between atoms: O_24  and  C_25
REMARK   10  A    between atoms: C_25  and  C_26
REMARK                            x       y       z     vdW  Elec       q    Type
REMARK                         _______ _______ _______ _____ _____    ______ ____
ROOT
ATOM      1  C   UNL     1      -0.452  12.287  18.965  0.00  0.00    +0.000 C 
ATOM      2  C   UNL     1       0.945  11.811  18.482  0.00  0.00    +0.000 C 
ATOM      3  C   UNL     1       1.260  10.383  18.822  0.00  0.00    +0.000 A 
ATOM      4  C   UNL     1       2.096   9.620  17.981  0.00  0.00    +0.000 A 
ATOM      5  C   UNL     1       2.429   8.307  18.322  0.00  0.00    +0.000 A 
ATOM      6  C   UNL     1       1.920   7.757  19.490  0.00  0.00    +0.000 A 
ATOM      7  C   UNL     1       1.067   8.516  20.310  0.00  0.00    +0.000 A 
ATOM      8  C   UNL     1       0.755   9.848  20.014  0.00  0.00    +0.000 A 
ATOM      9  C   UNL     1      -0.116  10.690  20.865  0.00  0.00    +0.000 A 
ATOM     10  C   UNL     1      -0.555  10.547  22.179  0.00  0.00    +0.000 A 
ATOM     11  C   UNL     1      -1.560  11.534  22.409  0.00  0.00    +0.000 A 
ATOM     12  C   UNL     1      -2.418  11.783  23.509  0.00  0.00    +0.000 A 
ATOM     13  C   UNL     1      -3.336  12.830  23.472  0.00  0.00    +0.000 A 
ATOM     14  C   UNL     1      -3.391  13.652  22.359  0.00  0.00    +0.000 A 
ATOM     15  C   UNL     1      -2.546  13.445  21.263  0.00  0.00    +0.000 A 
ATOM     16  C   UNL     1      -1.627  12.364  21.281  0.00  0.00    +0.000 A 
ATOM     17  N   UNL     1      -0.698  11.868  20.365  0.00  0.00    +0.000 N 
ENDROOT
BRANCH  10  18
ATOM     18  C   UNL     1      -0.113   9.556  23.149  0.00  0.00    +0.000 C 
ATOM     19  O   UNL     1       0.974   9.581  23.720  0.00  0.00    +0.000 OA
ENDBRANCH  10  18
BRANCH   1  20
ATOM     20  C   UNL     1      -0.548  13.801  18.672  0.00  0.00    +0.000 C 
BRANCH  20  22
ATOM     21  C   UNL     1       0.495  16.082  18.828  0.00  0.00    +0.000 C 
ATOM     22  C   UNL     1       0.534  14.653  19.351  0.00  0.00    +0.000 C 
ENDBRANCH  20  22
ENDBRANCH   1  20
BRANCH   5  23
ATOM     23  O   UNL     1       3.258   7.621  17.394  0.00  0.00    +0.000 OA
BRANCH  23  24
ATOM     24  C   UNL     1       4.081   6.525  17.689  0.00  0.00    +0.000 C 
ATOM     25  C   UNL     1       5.502   6.807  17.291  0.00  0.00    +0.000 C 
ATOM     26  O   UNL     1       3.729   5.459  18.166  0.00  0.00    +0.000 OA
ENDBRANCH  23  24
ENDBRANCH   5  23
BRANCH  14  27
ATOM     27  O   UNL     1      -4.379  14.677  22.432  0.00  0.00    +0.000 OA
BRANCH  27  28
ATOM     28  C   UNL     1      -5.129  15.081  23.542  0.00  0.00    +0.000 C 
ATOM     29  C   UNL     1      -4.355  16.128  24.296  0.00  0.00    +0.000 C 
ATOM     30  O   UNL     1      -6.244  14.693  23.858  0.00  0.00    +0.000 OA
ENDBRANCH  27  28
ENDBRANCH  14  27
TORSDOF 7
ENDMDL
