MODEL 1
REMARK VINA RESULT:      -6.9      0.000      0.000
REMARK  Name = 
REMARK  3 active torsions:
REMARK  status: ('A' for Active; 'I' for Inactive)
REMARK    1  A    between atoms: C_4  and  N_5
REMARK    2  A    between atoms: N_5  and  C_6
REMARK    3  A    between atoms: C_6  and  C_7
REMARK                            x       y       z     vdW  Elec       q    Type
REMARK                         _______ _______ _______ _____ _____    ______ ____
ROOT
ATOM      1 CL   UNL     1       2.233   7.090  19.835  0.00  0.00    +0.000 Cl
ATOM      2  C   UNL     1       2.622   5.625  19.052  0.00  0.00    +0.000 A 
ATOM      3  C   UNL     1       3.379   5.571  17.889  0.00  0.00    +0.000 A 
ATOM      4  C   UNL     1       3.704   4.327  17.351  0.00  0.00    +0.000 A 
ATOM      5  N   UNL     1       3.293   3.161  17.888  0.00  0.00    +0.000 NA
ATOM      6  C   UNL     1       2.532   3.277  18.990  0.00  0.00    +0.000 A 
ATOM      7  N   UNL     1       1.986   2.222  19.669  0.00  0.00    +0.000 N 
ATOM      8  C   UNL     1       1.300   2.681  20.764  0.00  0.00    +0.000 A 
ATOM      9  C   UNL     1       1.396   4.058  20.776  0.00  0.00    +0.000 A 
ATOM     10  C   UNL     1       2.162   4.446  19.642  0.00  0.00    +0.000 A 
ATOM     11  H   UNL     1       2.093   1.259  19.385  0.00  0.00    +0.000 HD
ENDROOT
BRANCH   4  12
ATOM     12  N   UNL     1       4.537   4.317  16.230  0.00  0.00    +0.000 N 
ATOM     13  H   UNL     1       4.140   3.851  15.426  0.00  0.00    +0.000 HD
BRANCH  12  14
ATOM     14  C   UNL     1       5.964   4.142  16.426  0.00  0.00    +0.000 C 
BRANCH  14  15
ATOM     15  C   UNL     1       6.709   5.230  17.166  0.00  0.00    +0.000 A 
ATOM     16  C   UNL     1       6.882   6.536  16.707  0.00  0.00    +0.000 A 
ATOM     17  C   UNL     1       7.603   7.431  17.488  0.00  0.00    +0.000 A 
ATOM     18  N   UNL     1       8.155   7.123  18.682  0.00  0.00    +0.000 NA
ATOM     19  C   UNL     1       7.987   5.857  19.110  0.00  0.00    +0.000 A 
ATOM     20  C   UNL     1       7.285   4.897  18.400  0.00  0.00    +0.000 A 
ENDBRANCH  14  15
ENDBRANCH  12  14
ENDBRANCH   4  12
TORSDOF 3
ENDMDL
MODEL 2
REMARK VINA RESULT:      -6.9      3.724      5.811
REMARK  Name = 
REMARK  3 active torsions:
REMARK  status: ('A' for Active; 'I' for Inactive)
REMARK    1  A    between atoms: C_4  and  N_5
REMARK    2  A    between atoms: N_5  and  C_6
REMARK    3  A    between atoms: C_6  and  C_7
REMARK                            x       y       z     vdW  Elec       q    Type
REMARK                         _______ _______ _______ _____ _____    ______ ____
ROOT
ATOM      1 CL   UNL     1       5.120   3.791  18.928  0.00  0.00    +0.000 Cl
ATOM      2  C   UNL     1       6.056   4.899  18.032  0.00  0.00    +0.000 A 
ATOM      3  C   UNL     1       6.716   5.974  18.614  0.00  0.00    +0.000 A 
ATOM      4  C   UNL     1       7.511   6.793  17.815  0.00  0.00    +0.000 A 
ATOM      5  N   UNL     1       7.653   6.615  16.487  0.00  0.00    +0.000 NA
ATOM      6  C   UNL     1       6.961   5.584  15.973  0.00  0.00    +0.000 A 
ATOM      7  N   UNL     1       6.939   5.251  14.646  0.00  0.00    +0.000 N 
ATOM      8  C   UNL     1       6.171   4.130  14.462  0.00  0.00    +0.000 A 
ATOM      9  C   UNL     1       5.679   3.748  15.694  0.00  0.00    +0.000 A 
ATOM     10  C   UNL     1       6.161   4.678  16.657  0.00  0.00    +0.000 A 
ATOM     11  H   UNL     1       7.429   5.769  13.931  0.00  0.00    +0.000 HD
ENDROOT
BRANCH   4  12
ATOM     12  N   UNL     1       8.223   7.809  18.457  0.00  0.00    +0.000 N 
ATOM     13  H   UNL     1       8.202   7.752  19.466  0.00  0.00    +0.000 HD
BRANCH  12  14
ATOM     14  C   UNL     1       8.188   9.147  17.894  0.00  0.00    +0.000 C 
BRANCH  14  15
ATOM     15  C   UNL     1       8.953  10.232  18.619  0.00  0.00    +0.000 A 
ATOM     16  C   UNL     1       9.195  10.259  19.993  0.00  0.00    +0.000 A 
ATOM     17  C   UNL     1       9.902  11.328  20.527  0.00  0.00    +0.000 A 
ATOM     18  N   UNL     1      10.383  12.360  19.799  0.00  0.00    +0.000 NA
ATOM     19  C   UNL     1      10.136  12.326  18.476  0.00  0.00    +0.000 A 
ATOM     20  C   UNL     1       9.439  11.301  17.855  0.00  0.00    +0.000 A 
ENDBRANCH  14  15
ENDBRANCH  12  14
ENDBRANCH   4  12
TORSDOF 3
ENDMDL
MODEL 3
REMARK VINA RESULT:      -6.9      0.541      1.227
REMARK  Name = 
REMARK  3 active torsions:
REMARK  status: ('A' for Active; 'I' for Inactive)
REMARK    1  A    between atoms: C_4  and  N_5
REMARK    2  A    between atoms: N_5  and  C_6
REMARK    3  A    between atoms: C_6  and  C_7
REMARK                            x       y       z     vdW  Elec       q    Type
REMARK                         _______ _______ _______ _____ _____    ______ ____
ROOT
ATOM      1 CL   UNL     1       2.114   7.284  19.672  0.00  0.00    +0.000 Cl
ATOM      2  C   UNL     1       2.724   5.796  19.102  0.00  0.00    +0.000 A 
ATOM      3  C   UNL     1       3.354   5.662  17.873  0.00  0.00    +0.000 A 
ATOM      4  C   UNL     1       3.879   4.422  17.513  0.00  0.00    +0.000 A 
ATOM      5  N   UNL     1       3.780   3.326  18.291  0.00  0.00    +0.000 NA
ATOM      6  C   UNL     1       3.126   3.507  19.451  0.00  0.00    +0.000 A 
ATOM      7  N   UNL     1       2.886   2.519  20.368  0.00  0.00    +0.000 N 
ATOM      8  C   UNL     1       2.233   3.044  21.454  0.00  0.00    +0.000 A 
ATOM      9  C   UNL     1       2.036   4.389  21.219  0.00  0.00    +0.000 A 
ATOM     10  C   UNL     1       2.585   4.689  19.941  0.00  0.00    +0.000 A 
ATOM     11  H   UNL     1       3.165   1.557  20.239  0.00  0.00    +0.000 HD
ENDROOT
BRANCH   4  12
ATOM     12  N   UNL     1       4.579   4.353  16.307  0.00  0.00    +0.000 N 
ATOM     13  H   UNL     1       4.101   3.833  15.583  0.00  0.00    +0.000 HD
BRANCH  12  14
ATOM     14  C   UNL     1       6.023   4.208  16.347  0.00  0.00    +0.000 C 
BRANCH  14  15
ATOM     15  C   UNL     1       6.803   5.194  17.188  0.00  0.00    +0.000 A 
ATOM     16  C   UNL     1       7.478   4.881  18.368  0.00  0.00    +0.000 A 
ATOM     17  C   UNL     1       8.144   5.893  19.046  0.00  0.00    +0.000 A 
ATOM     18  N   UNL     1       8.188   7.180  18.638  0.00  0.00    +0.000 NA
ATOM     19  C   UNL     1       7.526   7.471  17.502  0.00  0.00    +0.000 A 
ATOM     20  C   UNL     1       6.835   6.528  16.758  0.00  0.00    +0.000 A 
ENDBRANCH  14  15
ENDBRANCH  12  14
ENDBRANCH   4  12
TORSDOF 3
ENDMDL
MODEL 4
REMARK VINA RESULT:      -6.8      1.913      5.726
REMARK  Name = 
REMARK  3 active torsions:
REMARK  status: ('A' for Active; 'I' for Inactive)
REMARK    1  A    between atoms: C_4  and  N_5
REMARK    2  A    between atoms: N_5  and  C_6
REMARK    3  A    between atoms: C_6  and  C_7
REMARK                            x       y       z     vdW  Elec       q    Type
REMARK                         _______ _______ _______ _____ _____    ______ ____
ROOT
ATOM      1 CL   UNL     1       4.980   7.019  15.251  0.00  0.00    +0.000 Cl
ATOM      2  C   UNL     1       5.356   5.855  16.439  0.00  0.00    +0.000 A 
ATOM      3  C   UNL     1       4.693   4.638  16.538  0.00  0.00    +0.000 A 
ATOM      4  C   UNL     1       5.107   3.718  17.499  0.00  0.00    +0.000 A 
ATOM      5  N   UNL     1       6.108   3.960  18.369  0.00  0.00    +0.000 NA
ATOM      6  C   UNL     1       6.686   5.168  18.252  0.00  0.00    +0.000 A 
ATOM      7  N   UNL     1       7.694   5.626  19.056  0.00  0.00    +0.000 N 
ATOM      8  C   UNL     1       8.082   6.876  18.647  0.00  0.00    +0.000 A 
ATOM      9  C   UNL     1       7.294   7.231  17.570  0.00  0.00    +0.000 A 
ATOM     10  C   UNL     1       6.392   6.159  17.324  0.00  0.00    +0.000 A 
ATOM     11  H   UNL     1       8.080   5.098  19.825  0.00  0.00    +0.000 HD
ENDROOT
BRANCH   4  12
ATOM     12  N   UNL     1       4.471   2.476  17.506  0.00  0.00    +0.000 N 
ATOM     13  H   UNL     1       4.839   1.820  16.831  0.00  0.00    +0.000 HD
BRANCH  12  14
ATOM     14  C   UNL     1       3.035   2.430  17.719  0.00  0.00    +0.000 C 
BRANCH  14  15
ATOM     15  C   UNL     1       2.520   2.765  19.101  0.00  0.00    +0.000 A 
ATOM     16  C   UNL     1       3.130   2.384  20.296  0.00  0.00    +0.000 A 
ATOM     17  C   UNL     1       2.537   2.752  21.497  0.00  0.00    +0.000 A 
ATOM     18  N   UNL     1       1.394   3.466  21.593  0.00  0.00    +0.000 NA
ATOM     19  C   UNL     1       0.812   3.822  20.432  0.00  0.00    +0.000 A 
ATOM     20  C   UNL     1       1.330   3.500  19.187  0.00  0.00    +0.000 A 
ENDBRANCH  14  15
ENDBRANCH  12  14
ENDBRANCH   4  12
TORSDOF 3
ENDMDL
MODEL 5
REMARK VINA RESULT:      -6.8      1.952      5.928
REMARK  Name = 
REMARK  3 active torsions:
REMARK  status: ('A' for Active; 'I' for Inactive)
REMARK    1  A    between atoms: C_4  and  N_5
REMARK    2  A    between atoms: N_5  and  C_6
REMARK    3  A    between atoms: C_6  and  C_7
REMARK                            x       y       z     vdW  Elec       q    Type
REMARK                         _______ _______ _______ _____ _____    ______ ____
ROOT
ATOM      1 CL   UNL     1       5.001   6.745  15.453  0.00  0.00    +0.000 Cl
ATOM      2  C   UNL     1       5.609   5.951  16.834  0.00  0.00    +0.000 A 
ATOM      3  C   UNL     1       5.114   4.734  17.283  0.00  0.00    +0.000 A 
ATOM      4  C   UNL     1       5.713   4.124  18.384  0.00  0.00    +0.000 A 
ATOM      5  N   UNL     1       6.739   4.674  19.064  0.00  0.00    +0.000 NA
ATOM      6  C   UNL     1       7.149   5.870  18.608  0.00  0.00    +0.000 A 
ATOM      7  N   UNL     1       8.151   6.611  19.173  0.00  0.00    +0.000 N 
ATOM      8  C   UNL     1       8.347   7.757  18.445  0.00  0.00    +0.000 A 
ATOM      9  C   UNL     1       7.441   7.755  17.404  0.00  0.00    +0.000 A 
ATOM     10  C   UNL     1       6.664   6.568  17.510  0.00  0.00    +0.000 A 
ATOM     11  H   UNL     1       8.658   6.330  20.000  0.00  0.00    +0.000 HD
ENDROOT
BRANCH   4  12
ATOM     12  N   UNL     1       5.239   2.862  18.748  0.00  0.00    +0.000 N 
ATOM     13  H   UNL     1       4.877   2.320  17.975  0.00  0.00    +0.000 HD
BRANCH  12  14
ATOM     14  C   UNL     1       4.535   2.719  20.009  0.00  0.00    +0.000 C 
BRANCH  14  15
ATOM     15  C   UNL     1       3.123   3.254  20.088  0.00  0.00    +0.000 A 
ATOM     16  C   UNL     1       2.761   4.478  20.651  0.00  0.00    +0.000 A 
ATOM     17  C   UNL     1       1.419   4.837  20.667  0.00  0.00    +0.000 A 
ATOM     18  N   UNL     1       0.423   4.074  20.167  0.00  0.00    +0.000 NA
ATOM     19  C   UNL     1       0.785   2.892  19.633  0.00  0.00    +0.000 A 
ATOM     20  C   UNL     1       2.097   2.450  19.573  0.00  0.00    +0.000 A 
ENDBRANCH  14  15
ENDBRANCH  12  14
ENDBRANCH   4  12
TORSDOF 3
ENDMDL
MODEL 6
REMARK VINA RESULT:      -6.8      2.428      3.519
REMARK  Name = 
REMARK  3 active torsions:
REMARK  status: ('A' for Active; 'I' for Inactive)
REMARK    1  A    between atoms: C_4  and  N_5
REMARK    2  A    between atoms: N_5  and  C_6
REMARK    3  A    between atoms: C_6  and  C_7
REMARK                            x       y       z     vdW  Elec       q    Type
REMARK                         _______ _______ _______ _____ _____    ______ ____
ROOT
ATOM      1 CL   UNL     1       2.363   6.836  18.426  0.00  0.00    +0.000 Cl
ATOM      2  C   UNL     1       3.128   5.361  18.042  0.00  0.00    +0.000 A 
ATOM      3  C   UNL     1       4.434   5.288  17.576  0.00  0.00    +0.000 A 
ATOM      4  C   UNL     1       5.003   4.037  17.347  0.00  0.00    +0.000 A 
ATOM      5  N   UNL     1       4.336   2.880  17.527  0.00  0.00    +0.000 NA
ATOM      6  C   UNL     1       3.064   3.013  17.941  0.00  0.00    +0.000 A 
ATOM      7  N   UNL     1       2.204   1.970  18.152  0.00  0.00    +0.000 N 
ATOM      8  C   UNL     1       1.001   2.445  18.606  0.00  0.00    +0.000 A 
ATOM      9  C   UNL     1       1.088   3.821  18.672  0.00  0.00    +0.000 A 
ATOM     10  C   UNL     1       2.390   4.192  18.234  0.00  0.00    +0.000 A 
ATOM     11  H   UNL     1       2.448   1.003  17.993  0.00  0.00    +0.000 HD
ENDROOT
BRANCH   4  12
ATOM     12  N   UNL     1       6.344   4.008  16.961  0.00  0.00    +0.000 N 
ATOM     13  H   UNL     1       6.983   3.779  17.710  0.00  0.00    +0.000 HD
BRANCH  12  14
ATOM     14  C   UNL     1       6.815   4.993  16.003  0.00  0.00    +0.000 C 
BRANCH  14  15
ATOM     15  C   UNL     1       6.800   4.609  14.540  0.00  0.00    +0.000 A 
ATOM     16  C   UNL     1       5.954   3.656  13.972  0.00  0.00    +0.000 A 
ATOM     17  C   UNL     1       6.060   3.394  12.612  0.00  0.00    +0.000 A 
ATOM     18  N   UNL     1       6.935   4.008  11.785  0.00  0.00    +0.000 NA
ATOM     19  C   UNL     1       7.750   4.921  12.348  0.00  0.00    +0.000 A 
ATOM     20  C   UNL     1       7.718   5.247  13.694  0.00  0.00    +0.000 A 
ENDBRANCH  14  15
ENDBRANCH  12  14
ENDBRANCH   4  12
TORSDOF 3
ENDMDL
MODEL 7
REMARK VINA RESULT:      -6.7      1.908      5.475
REMARK  Name = 
REMARK  3 active torsions:
REMARK  status: ('A' for Active; 'I' for Inactive)
REMARK    1  A    between atoms: C_4  and  N_5
REMARK    2  A    between atoms: N_5  and  C_6
REMARK    3  A    between atoms: C_6  and  C_7
REMARK                            x       y       z     vdW  Elec       q    Type
REMARK                         _______ _______ _______ _____ _____    ______ ____
ROOT
ATOM      1 CL   UNL     1       5.076   6.920  15.203  0.00  0.00    +0.000 Cl
ATOM      2  C   UNL     1       5.361   5.759  16.419  0.00  0.00    +0.000 A 
ATOM      3  C   UNL     1       4.660   4.564  16.500  0.00  0.00    +0.000 A 
ATOM      4  C   UNL     1       5.002   3.643  17.489  0.00  0.00    +0.000 A 
ATOM      5  N   UNL     1       5.968   3.867  18.402  0.00  0.00    +0.000 NA
ATOM      6  C   UNL     1       6.586   5.056  18.299  0.00  0.00    +0.000 A 
ATOM      7  N   UNL     1       7.569   5.494  19.144  0.00  0.00    +0.000 N 
ATOM      8  C   UNL     1       8.012   6.728  18.740  0.00  0.00    +0.000 A 
ATOM      9  C   UNL     1       7.286   7.093  17.624  0.00  0.00    +0.000 A 
ATOM     10  C   UNL     1       6.364   6.044  17.348  0.00  0.00    +0.000 A 
ATOM     11  H   UNL     1       7.903   4.964  19.936  0.00  0.00    +0.000 HD
ENDROOT
BRANCH   4  12
ATOM     12  N   UNL     1       4.329   2.420  17.480  0.00  0.00    +0.000 N 
ATOM     13  H   UNL     1       4.635   1.787  16.754  0.00  0.00    +0.000 HD
BRANCH  12  14
ATOM     14  C   UNL     1       2.909   2.404  17.780  0.00  0.00    +0.000 C 
BRANCH  14  15
ATOM     15  C   UNL     1       2.461   3.017  19.088  0.00  0.00    +0.000 A 
ATOM     16  C   UNL     1       1.706   4.183  19.209  0.00  0.00    +0.000 A 
ATOM     17  C   UNL     1       1.378   4.640  20.479  0.00  0.00    +0.000 A 
ATOM     18  N   UNL     1       1.741   4.024  21.625  0.00  0.00    +0.000 NA
ATOM     19  C   UNL     1       2.476   2.903  21.495  0.00  0.00    +0.000 A 
ATOM     20  C   UNL     1       2.852   2.373  20.271  0.00  0.00    +0.000 A 
ENDBRANCH  14  15
ENDBRANCH  12  14
ENDBRANCH   4  12
TORSDOF 3
ENDMDL
MODEL 8
REMARK VINA RESULT:      -6.7      1.820      2.422
REMARK  Name = 
REMARK  3 active torsions:
REMARK  status: ('A' for Active; 'I' for Inactive)
REMARK    1  A    between atoms: C_4  and  N_5
REMARK    2  A    between atoms: N_5  and  C_6
REMARK    3  A    between atoms: C_6  and  C_7
REMARK                            x       y       z     vdW  Elec       q    Type
REMARK                         _______ _______ _______ _____ _____    ______ ____
ROOT
ATOM      1 CL   UNL     1       1.595   1.820  19.111  0.00  0.00    +0.000 Cl
ATOM      2  C   UNL     1       2.454   3.216  18.638  0.00  0.00    +0.000 A 
ATOM      3  C   UNL     1       3.325   3.235  17.557  0.00  0.00    +0.000 A 
ATOM      4  C   UNL     1       3.937   4.435  17.202  0.00  0.00    +0.000 A 
ATOM      5  N   UNL     1       3.751   5.586  17.878  0.00  0.00    +0.000 NA
ATOM      6  C   UNL     1       2.929   5.498  18.938  0.00  0.00    +0.000 A 
ATOM      7  N   UNL     1       2.632   6.538  19.776  0.00  0.00    +0.000 N 
ATOM      8  C   UNL     1       1.736   6.125  20.728  0.00  0.00    +0.000 A 
ATOM      9  C   UNL     1       1.468   4.790  20.504  0.00  0.00    +0.000 A 
ATOM     10  C   UNL     1       2.235   4.379  19.379  0.00  0.00    +0.000 A 
ATOM     11  H   UNL     1       3.025   7.464  19.680  0.00  0.00    +0.000 HD
ENDROOT
BRANCH   4  12
ATOM     12  N   UNL     1       4.737   4.427  16.058  0.00  0.00    +0.000 N 
ATOM     13  H   UNL     1       4.316   3.962  15.264  0.00  0.00    +0.000 HD
BRANCH  12  14
ATOM     14  C   UNL     1       6.170   4.252  16.210  0.00  0.00    +0.000 C 
BRANCH  14  15
ATOM     15  C   UNL     1       6.898   5.207  17.130  0.00  0.00    +0.000 A 
ATOM     16  C   UNL     1       7.473   4.859  18.353  0.00  0.00    +0.000 A 
ATOM     17  C   UNL     1       8.101   5.846  19.102  0.00  0.00    +0.000 A 
ATOM     18  N   UNL     1       8.199   7.139  18.724  0.00  0.00    +0.000 NA
ATOM     19  C   UNL     1       7.634   7.463  17.545  0.00  0.00    +0.000 A 
ATOM     20  C   UNL     1       6.987   6.548  16.731  0.00  0.00    +0.000 A 
ENDBRANCH  14  15
ENDBRANCH  12  14
ENDBRANCH   4  12
TORSDOF 3
ENDMDL
MODEL 9
REMARK VINA RESULT:      -6.6      2.264      3.344
REMARK  Name = 
REMARK  3 active torsions:
REMARK  status: ('A' for Active; 'I' for Inactive)
REMARK    1  A    between atoms: C_4  and  N_5
REMARK    2  A    between atoms: N_5  and  C_6
REMARK    3  A    between atoms: C_6  and  C_7
REMARK                            x       y       z     vdW  Elec       q    Type
REMARK                         _______ _______ _______ _____ _____    ______ ____
ROOT
ATOM      1 CL   UNL     1       2.320   7.072  18.957  0.00  0.00    +0.000 Cl
ATOM      2  C   UNL     1       3.013   5.521  18.804  0.00  0.00    +0.000 A 
ATOM      3  C   UNL     1       3.864   5.175  17.763  0.00  0.00    +0.000 A 
ATOM      4  C   UNL     1       4.436   3.904  17.750  0.00  0.00    +0.000 A 
ATOM      5  N   UNL     1       4.182   2.971  18.689  0.00  0.00    +0.000 NA
ATOM      6  C   UNL     1       3.321   3.350  19.649  0.00  0.00    +0.000 A 
ATOM      7  N   UNL     1       2.903   2.545  20.675  0.00  0.00    +0.000 N 
ATOM      8  C   UNL     1       2.060   3.246  21.499  0.00  0.00    +0.000 A 
ATOM      9  C   UNL     1       1.924   4.518  20.981  0.00  0.00    +0.000 A 
ATOM     10  C   UNL     1       2.708   4.587  19.796  0.00  0.00    +0.000 A 
ATOM     11  H   UNL     1       3.192   1.584  20.786  0.00  0.00    +0.000 HD
ENDROOT
BRANCH   4  12
ATOM     12  N   UNL     1       5.351   3.629  16.732  0.00  0.00    +0.000 N 
ATOM     13  H   UNL     1       5.995   2.880  16.948  0.00  0.00    +0.000 HD
BRANCH  12  14
ATOM     14  C   UNL     1       5.898   4.736  15.968  0.00  0.00    +0.000 C 
BRANCH  14  15
ATOM     15  C   UNL     1       6.253   4.481  14.520  0.00  0.00    +0.000 A 
ATOM     16  C   UNL     1       5.554   3.630  13.663  0.00  0.00    +0.000 A 
ATOM     17  C   UNL     1       6.003   3.480  12.357  0.00  0.00    +0.000 A 
ATOM     18  N   UNL     1       7.084   4.111  11.848  0.00  0.00    +0.000 NA
ATOM     19  C   UNL     1       7.754   4.923  12.688  0.00  0.00    +0.000 A 
ATOM     20  C   UNL     1       7.381   5.135  14.006  0.00  0.00    +0.000 A 
ENDBRANCH  14  15
ENDBRANCH  12  14
ENDBRANCH   4  12
TORSDOF 3
ENDMDL
