MODEL 1
REMARK VINA RESULT:      -7.4      0.000      0.000
REMARK  Name = 
REMARK  8 active torsions:
REMARK  status: ('A' for Active; 'I' for Inactive)
REMARK    1  A    between atoms: C_1  and  C_2
REMARK    2  A    between atoms: C_5  and  C_6
REMARK    3  A    between atoms: N_15  and  C_16
REMARK    4  A    between atoms: C_19  and  C_20
REMARK    5  A    between atoms: C_20  and  C_21
REMARK    6  A    between atoms: N_22  and  N_23
REMARK    7  A    between atoms: N_23  and  C_24
REMARK    8  A    between atoms: C_24  and  N_25
REMARK                            x       y       z     vdW  Elec       q    Type
REMARK                         _______ _______ _______ _____ _____    ______ ____
ROOT
ATOM      1  C   UNL     1       0.936   9.820  19.017  0.00  0.00    +0.000 A 
ATOM      2  C   UNL     1       0.889   9.232  20.287  0.00  0.00    +0.000 A 
ATOM      3  C   UNL     1       1.491   7.989  20.522  0.00  0.00    +0.000 A 
ATOM      4  C   UNL     1       2.179   7.333  19.497  0.00  0.00    +0.000 A 
ATOM      5  C   UNL     1       2.269   7.950  18.239  0.00  0.00    +0.000 A 
ATOM      6  C   UNL     1       1.635   9.176  17.992  0.00  0.00    +0.000 A 
ENDROOT
BRANCH   1  14
ATOM      7  C   UNL     1      -1.932  10.412  18.197  0.00  0.00    +0.000 C 
ATOM      8  C   UNL     1      -0.863  11.437  18.426  0.00  0.00    +0.000 C 
ATOM      9  N   UNL     1      -1.097  12.714  18.326  0.00  0.00    +0.000 NA
ATOM     10  C   UNL     1       0.096  13.308  18.685  0.00  0.00    +0.000 C 
ATOM     11  C   UNL     1       0.330  14.629  18.654  0.00  0.00    +0.000 C 
ATOM     12  C   UNL     1       1.079  12.249  19.076  0.00  0.00    +0.000 C 
ATOM     13  O   UNL     1       2.209  12.391  19.509  0.00  0.00    +0.000 OA
ATOM     14  N   UNL     1       0.385  11.098  18.824  0.00  0.00    +0.000 N 
BRANCH  11  15
ATOM     15  C   UNL     1       1.635  15.229  18.941  0.00  0.00    +0.000 A 
ATOM     16  C   UNL     1       1.897  15.737  20.221  0.00  0.00    +0.000 A 
ATOM     17  C   UNL     1       3.082  16.430  20.475  0.00  0.00    +0.000 A 
ATOM     18  C   UNL     1       4.012  16.605  19.452  0.00  0.00    +0.000 A 
ATOM     19 CL   UNL     1       5.453  17.498  19.751  0.00  0.00    +0.000 Cl
ATOM     20  C   UNL     1       3.776  16.076  18.185  0.00  0.00    +0.000 A 
ATOM     21  C   UNL     1       2.587  15.386  17.929  0.00  0.00    +0.000 A 
ENDBRANCH  11  15
ENDBRANCH   1  14
BRANCH   4  22
ATOM     22  C   UNL     1       2.827   5.992  19.699  0.00  0.00    +0.000 C 
ATOM     23  C   UNL     1       2.208   5.037  20.706  0.00  0.00    +0.000 C 
ATOM     24  N   UNL     1       3.869   5.681  18.976  0.00  0.00    +0.000 NA
BRANCH  24  25
ATOM     25  N   UNL     1       4.420   4.440  19.151  0.00  0.00    +0.000 N 
ATOM     26  H   UNL     1       4.857   4.178  20.028  0.00  0.00    +0.000 HD
BRANCH  25  27
ATOM     27  C   UNL     1       4.390   3.483  18.179  0.00  0.00    +0.000 C 
ATOM     28  S   UNL     1       3.333   2.205  18.243  0.00  0.00    +0.000 S 
BRANCH  27  29
ATOM     29  N   UNL     1       5.265   3.637  17.162  0.00  0.00    +0.000 N 
ATOM     30  H   UNL     1       5.225   2.964  16.408  0.00  0.00    +0.000 HD
ATOM     31  H   UNL     1       5.898   4.422  17.129  0.00  0.00    +0.000 HD
ENDBRANCH  27  29
ENDBRANCH  25  27
ENDBRANCH  24  25
ENDBRANCH   4  22
TORSDOF 6
ENDMDL
MODEL 2
REMARK VINA RESULT:      -7.3      3.480      5.845
REMARK  Name = 
REMARK  8 active torsions:
REMARK  status: ('A' for Active; 'I' for Inactive)
REMARK    1  A    between atoms: C_1  and  C_2
REMARK    2  A    between atoms: C_5  and  C_6
REMARK    3  A    between atoms: N_15  and  C_16
REMARK    4  A    between atoms: C_19  and  C_20
REMARK    5  A    between atoms: C_20  and  C_21
REMARK    6  A    between atoms: N_22  and  N_23
REMARK    7  A    between atoms: N_23  and  C_24
REMARK    8  A    between atoms: C_24  and  N_25
REMARK                            x       y       z     vdW  Elec       q    Type
REMARK                         _______ _______ _______ _____ _____    ______ ____
ROOT
ATOM      1  C   UNL     1       3.324   6.092  18.066  0.00  0.00    +0.000 A 
ATOM      2  C   UNL     1       3.200   4.759  17.658  0.00  0.00    +0.000 A 
ATOM      3  C   UNL     1       4.009   4.246  16.636  0.00  0.00    +0.000 A 
ATOM      4  C   UNL     1       4.978   5.053  16.030  0.00  0.00    +0.000 A 
ATOM      5  C   UNL     1       5.135   6.374  16.478  0.00  0.00    +0.000 A 
ATOM      6  C   UNL     1       4.300   6.899  17.475  0.00  0.00    +0.000 A 
ENDROOT
BRANCH   1  14
ATOM      7  C   UNL     1       2.577   4.504  20.551  0.00  0.00    +0.000 C 
ATOM      8  C   UNL     1       2.148   5.909  20.254  0.00  0.00    +0.000 C 
ATOM      9  N   UNL     1       1.426   6.602  21.087  0.00  0.00    +0.000 NA
ATOM     10  C   UNL     1       1.318   7.843  20.493  0.00  0.00    +0.000 C 
ATOM     11  C   UNL     1       0.589   8.860  20.979  0.00  0.00    +0.000 C 
ATOM     12  C   UNL     1       2.108   7.855  19.222  0.00  0.00    +0.000 C 
ATOM     13  O   UNL     1       2.303   8.788  18.463  0.00  0.00    +0.000 OA
ATOM     14  N   UNL     1       2.550   6.564  19.139  0.00  0.00    +0.000 N 
BRANCH  11  15
ATOM     15  C   UNL     1       0.407  10.134  20.280  0.00  0.00    +0.000 A 
ATOM     16  C   UNL     1       1.187  11.241  20.644  0.00  0.00    +0.000 A 
ATOM     17  C   UNL     1       0.935  12.495  20.083  0.00  0.00    +0.000 A 
ATOM     18  C   UNL     1      -0.088  12.640  19.149  0.00  0.00    +0.000 A 
ATOM     19 CL   UNL     1      -0.428  14.194  18.489  0.00  0.00    +0.000 Cl
ATOM     20  C   UNL     1      -0.847  11.540  18.755  0.00  0.00    +0.000 A 
ATOM     21  C   UNL     1      -0.599  10.286  19.321  0.00  0.00    +0.000 A 
ENDBRANCH  11  15
ENDBRANCH   1  14
BRANCH   4  22
ATOM     22  C   UNL     1       5.858   4.550  14.921  0.00  0.00    +0.000 C 
ATOM     23  C   UNL     1       7.334   4.916  14.949  0.00  0.00    +0.000 C 
ATOM     24  N   UNL     1       5.335   3.788  13.999  0.00  0.00    +0.000 NA
BRANCH  24  25
ATOM     25  N   UNL     1       6.165   3.312  13.018  0.00  0.00    +0.000 N 
ATOM     26  H   UNL     1       7.173   3.375  13.107  0.00  0.00    +0.000 HD
BRANCH  25  27
ATOM     27  C   UNL     1       5.692   2.710  11.890  0.00  0.00    +0.000 C 
ATOM     28  S   UNL     1       4.271   3.186  11.175  0.00  0.00    +0.000 S 
BRANCH  27  29
ATOM     29  N   UNL     1       6.445   1.709  11.386  0.00  0.00    +0.000 N 
ATOM     30  H   UNL     1       7.450   1.810  11.440  0.00  0.00    +0.000 HD
ATOM     31  H   UNL     1       6.023   0.869  11.017  0.00  0.00    +0.000 HD
ENDBRANCH  27  29
ENDBRANCH  25  27
ENDBRANCH  24  25
ENDBRANCH   4  22
TORSDOF 6
ENDMDL
MODEL 3
REMARK VINA RESULT:      -7.3      0.278      1.320
REMARK  Name = 
REMARK  8 active torsions:
REMARK  status: ('A' for Active; 'I' for Inactive)
REMARK    1  A    between atoms: C_1  and  C_2
REMARK    2  A    between atoms: C_5  and  C_6
REMARK    3  A    between atoms: N_15  and  C_16
REMARK    4  A    between atoms: C_19  and  C_20
REMARK    5  A    between atoms: C_20  and  C_21
REMARK    6  A    between atoms: N_22  and  N_23
REMARK    7  A    between atoms: N_23  and  C_24
REMARK    8  A    between atoms: C_24  and  N_25
REMARK                            x       y       z     vdW  Elec       q    Type
REMARK                         _______ _______ _______ _____ _____    ______ ____
ROOT
ATOM      1  C   UNL     1       1.044   9.916  19.103  0.00  0.00    +0.000 A 
ATOM      2  C   UNL     1       1.701   9.280  18.044  0.00  0.00    +0.000 A 
ATOM      3  C   UNL     1       2.289   8.021  18.221  0.00  0.00    +0.000 A 
ATOM      4  C   UNL     1       2.197   7.366  19.453  0.00  0.00    +0.000 A 
ATOM      5  C   UNL     1       1.493   7.985  20.498  0.00  0.00    +0.000 A 
ATOM      6  C   UNL     1       0.936   9.261  20.333  0.00  0.00    +0.000 A 
ENDROOT
BRANCH   1  14
ATOM      7  C   UNL     1      -1.804  10.282  18.100  0.00  0.00    +0.000 C 
ATOM      8  C   UNL     1      -0.840  11.388  18.406  0.00  0.00    +0.000 C 
ATOM      9  N   UNL     1      -1.171  12.643  18.299  0.00  0.00    +0.000 NA
ATOM     10  C   UNL     1      -0.057  13.328  18.740  0.00  0.00    +0.000 C 
ATOM     11  C   UNL     1       0.069  14.664  18.733  0.00  0.00    +0.000 C 
ATOM     12  C   UNL     1       0.982  12.348  19.187  0.00  0.00    +0.000 C 
ATOM     13  O   UNL     1       2.066  12.576  19.695  0.00  0.00    +0.000 OA
ATOM     14  N   UNL     1       0.404  11.147  18.882  0.00  0.00    +0.000 N 
BRANCH  11  15
ATOM     15  C   UNL     1       1.299  15.365  19.110  0.00  0.00    +0.000 A 
ATOM     16  C   UNL     1       2.322  15.522  18.165  0.00  0.00    +0.000 A 
ATOM     17  C   UNL     1       3.552  16.067  18.543  0.00  0.00    +0.000 A 
ATOM     18  C   UNL     1       3.753  16.468  19.862  0.00  0.00    +0.000 A 
ATOM     19 CL   UNL     1       5.282  17.099  20.339  0.00  0.00    +0.000 Cl
ATOM     20  C   UNL     1       2.730  16.347  20.801  0.00  0.00    +0.000 A 
ATOM     21  C   UNL     1       1.502  15.796  20.425  0.00  0.00    +0.000 A 
ENDBRANCH  11  15
ENDBRANCH   1  14
BRANCH   4  22
ATOM     22  C   UNL     1       2.825   6.021  19.694  0.00  0.00    +0.000 C 
ATOM     23  C   UNL     1       2.124   5.058  20.638  0.00  0.00    +0.000 C 
ATOM     24  N   UNL     1       3.922   5.716  19.055  0.00  0.00    +0.000 NA
BRANCH  24  25
ATOM     25  N   UNL     1       4.454   4.471  19.263  0.00  0.00    +0.000 N 
ATOM     26  H   UNL     1       4.840   4.207  20.163  0.00  0.00    +0.000 HD
BRANCH  25  27
ATOM     27  C   UNL     1       4.474   3.514  18.291  0.00  0.00    +0.000 C 
ATOM     28  S   UNL     1       3.450   2.208  18.329  0.00  0.00    +0.000 S 
BRANCH  27  29
ATOM     29  N   UNL     1       5.370   3.690  17.296  0.00  0.00    +0.000 N 
ATOM     30  H   UNL     1       6.173   3.076  17.278  0.00  0.00    +0.000 HD
ATOM     31  H   UNL     1       5.218   4.373  16.568  0.00  0.00    +0.000 HD
ENDBRANCH  27  29
ENDBRANCH  25  27
ENDBRANCH  24  25
ENDBRANCH   4  22
TORSDOF 6
ENDMDL
MODEL 4
REMARK VINA RESULT:      -7.3      0.795      1.210
REMARK  Name = 
REMARK  8 active torsions:
REMARK  status: ('A' for Active; 'I' for Inactive)
REMARK    1  A    between atoms: C_1  and  C_2
REMARK    2  A    between atoms: C_5  and  C_6
REMARK    3  A    between atoms: N_15  and  C_16
REMARK    4  A    between atoms: C_19  and  C_20
REMARK    5  A    between atoms: C_20  and  C_21
REMARK    6  A    between atoms: N_22  and  N_23
REMARK    7  A    between atoms: N_23  and  C_24
REMARK    8  A    between atoms: C_24  and  N_25
REMARK                            x       y       z     vdW  Elec       q    Type
REMARK                         _______ _______ _______ _____ _____    ______ ____
ROOT
ATOM      1  C   UNL     1       1.038   9.930  19.079  0.00  0.00    +0.000 A 
ATOM      2  C   UNL     1       1.727   9.314  18.029  0.00  0.00    +0.000 A 
ATOM      3  C   UNL     1       2.321   8.057  18.204  0.00  0.00    +0.000 A 
ATOM      4  C   UNL     1       2.202   7.384  19.424  0.00  0.00    +0.000 A 
ATOM      5  C   UNL     1       1.466   7.983  20.459  0.00  0.00    +0.000 A 
ATOM      6  C   UNL     1       0.903   9.257  20.297  0.00  0.00    +0.000 A 
ENDROOT
BRANCH   1  14
ATOM      7  C   UNL     1      -1.778  10.289  17.984  0.00  0.00    +0.000 C 
ATOM      8  C   UNL     1      -0.835  11.397  18.344  0.00  0.00    +0.000 C 
ATOM      9  N   UNL     1      -1.175  12.651  18.248  0.00  0.00    +0.000 NA
ATOM     10  C   UNL     1      -0.084  13.338  18.740  0.00  0.00    +0.000 C 
ATOM     11  C   UNL     1       0.029  14.675  18.762  0.00  0.00    +0.000 C 
ATOM     12  C   UNL     1       0.949  12.359  19.205  0.00  0.00    +0.000 C 
ATOM     13  O   UNL     1       2.012  12.588  19.754  0.00  0.00    +0.000 OA
ATOM     14  N   UNL     1       0.393  11.159  18.859  0.00  0.00    +0.000 N 
BRANCH  11  15
ATOM     15  C   UNL     1       1.238  15.380  19.194  0.00  0.00    +0.000 A 
ATOM     16  C   UNL     1       1.336  15.842  20.513  0.00  0.00    +0.000 A 
ATOM     17  C   UNL     1       2.420  16.631  20.905  0.00  0.00    +0.000 A 
ATOM     18  C   UNL     1       3.413  16.947  19.980  0.00  0.00    +0.000 A 
ATOM     19 CL   UNL     1       4.727  17.956  20.449  0.00  0.00    +0.000 Cl
ATOM     20  C   UNL     1       3.343  16.465  18.675  0.00  0.00    +0.000 A 
ATOM     21  C   UNL     1       2.255  15.680  18.281  0.00  0.00    +0.000 A 
ENDBRANCH  11  15
ENDBRANCH   1  14
BRANCH   4  22
ATOM     22  C   UNL     1       2.834   6.041  19.663  0.00  0.00    +0.000 C 
ATOM     23  C   UNL     1       2.065   5.018  20.483  0.00  0.00    +0.000 C 
ATOM     24  N   UNL     1       3.997   5.789  19.125  0.00  0.00    +0.000 NA
BRANCH  24  25
ATOM     25  N   UNL     1       4.535   4.545  19.325  0.00  0.00    +0.000 N 
ATOM     26  H   UNL     1       4.901   4.271  20.230  0.00  0.00    +0.000 HD
BRANCH  25  27
ATOM     27  C   UNL     1       4.587   3.604  18.339  0.00  0.00    +0.000 C 
ATOM     28  S   UNL     1       4.874   4.012  16.756  0.00  0.00    +0.000 S 
BRANCH  27  29
ATOM     29  N   UNL     1       4.395   2.324  18.724  0.00  0.00    +0.000 N 
ATOM     30  H   UNL     1       3.462   2.060  19.013  0.00  0.00    +0.000 HD
ATOM     31  H   UNL     1       5.139   1.644  18.676  0.00  0.00    +0.000 HD
ENDBRANCH  27  29
ENDBRANCH  25  27
ENDBRANCH  24  25
ENDBRANCH   4  22
TORSDOF 6
ENDMDL
MODEL 5
REMARK VINA RESULT:      -7.2      1.249      1.857
REMARK  Name = 
REMARK  8 active torsions:
REMARK  status: ('A' for Active; 'I' for Inactive)
REMARK    1  A    between atoms: C_1  and  C_2
REMARK    2  A    between atoms: C_5  and  C_6
REMARK    3  A    between atoms: N_15  and  C_16
REMARK    4  A    between atoms: C_19  and  C_20
REMARK    5  A    between atoms: C_20  and  C_21
REMARK    6  A    between atoms: N_22  and  N_23
REMARK    7  A    between atoms: N_23  and  C_24
REMARK    8  A    between atoms: C_24  and  N_25
REMARK                            x       y       z     vdW  Elec       q    Type
REMARK                         _______ _______ _______ _____ _____    ______ ____
ROOT
ATOM      1  C   UNL     1       1.096  10.056  19.052  0.00  0.00    +0.000 A 
ATOM      2  C   UNL     1       1.730   9.410  17.984  0.00  0.00    +0.000 A 
ATOM      3  C   UNL     1       2.263   8.124  18.141  0.00  0.00    +0.000 A 
ATOM      4  C   UNL     1       2.138   7.452  19.362  0.00  0.00    +0.000 A 
ATOM      5  C   UNL     1       1.456   8.083  20.415  0.00  0.00    +0.000 A 
ATOM      6  C   UNL     1       0.955   9.385  20.270  0.00  0.00    +0.000 A 
ENDROOT
BRANCH   1  14
ATOM      7  C   UNL     1      -1.739  10.559  18.070  0.00  0.00    +0.000 C 
ATOM      8  C   UNL     1      -0.725  11.618  18.384  0.00  0.00    +0.000 C 
ATOM      9  N   UNL     1      -1.001  12.887  18.295  0.00  0.00    +0.000 NA
ATOM     10  C   UNL     1       0.145  13.517  18.738  0.00  0.00    +0.000 C 
ATOM     11  C   UNL     1       0.329  14.846  18.747  0.00  0.00    +0.000 C 
ATOM     12  C   UNL     1       1.142  12.486  19.166  0.00  0.00    +0.000 C 
ATOM     13  O   UNL     1       2.237  12.660  19.670  0.00  0.00    +0.000 OA
ATOM     14  N   UNL     1       0.509  11.316  18.850  0.00  0.00    +0.000 N 
BRANCH  11  15
ATOM     15  C   UNL     1       1.591  15.487  19.124  0.00  0.00    +0.000 A 
ATOM     16  C   UNL     1       1.767  15.947  20.436  0.00  0.00    +0.000 A 
ATOM     17  C   UNL     1       2.907  16.678  20.779  0.00  0.00    +0.000 A 
ATOM     18  C   UNL     1       3.876  16.939  19.813  0.00  0.00    +0.000 A 
ATOM     19 CL   UNL     1       5.260  17.878  20.222  0.00  0.00    +0.000 Cl
ATOM     20  C   UNL     1       3.726  16.458  18.513  0.00  0.00    +0.000 A 
ATOM     21  C   UNL     1       2.583  15.731  18.168  0.00  0.00    +0.000 A 
ENDBRANCH  11  15
ENDBRANCH   1  14
BRANCH   4  22
ATOM     22  C   UNL     1       2.707   6.079  19.581  0.00  0.00    +0.000 C 
ATOM     23  C   UNL     1       3.831   5.610  18.672  0.00  0.00    +0.000 C 
ATOM     24  N   UNL     1       2.244   5.356  20.566  0.00  0.00    +0.000 NA
BRANCH  24  25
ATOM     25  N   UNL     1       2.804   4.122  20.769  0.00  0.00    +0.000 N 
ATOM     26  H   UNL     1       3.794   4.020  20.962  0.00  0.00    +0.000 HD
BRANCH  25  27
ATOM     27  C   UNL     1       2.067   2.974  20.750  0.00  0.00    +0.000 C 
ATOM     28  S   UNL     1       1.710   2.189  19.332  0.00  0.00    +0.000 S 
BRANCH  27  29
ATOM     29  N   UNL     1       1.649   2.512  21.947  0.00  0.00    +0.000 N 
ATOM     30  H   UNL     1       2.057   1.648  22.281  0.00  0.00    +0.000 HD
ATOM     31  H   UNL     1       0.996   3.033  22.512  0.00  0.00    +0.000 HD
ENDBRANCH  27  29
ENDBRANCH  25  27
ENDBRANCH  24  25
ENDBRANCH   4  22
TORSDOF 6
ENDMDL
MODEL 6
REMARK VINA RESULT:      -7.2      1.001      1.357
REMARK  Name = 
REMARK  8 active torsions:
REMARK  status: ('A' for Active; 'I' for Inactive)
REMARK    1  A    between atoms: C_1  and  C_2
REMARK    2  A    between atoms: C_5  and  C_6
REMARK    3  A    between atoms: N_15  and  C_16
REMARK    4  A    between atoms: C_19  and  C_20
REMARK    5  A    between atoms: C_20  and  C_21
REMARK    6  A    between atoms: N_22  and  N_23
REMARK    7  A    between atoms: N_23  and  C_24
REMARK    8  A    between atoms: C_24  and  N_25
REMARK                            x       y       z     vdW  Elec       q    Type
REMARK                         _______ _______ _______ _____ _____    ______ ____
ROOT
ATOM      1  C   UNL     1       0.925   9.801  18.905  0.00  0.00    +0.000 A 
ATOM      2  C   UNL     1       0.967   9.134  20.134  0.00  0.00    +0.000 A 
ATOM      3  C   UNL     1       1.677   7.935  20.274  0.00  0.00    +0.000 A 
ATOM      4  C   UNL     1       2.385   7.404  19.190  0.00  0.00    +0.000 A 
ATOM      5  C   UNL     1       2.384   8.104  17.973  0.00  0.00    +0.000 A 
ATOM      6  C   UNL     1       1.642   9.284  17.822  0.00  0.00    +0.000 A 
ENDROOT
BRANCH   1  14
ATOM      7  C   UNL     1      -1.960  10.208  18.028  0.00  0.00    +0.000 C 
ATOM      8  C   UNL     1      -0.998  11.299  18.394  0.00  0.00    +0.000 C 
ATOM      9  N   UNL     1      -1.348  12.553  18.403  0.00  0.00    +0.000 NA
ATOM     10  C   UNL     1      -0.227  13.215  18.863  0.00  0.00    +0.000 C 
ATOM     11  C   UNL     1      -0.117  14.549  18.964  0.00  0.00    +0.000 C 
ATOM     12  C   UNL     1       0.837  12.216  19.193  0.00  0.00    +0.000 C 
ATOM     13  O   UNL     1       1.935  12.417  19.682  0.00  0.00    +0.000 OA
ATOM     14  N   UNL     1       0.263  11.037  18.808  0.00  0.00    +0.000 N 
BRANCH  11  15
ATOM     15  C   UNL     1       1.116  15.234  19.357  0.00  0.00    +0.000 A 
ATOM     16  C   UNL     1       2.092  15.511  18.390  0.00  0.00    +0.000 A 
ATOM     17  C   UNL     1       3.328  16.041  18.768  0.00  0.00    +0.000 A 
ATOM     18  C   UNL     1       3.583  16.306  20.112  0.00  0.00    +0.000 A 
ATOM     19 CL   UNL     1       5.121  16.918  20.585  0.00  0.00    +0.000 Cl
ATOM     20  C   UNL     1       2.608  16.065  21.077  0.00  0.00    +0.000 A 
ATOM     21  C   UNL     1       1.373  15.528  20.700  0.00  0.00    +0.000 A 
ENDBRANCH  11  15
ENDBRANCH   1  14
BRANCH   4  22
ATOM     22  C   UNL     1       3.149   6.114  19.289  0.00  0.00    +0.000 C 
ATOM     23  C   UNL     1       2.677   5.071  20.289  0.00  0.00    +0.000 C 
ATOM     24  N   UNL     1       4.162   5.920  18.487  0.00  0.00    +0.000 NA
BRANCH  24  25
ATOM     25  N   UNL     1       4.819   4.721  18.570  0.00  0.00    +0.000 N 
ATOM     26  H   UNL     1       4.569   4.032  19.270  0.00  0.00    +0.000 HD
BRANCH  25  27
ATOM     27  C   UNL     1       5.820   4.376  17.710  0.00  0.00    +0.000 C 
ATOM     28  S   UNL     1       5.531   4.093  16.101  0.00  0.00    +0.000 S 
BRANCH  27  29
ATOM     29  N   UNL     1       7.058   4.282  18.241  0.00  0.00    +0.000 N 
ATOM     30  H   UNL     1       7.560   3.414  18.102  0.00  0.00    +0.000 HD
ATOM     31  H   UNL     1       7.488   5.063  18.712  0.00  0.00    +0.000 HD
ENDBRANCH  27  29
ENDBRANCH  25  27
ENDBRANCH  24  25
ENDBRANCH   4  22
TORSDOF 6
ENDMDL
MODEL 7
REMARK VINA RESULT:      -7.2      1.063      1.096
REMARK  Name = 
REMARK  8 active torsions:
REMARK  status: ('A' for Active; 'I' for Inactive)
REMARK    1  A    between atoms: C_1  and  C_2
REMARK    2  A    between atoms: C_5  and  C_6
REMARK    3  A    between atoms: N_15  and  C_16
REMARK    4  A    between atoms: C_19  and  C_20
REMARK    5  A    between atoms: C_20  and  C_21
REMARK    6  A    between atoms: N_22  and  N_23
REMARK    7  A    between atoms: N_23  and  C_24
REMARK    8  A    between atoms: C_24  and  N_25
REMARK                            x       y       z     vdW  Elec       q    Type
REMARK                         _______ _______ _______ _____ _____    ______ ____
ROOT
ATOM      1  C   UNL     1       0.941  10.179  18.911  0.00  0.00    +0.000 A 
ATOM      2  C   UNL     1       0.884   9.491  20.128  0.00  0.00    +0.000 A 
ATOM      3  C   UNL     1       1.430   8.207  20.250  0.00  0.00    +0.000 A 
ATOM      4  C   UNL     1       2.072   7.607  19.162  0.00  0.00    +0.000 A 
ATOM      5  C   UNL     1       2.174   8.321  17.958  0.00  0.00    +0.000 A 
ATOM      6  C   UNL     1       1.595   9.591  17.824  0.00  0.00    +0.000 A 
ENDROOT
BRANCH   1  14
ATOM      7  C   UNL     1      -1.940  10.964  18.331  0.00  0.00    +0.000 C 
ATOM      8  C   UNL     1      -0.803  11.918  18.545  0.00  0.00    +0.000 C 
ATOM      9  N   UNL     1      -0.975  13.209  18.538  0.00  0.00    +0.000 NA
ATOM     10  C   UNL     1       0.270  13.719  18.847  0.00  0.00    +0.000 C 
ATOM     11  C   UNL     1       0.572  15.026  18.878  0.00  0.00    +0.000 C 
ATOM     12  C   UNL     1       1.218  12.589  19.103  0.00  0.00    +0.000 C 
ATOM     13  O   UNL     1       2.381  12.647  19.464  0.00  0.00    +0.000 OA
ATOM     14  N   UNL     1       0.448  11.493  18.833  0.00  0.00    +0.000 N 
BRANCH  11  15
ATOM     15  C   UNL     1       1.924  15.541  19.108  0.00  0.00    +0.000 A 
ATOM     16  C   UNL     1       2.307  15.927  20.400  0.00  0.00    +0.000 A 
ATOM     17  C   UNL     1       3.542  16.544  20.613  0.00  0.00    +0.000 A 
ATOM     18  C   UNL     1       4.400  16.762  19.538  0.00  0.00    +0.000 A 
ATOM     19 CL   UNL     1       5.903  17.562  19.792  0.00  0.00    +0.000 Cl
ATOM     20  C   UNL     1       4.043  16.352  18.255  0.00  0.00    +0.000 A 
ATOM     21  C   UNL     1       2.804  15.740  18.039  0.00  0.00    +0.000 A 
ENDBRANCH  11  15
ENDBRANCH   1  14
BRANCH   4  22
ATOM     22  C   UNL     1       2.659   6.226  19.242  0.00  0.00    +0.000 C 
ATOM     23  C   UNL     1       2.255   5.337  20.407  0.00  0.00    +0.000 C 
ATOM     24  N   UNL     1       3.460   5.826  18.290  0.00  0.00    +0.000 NA
BRANCH  24  25
ATOM     25  N   UNL     1       3.953   4.551  18.365  0.00  0.00    +0.000 N 
ATOM     26  H   UNL     1       3.427   3.762  18.006  0.00  0.00    +0.000 HD
BRANCH  25  27
ATOM     27  C   UNL     1       5.177   4.271  18.898  0.00  0.00    +0.000 C 
ATOM     28  S   UNL     1       6.452   5.324  18.757  0.00  0.00    +0.000 S 
BRANCH  27  29
ATOM     29  N   UNL     1       5.292   3.093  19.547  0.00  0.00    +0.000 N 
ATOM     30  H   UNL     1       5.457   2.267  18.987  0.00  0.00    +0.000 HD
ATOM     31  H   UNL     1       5.266   3.044  20.555  0.00  0.00    +0.000 HD
ENDBRANCH  27  29
ENDBRANCH  25  27
ENDBRANCH  24  25
ENDBRANCH   4  22
TORSDOF 6
ENDMDL
MODEL 8
REMARK VINA RESULT:      -7.1      1.022      1.145
REMARK  Name = 
REMARK  8 active torsions:
REMARK  status: ('A' for Active; 'I' for Inactive)
REMARK    1  A    between atoms: C_1  and  C_2
REMARK    2  A    between atoms: C_5  and  C_6
REMARK    3  A    between atoms: N_15  and  C_16
REMARK    4  A    between atoms: C_19  and  C_20
REMARK    5  A    between atoms: C_20  and  C_21
REMARK    6  A    between atoms: N_22  and  N_23
REMARK    7  A    between atoms: N_23  and  C_24
REMARK    8  A    between atoms: C_24  and  N_25
REMARK                            x       y       z     vdW  Elec       q    Type
REMARK                         _______ _______ _______ _____ _____    ______ ____
ROOT
ATOM      1  C   UNL     1       1.027   9.765  18.838  0.00  0.00    +0.000 A 
ATOM      2  C   UNL     1       1.070   9.038  20.033  0.00  0.00    +0.000 A 
ATOM      3  C   UNL     1       1.778   7.832  20.111  0.00  0.00    +0.000 A 
ATOM      4  C   UNL     1       2.482   7.353  19.000  0.00  0.00    +0.000 A 
ATOM      5  C   UNL     1       2.479   8.112  17.819  0.00  0.00    +0.000 A 
ATOM      6  C   UNL     1       1.740   9.300  17.729  0.00  0.00    +0.000 A 
ENDROOT
BRANCH   1  14
ATOM      7  C   UNL     1      -1.909  10.200  18.169  0.00  0.00    +0.000 C 
ATOM      8  C   UNL     1      -0.918  11.280  18.482  0.00  0.00    +0.000 C 
ATOM      9  N   UNL     1      -1.258  12.536  18.533  0.00  0.00    +0.000 NA
ATOM     10  C   UNL     1      -0.104  13.185  18.923  0.00  0.00    +0.000 C 
ATOM     11  C   UNL     1       0.021  14.516  19.034  0.00  0.00    +0.000 C 
ATOM     12  C   UNL     1       0.975  12.176  19.165  0.00  0.00    +0.000 C 
ATOM     13  O   UNL     1       2.105  12.364  19.579  0.00  0.00    +0.000 OA
ATOM     14  N   UNL     1       0.367  11.005  18.804  0.00  0.00    +0.000 N 
BRANCH  11  15
ATOM     15  C   UNL     1       1.283  15.189  19.351  0.00  0.00    +0.000 A 
ATOM     16  C   UNL     1       1.562  15.549  20.676  0.00  0.00    +0.000 A 
ATOM     17  C   UNL     1       2.696  16.308  20.976  0.00  0.00    +0.000 A 
ATOM     18  C   UNL     1       3.557  16.696  19.953  0.00  0.00    +0.000 A 
ATOM     19 CL   UNL     1       4.931  17.669  20.315  0.00  0.00    +0.000 Cl
ATOM     20  C   UNL     1       3.307  16.315  18.636  0.00  0.00    +0.000 A 
ATOM     21  C   UNL     1       2.169  15.561  18.334  0.00  0.00    +0.000 A 
ENDBRANCH  11  15
ENDBRANCH   1  14
BRANCH   4  22
ATOM     22  C   UNL     1       3.243   6.058  19.033  0.00  0.00    +0.000 C 
ATOM     23  C   UNL     1       4.523   5.954  18.220  0.00  0.00    +0.000 C 
ATOM     24  N   UNL     1       2.801   5.087  19.786  0.00  0.00    +0.000 NA
BRANCH  24  25
ATOM     25  N   UNL     1       3.532   3.929  19.827  0.00  0.00    +0.000 N 
ATOM     26  H   UNL     1       4.429   3.891  20.300  0.00  0.00    +0.000 HD
BRANCH  25  27
ATOM     27  C   UNL     1       3.092   2.767  19.266  0.00  0.00    +0.000 C 
ATOM     28  S   UNL     1       1.480   2.488  18.986  0.00  0.00    +0.000 S 
BRANCH  27  29
ATOM     29  N   UNL     1       4.040   1.859  18.949  0.00  0.00    +0.000 N 
ATOM     30  H   UNL     1       4.034   0.984  19.457  0.00  0.00    +0.000 HD
ATOM     31  H   UNL     1       4.696   2.024  18.200  0.00  0.00    +0.000 HD
ENDBRANCH  27  29
ENDBRANCH  25  27
ENDBRANCH  24  25
ENDBRANCH   4  22
TORSDOF 6
ENDMDL
MODEL 9
REMARK VINA RESULT:      -7.1      4.905      9.409
REMARK  Name = 
REMARK  8 active torsions:
REMARK  status: ('A' for Active; 'I' for Inactive)
REMARK    1  A    between atoms: C_1  and  C_2
REMARK    2  A    between atoms: C_5  and  C_6
REMARK    3  A    between atoms: N_15  and  C_16
REMARK    4  A    between atoms: C_19  and  C_20
REMARK    5  A    between atoms: C_20  and  C_21
REMARK    6  A    between atoms: N_22  and  N_23
REMARK    7  A    between atoms: N_23  and  C_24
REMARK    8  A    between atoms: C_24  and  N_25
REMARK                            x       y       z     vdW  Elec       q    Type
REMARK                         _______ _______ _______ _____ _____    ______ ____
ROOT
ATOM      1  C   UNL     1       2.153   7.120  19.310  0.00  0.00    +0.000 A 
ATOM      2  C   UNL     1       1.745   7.383  20.623  0.00  0.00    +0.000 A 
ATOM      3  C   UNL     1       1.193   8.624  20.965  0.00  0.00    +0.000 A 
ATOM      4  C   UNL     1       1.011   9.609  19.988  0.00  0.00    +0.000 A 
ATOM      5  C   UNL     1       1.373   9.322  18.662  0.00  0.00    +0.000 A 
ATOM      6  C   UNL     1       1.960   8.094  18.327  0.00  0.00    +0.000 A 
ENDROOT
BRANCH   1  14
ATOM      7  C   UNL     1       1.387   4.513  20.678  0.00  0.00    +0.000 C 
ATOM      8  C   UNL     1       2.376   4.652  19.560  0.00  0.00    +0.000 C 
ATOM      9  N   UNL     1       2.979   3.622  19.039  0.00  0.00    +0.000 NA
ATOM     10  C   UNL     1       3.727   4.152  18.007  0.00  0.00    +0.000 C 
ATOM     11  C   UNL     1       4.571   3.447  17.238  0.00  0.00    +0.000 C 
ATOM     12  C   UNL     1       3.470   5.623  17.914  0.00  0.00    +0.000 C 
ATOM     13  O   UNL     1       3.898   6.413  17.091  0.00  0.00    +0.000 OA
ATOM     14  N   UNL     1       2.640   5.844  18.978  0.00  0.00    +0.000 N 
BRANCH  11  15
ATOM     15  C   UNL     1       5.431   4.048  16.216  0.00  0.00    +0.000 A 
ATOM     16  C   UNL     1       5.029   4.026  14.873  0.00  0.00    +0.000 A 
ATOM     17  C   UNL     1       5.895   4.473  13.872  0.00  0.00    +0.000 A 
ATOM     18  C   UNL     1       7.156   4.954  14.214  0.00  0.00    +0.000 A 
ATOM     19 CL   UNL     1       8.241   5.464  12.978  0.00  0.00    +0.000 Cl
ATOM     20  C   UNL     1       7.553   5.011  15.549  0.00  0.00    +0.000 A 
ATOM     21  C   UNL     1       6.690   4.558  16.551  0.00  0.00    +0.000 A 
ENDBRANCH  11  15
ENDBRANCH   1  14
BRANCH   4  22
ATOM     22  C   UNL     1       0.436  10.959  20.311  0.00  0.00    +0.000 C 
ATOM     23  C   UNL     1      -0.315  11.703  19.219  0.00  0.00    +0.000 C 
ATOM     24  N   UNL     1       0.567  11.425  21.524  0.00  0.00    +0.000 NA
BRANCH  24  25
ATOM     25  N   UNL     1       0.003  12.642  21.804  0.00  0.00    +0.000 N 
ATOM     26  H   UNL     1       0.283  13.478  21.304  0.00  0.00    +0.000 HD
BRANCH  25  27
ATOM     27  C   UNL     1      -0.976  12.794  22.742  0.00  0.00    +0.000 C 
ATOM     28  S   UNL     1      -1.254  14.252  23.485  0.00  0.00    +0.000 S 
BRANCH  27  29
ATOM     29  N   UNL     1      -1.705  11.695  23.029  0.00  0.00    +0.000 N 
ATOM     30  H   UNL     1      -2.704  11.747  22.876  0.00  0.00    +0.000 HD
ATOM     31  H   UNL     1      -1.267  10.839  23.334  0.00  0.00    +0.000 HD
ENDBRANCH  27  29
ENDBRANCH  25  27
ENDBRANCH  24  25
ENDBRANCH   4  22
TORSDOF 6
ENDMDL
