MODEL 1
REMARK VINA RESULT:      -6.3      0.000      0.000
REMARK  Name = 
REMARK  2 active torsions:
REMARK  status: ('A' for Active; 'I' for Inactive)
REMARK    1  A    between atoms: C_1  and  O_2
REMARK    2  A    between atoms: O_2  and  C_3
REMARK                            x       y       z     vdW  Elec       q    Type
REMARK                         _______ _______ _______ _____ _____    ______ ____
ROOT
ATOM      1  C   UNL     1       2.106   7.298  19.790  0.00  0.00    +0.000 A 
ATOM      2  C   UNL     1       1.624   6.200  20.499  0.00  0.00    +0.000 A 
ATOM      3  C   UNL     1       1.965   4.891  20.119  0.00  0.00    +0.000 A 
ATOM      4  C   UNL     1       2.819   4.661  19.023  0.00  0.00    +0.000 A 
ATOM      5  C   UNL     1       3.295   5.778  18.314  0.00  0.00    +0.000 A 
ATOM      6  C   UNL     1       2.923   7.084  18.686  0.00  0.00    +0.000 A 
ATOM      7  C   UNL     1       4.170   5.588  17.102  0.00  0.00    +0.000 C 
ATOM      8  C   UNL     1       4.965   4.298  17.226  0.00  0.00    +0.000 C 
ATOM      9  C   UNL     1       4.016   3.138  17.480  0.00  0.00    +0.000 C 
ATOM     10  N   UNL     1       3.177   3.374  18.651  0.00  0.00    +0.000 N 
ATOM     11  C   UNL     1       2.641   2.212  19.355  0.00  0.00    +0.000 C 
ATOM     12  C   UNL     1       1.297   2.510  20.003  0.00  0.00    +0.000 C 
ATOM     13  C   UNL     1       1.429   3.726  20.908  0.00  0.00    +0.000 C 
ENDROOT
BRANCH   1  15
ATOM     14  C   UNL     1       0.996   8.522  21.478  0.00  0.00    +0.000 C 
ATOM     15  O   UNL     1       1.683   8.522  20.231  0.00  0.00    +0.000 OA
ENDBRANCH   1  15
TORSDOF 1
ENDMDL
MODEL 2
REMARK VINA RESULT:      -6.3      2.628      4.858
REMARK  Name = 
REMARK  2 active torsions:
REMARK  status: ('A' for Active; 'I' for Inactive)
REMARK    1  A    between atoms: C_1  and  O_2
REMARK    2  A    between atoms: O_2  and  C_3
REMARK                            x       y       z     vdW  Elec       q    Type
REMARK                         _______ _______ _______ _____ _____    ______ ____
ROOT
ATOM      1  C   UNL     1       5.602   5.063  15.516  0.00  0.00    +0.000 A 
ATOM      2  C   UNL     1       5.172   3.879  16.110  0.00  0.00    +0.000 A 
ATOM      3  C   UNL     1       4.279   3.900  17.194  0.00  0.00    +0.000 A 
ATOM      4  C   UNL     1       3.783   5.120  17.692  0.00  0.00    +0.000 A 
ATOM      5  C   UNL     1       4.227   6.308  17.086  0.00  0.00    +0.000 A 
ATOM      6  C   UNL     1       5.146   6.277  16.018  0.00  0.00    +0.000 A 
ATOM      7  C   UNL     1       3.769   7.644  17.612  0.00  0.00    +0.000 C 
ATOM      8  C   UNL     1       2.392   7.514  18.243  0.00  0.00    +0.000 C 
ATOM      9  C   UNL     1       2.417   6.420  19.298  0.00  0.00    +0.000 C 
ATOM     10  N   UNL     1       2.885   5.151  18.750  0.00  0.00    +0.000 N 
ATOM     11  C   UNL     1       2.463   3.920  19.413  0.00  0.00    +0.000 C 
ATOM     12  C   UNL     1       3.504   2.818  19.282  0.00  0.00    +0.000 C 
ATOM     13  C   UNL     1       3.832   2.602  17.812  0.00  0.00    +0.000 C 
ENDROOT
BRANCH   1  15
ATOM     14  C   UNL     1       6.219   3.869  13.574  0.00  0.00    +0.000 C 
ATOM     15  O   UNL     1       6.496   4.923  14.490  0.00  0.00    +0.000 OA
ENDBRANCH   1  15
TORSDOF 1
ENDMDL
MODEL 3
REMARK VINA RESULT:      -6.3      2.374      5.079
REMARK  Name = 
REMARK  2 active torsions:
REMARK  status: ('A' for Active; 'I' for Inactive)
REMARK    1  A    between atoms: C_1  and  O_2
REMARK    2  A    between atoms: O_2  and  C_3
REMARK                            x       y       z     vdW  Elec       q    Type
REMARK                         _______ _______ _______ _____ _____    ______ ____
ROOT
ATOM      1  C   UNL     1       4.874   4.019  16.709  0.00  0.00    +0.000 A 
ATOM      2  C   UNL     1       4.689   5.400  16.696  0.00  0.00    +0.000 A 
ATOM      3  C   UNL     1       3.860   6.025  17.642  0.00  0.00    +0.000 A 
ATOM      4  C   UNL     1       3.213   5.270  18.639  0.00  0.00    +0.000 A 
ATOM      5  C   UNL     1       3.406   3.878  18.640  0.00  0.00    +0.000 A 
ATOM      6  C   UNL     1       4.216   3.258  17.668  0.00  0.00    +0.000 A 
ATOM      7  C   UNL     1       2.697   3.016  19.653  0.00  0.00    +0.000 C 
ATOM      8  C   UNL     1       2.440   3.806  20.926  0.00  0.00    +0.000 C 
ATOM      9  C   UNL     1       1.695   5.087  20.588  0.00  0.00    +0.000 C 
ATOM     10  N   UNL     1       2.407   5.879  19.591  0.00  0.00    +0.000 N 
ATOM     11  C   UNL     1       2.166   7.319  19.559  0.00  0.00    +0.000 C 
ATOM     12  C   UNL     1       2.315   7.890  18.157  0.00  0.00    +0.000 C 
ATOM     13  C   UNL     1       3.682   7.519  17.601  0.00  0.00    +0.000 C 
ENDROOT
BRANCH   1  15
ATOM     14  C   UNL     1       6.584   4.446  15.136  0.00  0.00    +0.000 C 
ATOM     15  O   UNL     1       5.676   3.518  15.721  0.00  0.00    +0.000 OA
ENDBRANCH   1  15
TORSDOF 1
ENDMDL
MODEL 4
REMARK VINA RESULT:      -6.3      0.164      3.004
REMARK  Name = 
REMARK  2 active torsions:
REMARK  status: ('A' for Active; 'I' for Inactive)
REMARK    1  A    between atoms: C_1  and  O_2
REMARK    2  A    between atoms: O_2  and  C_3
REMARK                            x       y       z     vdW  Elec       q    Type
REMARK                         _______ _______ _______ _____ _____    ______ ____
ROOT
ATOM      1  C   UNL     1       2.008   7.182  19.958  0.00  0.00    +0.000 A 
ATOM      2  C   UNL     1       2.840   7.069  18.846  0.00  0.00    +0.000 A 
ATOM      3  C   UNL     1       3.245   5.809  18.376  0.00  0.00    +0.000 A 
ATOM      4  C   UNL     1       2.803   4.630  19.006  0.00  0.00    +0.000 A 
ATOM      5  C   UNL     1       1.966   4.759  20.129  0.00  0.00    +0.000 A 
ATOM      6  C   UNL     1       1.590   6.027  20.610  0.00  0.00    +0.000 A 
ATOM      7  C   UNL     1       1.505   3.532  20.873  0.00  0.00    +0.000 C 
ATOM      8  C   UNL     1       1.429   2.343  19.928  0.00  0.00    +0.000 C 
ATOM      9  C   UNL     1       2.766   2.164  19.228  0.00  0.00    +0.000 C 
ATOM     10  N   UNL     1       3.182   3.381  18.538  0.00  0.00    +0.000 N 
ATOM     11  C   UNL     1       4.092   3.248  17.403  0.00  0.00    +0.000 C 
ATOM     12  C   UNL     1       4.995   4.464  17.254  0.00  0.00    +0.000 C 
ATOM     13  C   UNL     1       4.143   5.722  17.170  0.00  0.00    +0.000 C 
ENDROOT
BRANCH   1  15
ATOM     14  C   UNL     1       0.906   8.570  21.520  0.00  0.00    +0.000 C 
ATOM     15  O   UNL     1       1.704   8.458  20.346  0.00  0.00    +0.000 OA
ENDBRANCH   1  15
TORSDOF 1
ENDMDL
MODEL 5
REMARK VINA RESULT:      -6.3      2.603      5.170
REMARK  Name = 
REMARK  2 active torsions:
REMARK  status: ('A' for Active; 'I' for Inactive)
REMARK    1  A    between atoms: C_1  and  O_2
REMARK    2  A    between atoms: O_2  and  C_3
REMARK                            x       y       z     vdW  Elec       q    Type
REMARK                         _______ _______ _______ _____ _____    ______ ____
ROOT
ATOM      1  C   UNL     1       5.570   4.958  15.575  0.00  0.00    +0.000 A 
ATOM      2  C   UNL     1       5.118   6.191  16.040  0.00  0.00    +0.000 A 
ATOM      3  C   UNL     1       4.238   6.270  17.132  0.00  0.00    +0.000 A 
ATOM      4  C   UNL     1       3.808   5.104  17.794  0.00  0.00    +0.000 A 
ATOM      5  C   UNL     1       4.269   3.867  17.313  0.00  0.00    +0.000 A 
ATOM      6  C   UNL     1       5.128   3.797  16.199  0.00  0.00    +0.000 A 
ATOM      7  C   UNL     1       3.800   2.584  17.951  0.00  0.00    +0.000 C 
ATOM      8  C   UNL     1       3.467   2.819  19.416  0.00  0.00    +0.000 C 
ATOM      9  C   UNL     1       2.468   3.959  19.534  0.00  0.00    +0.000 C 
ATOM     10  N   UNL     1       2.954   5.173  18.886  0.00  0.00    +0.000 N 
ATOM     11  C   UNL     1       2.435   6.455  19.353  0.00  0.00    +0.000 C 
ATOM     12  C   UNL     1       2.391   7.491  18.240  0.00  0.00    +0.000 C 
ATOM     13  C   UNL     1       3.770   7.619  17.611  0.00  0.00    +0.000 C 
ENDROOT
BRANCH   1  15
ATOM     14  C   UNL     1       6.270   3.913  13.576  0.00  0.00    +0.000 C 
ATOM     15  O   UNL     1       6.397   5.000  14.486  0.00  0.00    +0.000 OA
ENDBRANCH   1  15
TORSDOF 1
ENDMDL
MODEL 6
REMARK VINA RESULT:      -6.3      2.421      4.492
REMARK  Name = 
REMARK  2 active torsions:
REMARK  status: ('A' for Active; 'I' for Inactive)
REMARK    1  A    between atoms: C_1  and  O_2
REMARK    2  A    between atoms: O_2  and  C_3
REMARK                            x       y       z     vdW  Elec       q    Type
REMARK                         _______ _______ _______ _____ _____    ______ ____
ROOT
ATOM      1  C   UNL     1       4.929   4.117  16.532  0.00  0.00    +0.000 A 
ATOM      2  C   UNL     1       4.281   3.307  17.462  0.00  0.00    +0.000 A 
ATOM      3  C   UNL     1       3.439   3.864  18.439  0.00  0.00    +0.000 A 
ATOM      4  C   UNL     1       3.217   5.254  18.488  0.00  0.00    +0.000 A 
ATOM      5  C   UNL     1       3.879   6.060  17.546  0.00  0.00    +0.000 A 
ATOM      6  C   UNL     1       4.744   5.494  16.589  0.00  0.00    +0.000 A 
ATOM      7  C   UNL     1       3.717   7.558  17.585  0.00  0.00    +0.000 C 
ATOM      8  C   UNL     1       2.360   7.924  18.163  0.00  0.00    +0.000 C 
ATOM      9  C   UNL     1       2.188   7.258  19.519  0.00  0.00    +0.000 C 
ATOM     10  N   UNL     1       2.372   5.812  19.437  0.00  0.00    +0.000 N 
ATOM     11  C   UNL     1       1.725   4.981  20.448  0.00  0.00    +0.000 C 
ATOM     12  C   UNL     1       2.514   3.711  20.731  0.00  0.00    +0.000 C 
ATOM     13  C   UNL     1       2.752   2.961  19.429  0.00  0.00    +0.000 C 
ENDROOT
BRANCH   1  15
ATOM     14  C   UNL     1       6.091   4.202  14.478  0.00  0.00    +0.000 C 
ATOM     15  O   UNL     1       5.748   3.469  15.649  0.00  0.00    +0.000 OA
ENDBRANCH   1  15
TORSDOF 1
ENDMDL
MODEL 7
REMARK VINA RESULT:      -6.1      0.910      3.182
REMARK  Name = 
REMARK  2 active torsions:
REMARK  status: ('A' for Active; 'I' for Inactive)
REMARK    1  A    between atoms: C_1  and  O_2
REMARK    2  A    between atoms: O_2  and  C_3
REMARK                            x       y       z     vdW  Elec       q    Type
REMARK                         _______ _______ _______ _____ _____    ______ ____
ROOT
ATOM      1  C   UNL     1       2.194   7.522  19.218  0.00  0.00    +0.000 A 
ATOM      2  C   UNL     1       3.001   7.125  18.154  0.00  0.00    +0.000 A 
ATOM      3  C   UNL     1       3.438   5.795  18.038  0.00  0.00    +0.000 A 
ATOM      4  C   UNL     1       3.053   4.827  18.986  0.00  0.00    +0.000 A 
ATOM      5  C   UNL     1       2.241   5.242  20.056  0.00  0.00    +0.000 A 
ATOM      6  C   UNL     1       1.833   6.584  20.179  0.00  0.00    +0.000 A 
ATOM      7  C   UNL     1       1.841   4.259  21.127  0.00  0.00    +0.000 C 
ATOM      8  C   UNL     1       1.782   2.852  20.553  0.00  0.00    +0.000 C 
ATOM      9  C   UNL     1       3.107   2.520  19.885  0.00  0.00    +0.000 C 
ATOM     10  N   UNL     1       3.463   3.507  18.871  0.00  0.00    +0.000 N 
ATOM     11  C   UNL     1       4.348   3.088  17.788  0.00  0.00    +0.000 C 
ATOM     12  C   UNL     1       5.205   4.237  17.276  0.00  0.00    +0.000 C 
ATOM     13  C   UNL     1       4.308   5.399  16.875  0.00  0.00    +0.000 C 
ENDROOT
BRANCH   1  15
ATOM     14  C   UNL     1       1.699   9.467  17.975  0.00  0.00    +0.000 C 
ATOM     15  O   UNL     1       1.857   8.847  19.247  0.00  0.00    +0.000 OA
ENDBRANCH   1  15
TORSDOF 1
ENDMDL
MODEL 8
REMARK VINA RESULT:      -6.1      1.599      1.943
REMARK  Name = 
REMARK  2 active torsions:
REMARK  status: ('A' for Active; 'I' for Inactive)
REMARK    1  A    between atoms: C_1  and  O_2
REMARK    2  A    between atoms: O_2  and  C_3
REMARK                            x       y       z     vdW  Elec       q    Type
REMARK                         _______ _______ _______ _____ _____    ______ ____
ROOT
ATOM      1  C   UNL     1       2.544   7.438  18.489  0.00  0.00    +0.000 A 
ATOM      2  C   UNL     1       2.052   6.215  18.942  0.00  0.00    +0.000 A 
ATOM      3  C   UNL     1       2.611   5.006  18.498  0.00  0.00    +0.000 A 
ATOM      4  C   UNL     1       3.696   5.003  17.599  0.00  0.00    +0.000 A 
ATOM      5  C   UNL     1       4.180   6.243  17.148  0.00  0.00    +0.000 A 
ATOM      6  C   UNL     1       3.593   7.449  17.577  0.00  0.00    +0.000 A 
ATOM      7  C   UNL     1       5.305   6.298  16.146  0.00  0.00    +0.000 C 
ATOM      8  C   UNL     1       6.198   5.076  16.293  0.00  0.00    +0.000 C 
ATOM      9  C   UNL     1       5.355   3.815  16.195  0.00  0.00    +0.000 C 
ATOM     10  N   UNL     1       4.268   3.814  17.169  0.00  0.00    +0.000 N 
ATOM     11  C   UNL     1       3.732   2.525  17.597  0.00  0.00    +0.000 C 
ATOM     12  C   UNL     1       2.258   2.615  17.961  0.00  0.00    +0.000 C 
ATOM     13  C   UNL     1       2.058   3.701  19.007  0.00  0.00    +0.000 C 
ENDROOT
BRANCH   1  15
ATOM     14  C   UNL     1       1.673   9.580  18.009  0.00  0.00    +0.000 C 
ATOM     15  O   UNL     1       1.902   8.548  18.963  0.00  0.00    +0.000 OA
ENDBRANCH   1  15
TORSDOF 1
ENDMDL
MODEL 9
REMARK VINA RESULT:      -6.0      1.650      3.546
REMARK  Name = 
REMARK  2 active torsions:
REMARK  status: ('A' for Active; 'I' for Inactive)
REMARK    1  A    between atoms: C_1  and  O_2
REMARK    2  A    between atoms: O_2  and  C_3
REMARK                            x       y       z     vdW  Elec       q    Type
REMARK                         _______ _______ _______ _____ _____    ______ ____
ROOT
ATOM      1  C   UNL     1       2.583   7.307  18.469  0.00  0.00    +0.000 A 
ATOM      2  C   UNL     1       3.683   7.315  17.614  0.00  0.00    +0.000 A 
ATOM      3  C   UNL     1       4.250   6.113  17.159  0.00  0.00    +0.000 A 
ATOM      4  C   UNL     1       3.707   4.872  17.543  0.00  0.00    +0.000 A 
ATOM      5  C   UNL     1       2.599   4.878  18.409  0.00  0.00    +0.000 A 
ATOM      6  C   UNL     1       2.056   6.088  18.881  0.00  0.00    +0.000 A 
ATOM      7  C   UNL     1       2.009   3.578  18.892  0.00  0.00    +0.000 C 
ATOM      8  C   UNL     1       2.235   2.484  17.861  0.00  0.00    +0.000 C 
ATOM      9  C   UNL     1       3.716   2.395  17.530  0.00  0.00    +0.000 C 
ATOM     10  N   UNL     1       4.248   3.679  17.085  0.00  0.00    +0.000 N 
ATOM     11  C   UNL     1       5.430   3.672  16.228  0.00  0.00    +0.000 C 
ATOM     12  C   UNL     1       6.289   4.911  16.432  0.00  0.00    +0.000 C 
ATOM     13  C   UNL     1       5.438   6.156  16.235  0.00  0.00    +0.000 C 
ENDROOT
BRANCH   1  15
ATOM     14  C   UNL     1       1.832   9.452  17.826  0.00  0.00    +0.000 C 
ATOM     15  O   UNL     1       2.135   8.535  18.872  0.00  0.00    +0.000 OA
ENDBRANCH   1  15
TORSDOF 1
ENDMDL
