MODEL 1
REMARK VINA RESULT:      -8.6      0.000      0.000
REMARK  Name = 
REMARK  11 active torsions:
REMARK  status: ('A' for Active; 'I' for Inactive)
REMARK    1  A    between atoms: C_2  and  O_3
REMARK    2  A    between atoms: C_2  and  C_4
REMARK    3  A    between atoms: N_7  and  C_8
REMARK    4  A    between atoms: C_8  and  C_9
REMARK    5  A    between atoms: C_12  and  C_13
REMARK    6  A    between atoms: C_13  and  C_14
REMARK    7  A    between atoms: C_14  and  C_15
REMARK    8  A    between atoms: C_18  and  C_19
REMARK    9  A    between atoms: C_19  and  N_20
REMARK   10  A    between atoms: C_23  and  C_24
REMARK   11  A    between atoms: C_24  and  O_26
REMARK                            x       y       z     vdW  Elec       q    Type
REMARK                         _______ _______ _______ _____ _____    ______ ____
ROOT
ATOM      1  C   UNL     1      -0.218  10.394  18.347  0.00  0.00    +0.000 C 
ENDROOT
BRANCH   1   5
ATOM      2  C   UNL     1      -4.363  11.399  17.537  0.00  0.00    +0.000 A 
ATOM      3  C   UNL     1      -3.622  10.665  16.602  0.00  0.00    +0.000 A 
ATOM      4  C   UNL     1      -2.276  10.371  16.832  0.00  0.00    +0.000 A 
ATOM      5  C   UNL     1      -1.628  10.819  17.989  0.00  0.00    +0.000 A 
ATOM      6  C   UNL     1      -2.357  11.603  18.895  0.00  0.00    +0.000 A 
ATOM      7  C   UNL     1      -3.706  11.897  18.670  0.00  0.00    +0.000 A 
BRANCH   2   8
ATOM      8  C   UNL     1      -5.857  11.533  17.380  0.00  0.00    +0.000 C 
BRANCH   8  12
ATOM      9  C   UNL     1      -7.352  11.896  21.343  0.00  0.00    +0.000 A 
ATOM     10  C   UNL     1      -7.380  10.665  20.690  0.00  0.00    +0.000 A 
ATOM     11  C   UNL     1      -6.940  10.582  19.377  0.00  0.00    +0.000 A 
ATOM     12  N   UNL     1      -6.471  11.680  18.734  0.00  0.00    +0.000 N 
ATOM     13  C   UNL     1      -6.463  12.887  19.348  0.00  0.00    +0.000 A 
ATOM     14  C   UNL     1      -6.895  13.025  20.664  0.00  0.00    +0.000 A 
BRANCH   9  16
ATOM     15  O   UNL     1      -7.861  10.883  23.402  0.00  0.00    +0.000 OA
ATOM     16  C   UNL     1      -7.672  11.919  22.789  0.00  0.00    +0.000 C 
BRANCH  16  17
ATOM     17  O   UNL     1      -7.718  13.142  23.338  0.00  0.00    +0.000 OA
ATOM     18  H   UNL     1      -7.185  13.314  24.134  0.00  0.00    +0.000 HD
ENDBRANCH  16  17
ENDBRANCH   9  16
ENDBRANCH   8  12
ENDBRANCH   2   8
ENDBRANCH   1   5
BRANCH   1  19
ATOM     19  C   UNL     1      -0.016   9.820  19.760  0.00  0.00    +0.000 C 
BRANCH  19  20
ATOM     20  C   UNL     1       0.989   8.692  19.759  0.00  0.00    +0.000 A 
ATOM     21  C   UNL     1       1.782   8.457  18.629  0.00  0.00    +0.000 A 
ATOM     22  C   UNL     1       2.635   7.352  18.576  0.00  0.00    +0.000 A 
ATOM     23  C   UNL     1       2.708   6.455  19.653  0.00  0.00    +0.000 A 
ATOM     24  C   UNL     1       1.959   6.729  20.807  0.00  0.00    +0.000 A 
ATOM     25  C   UNL     1       1.103   7.834  20.857  0.00  0.00    +0.000 A 
BRANCH  23  26
ATOM     26  C   UNL     1       3.562   5.214  19.562  0.00  0.00    +0.000 C 
BRANCH  26  27
ATOM     27  N   UNL     1       4.318   5.189  18.289  0.00  0.00    +0.000 N 
ATOM     28  C   UNL     1       3.946   4.336  17.309  0.00  0.00    +0.000 A 
ATOM     29  C   UNL     1       4.713   4.210  16.160  0.00  0.00    +0.000 A 
ATOM     30  C   UNL     1       5.878   4.969  16.008  0.00  0.00    +0.000 A 
ATOM     31  C   UNL     1       6.200   5.898  16.996  0.00  0.00    +0.000 A 
ATOM     32  C   UNL     1       5.397   5.991  18.129  0.00  0.00    +0.000 A 
BRANCH  30  33
ATOM     33  C   UNL     1       6.714   4.675  14.811  0.00  0.00    +0.000 C 
ATOM     34  O   UNL     1       7.588   5.454  14.466  0.00  0.00    +0.000 OA
BRANCH  33  35
ATOM     35  O   UNL     1       6.429   3.561  14.120  0.00  0.00    +0.000 OA
ATOM     36  H   UNL     1       5.854   3.578  13.340  0.00  0.00    +0.000 HD
ENDBRANCH  33  35
ENDBRANCH  30  33
ENDBRANCH  26  27
ENDBRANCH  23  26
ENDBRANCH  19  20
ENDBRANCH   1  19
TORSDOF 11
ENDMDL
MODEL 2
REMARK VINA RESULT:      -8.2      6.423     10.447
REMARK  Name = 
REMARK  11 active torsions:
REMARK  status: ('A' for Active; 'I' for Inactive)
REMARK    1  A    between atoms: C_2  and  O_3
REMARK    2  A    between atoms: C_2  and  C_4
REMARK    3  A    between atoms: N_7  and  C_8
REMARK    4  A    between atoms: C_8  and  C_9
REMARK    5  A    between atoms: C_12  and  C_13
REMARK    6  A    between atoms: C_13  and  C_14
REMARK    7  A    between atoms: C_14  and  C_15
REMARK    8  A    between atoms: C_18  and  C_19
REMARK    9  A    between atoms: C_19  and  N_20
REMARK   10  A    between atoms: C_23  and  C_24
REMARK   11  A    between atoms: C_24  and  O_26
REMARK                            x       y       z     vdW  Elec       q    Type
REMARK                         _______ _______ _______ _____ _____    ______ ____
ROOT
ATOM      1  C   UNL     1       0.605  11.575  19.179  0.00  0.00    +0.000 C 
ENDROOT
BRANCH   1   5
ATOM      2  C   UNL     1       2.082   7.493  19.175  0.00  0.00    +0.000 A 
ATOM      3  C   UNL     1       1.648   8.082  20.369  0.00  0.00    +0.000 A 
ATOM      4  C   UNL     1       1.210   9.408  20.392  0.00  0.00    +0.000 A 
ATOM      5  C   UNL     1       1.213  10.187  19.229  0.00  0.00    +0.000 A 
ATOM      6  C   UNL     1       1.703   9.612  18.047  0.00  0.00    +0.000 A 
ATOM      7  C   UNL     1       2.139   8.283  18.020  0.00  0.00    +0.000 A 
BRANCH   2   8
ATOM      8  C   UNL     1       2.356   6.010  19.119  0.00  0.00    +0.000 C 
BRANCH   8  12
ATOM      9  C   UNL     1       6.170   5.147  17.453  0.00  0.00    +0.000 A 
ATOM     10  C   UNL     1       5.889   4.815  18.777  0.00  0.00    +0.000 A 
ATOM     11  C   UNL     1       4.657   5.157  19.317  0.00  0.00    +0.000 A 
ATOM     12  N   UNL     1       3.726   5.795  18.565  0.00  0.00    +0.000 N 
ATOM     13  C   UNL     1       3.997   6.147  17.286  0.00  0.00    +0.000 A 
ATOM     14  C   UNL     1       5.217   5.829  16.697  0.00  0.00    +0.000 A 
BRANCH   9  16
ATOM     15  O   UNL     1       7.641   4.733  15.667  0.00  0.00    +0.000 OA
ATOM     16  C   UNL     1       7.423   4.624  16.860  0.00  0.00    +0.000 C 
BRANCH  16  17
ATOM     17  O   UNL     1       8.265   4.053  17.734  0.00  0.00    +0.000 OA
ATOM     18  H   UNL     1       8.122   4.205  18.685  0.00  0.00    +0.000 HD
ENDBRANCH  16  17
ENDBRANCH   9  16
ENDBRANCH   8  12
ENDBRANCH   2   8
ENDBRANCH   1   5
BRANCH   1  19
ATOM     19  C   UNL     1       1.036  12.549  20.289  0.00  0.00    +0.000 C 
BRANCH  19  20
ATOM     20  C   UNL     1       2.190  13.417  19.843  0.00  0.00    +0.000 A 
ATOM     21  C   UNL     1       2.558  13.459  18.493  0.00  0.00    +0.000 A 
ATOM     22  C   UNL     1       3.690  14.170  18.087  0.00  0.00    +0.000 A 
ATOM     23  C   UNL     1       4.481  14.849  19.026  0.00  0.00    +0.000 A 
ATOM     24  C   UNL     1       4.073  14.856  20.368  0.00  0.00    +0.000 A 
ATOM     25  C   UNL     1       2.942  14.140  20.773  0.00  0.00    +0.000 A 
BRANCH  23  26
ATOM     26  C   UNL     1       5.752  15.544  18.601  0.00  0.00    +0.000 C 
BRANCH  26  27
ATOM     27  N   UNL     1       6.900  14.610  18.647  0.00  0.00    +0.000 N 
ATOM     28  C   UNL     1       7.709  14.601  19.729  0.00  0.00    +0.000 A 
ATOM     29  C   UNL     1       8.858  13.824  19.741  0.00  0.00    +0.000 A 
ATOM     30  C   UNL     1       9.186  13.042  18.628  0.00  0.00    +0.000 A 
ATOM     31  C   UNL     1       8.299  13.007  17.555  0.00  0.00    +0.000 A 
ATOM     32  C   UNL     1       7.155  13.801  17.592  0.00  0.00    +0.000 A 
BRANCH  30  33
ATOM     33  C   UNL     1      10.502  12.345  18.668  0.00  0.00    +0.000 C 
ATOM     34  O   UNL     1      10.578  11.199  19.077  0.00  0.00    +0.000 OA
BRANCH  33  35
ATOM     35  O   UNL     1      11.580  13.045  18.284  0.00  0.00    +0.000 OA
ATOM     36  H   UNL     1      11.720  13.962  18.568  0.00  0.00    +0.000 HD
ENDBRANCH  33  35
ENDBRANCH  30  33
ENDBRANCH  26  27
ENDBRANCH  23  26
ENDBRANCH  19  20
ENDBRANCH   1  19
TORSDOF 11
ENDMDL
MODEL 3
REMARK VINA RESULT:      -8.2      6.288      9.146
REMARK  Name = 
REMARK  11 active torsions:
REMARK  status: ('A' for Active; 'I' for Inactive)
REMARK    1  A    between atoms: C_2  and  O_3
REMARK    2  A    between atoms: C_2  and  C_4
REMARK    3  A    between atoms: N_7  and  C_8
REMARK    4  A    between atoms: C_8  and  C_9
REMARK    5  A    between atoms: C_12  and  C_13
REMARK    6  A    between atoms: C_13  and  C_14
REMARK    7  A    between atoms: C_14  and  C_15
REMARK    8  A    between atoms: C_18  and  C_19
REMARK    9  A    between atoms: C_19  and  N_20
REMARK   10  A    between atoms: C_23  and  C_24
REMARK   11  A    between atoms: C_24  and  O_26
REMARK                            x       y       z     vdW  Elec       q    Type
REMARK                         _______ _______ _______ _____ _____    ______ ____
ROOT
ATOM      1  C   UNL     1       1.240  11.879  20.567  0.00  0.00    +0.000 C 
ENDROOT
BRANCH   1   5
ATOM      2  C   UNL     1       3.954  15.006  19.262  0.00  0.00    +0.000 A 
ATOM      3  C   UNL     1       3.552  14.939  20.602  0.00  0.00    +0.000 A 
ATOM      4  C   UNL     1       2.646  13.963  21.026  0.00  0.00    +0.000 A 
ATOM      5  C   UNL     1       2.103  13.043  20.122  0.00  0.00    +0.000 A 
ATOM      6  C   UNL     1       2.464  13.150  18.770  0.00  0.00    +0.000 A 
ATOM      7  C   UNL     1       3.372  14.124  18.342  0.00  0.00    +0.000 A 
BRANCH   2   8
ATOM      8  C   UNL     1       5.081  15.924  18.856  0.00  0.00    +0.000 C 
BRANCH   8  12
ATOM      9  C   UNL     1       8.566  13.492  18.942  0.00  0.00    +0.000 A 
ATOM     10  C   UNL     1       8.134  14.145  20.096  0.00  0.00    +0.000 A 
ATOM     11  C   UNL     1       7.027  14.979  20.031  0.00  0.00    +0.000 A 
ATOM     12  N   UNL     1       6.358  15.149  18.863  0.00  0.00    +0.000 N 
ATOM     13  C   UNL     1       6.783  14.542  17.731  0.00  0.00    +0.000 A 
ATOM     14  C   UNL     1       7.889  13.697  17.741  0.00  0.00    +0.000 A 
BRANCH   9  16
ATOM     15  O   UNL     1       9.391  11.343  19.416  0.00  0.00    +0.000 OA
ATOM     16  C   UNL     1       9.644  12.485  19.080  0.00  0.00    +0.000 C 
BRANCH  16  17
ATOM     17  O   UNL     1      10.876  12.936  18.798  0.00  0.00    +0.000 OA
ATOM     18  H   UNL     1      11.641  12.455  19.160  0.00  0.00    +0.000 HD
ENDBRANCH  16  17
ENDBRANCH   9  16
ENDBRANCH   8  12
ENDBRANCH   2   8
ENDBRANCH   1   5
BRANCH   1  19
ATOM     19  C   UNL     1       0.654  10.998  19.450  0.00  0.00    +0.000 C 
BRANCH  19  20
ATOM     20  C   UNL     1       1.183   9.584  19.528  0.00  0.00    +0.000 A 
ATOM     21  C   UNL     1       1.721   8.970  18.391  0.00  0.00    +0.000 A 
ATOM     22  C   UNL     1       2.110   7.629  18.424  0.00  0.00    +0.000 A 
ATOM     23  C   UNL     1       1.963   6.873  19.596  0.00  0.00    +0.000 A 
ATOM     24  C   UNL     1       1.482   7.509  20.751  0.00  0.00    +0.000 A 
ATOM     25  C   UNL     1       1.089   8.851  20.714  0.00  0.00    +0.000 A 
BRANCH  23  26
ATOM     26  C   UNL     1       2.301   5.402  19.609  0.00  0.00    +0.000 C 
BRANCH  26  27
ATOM     27  N   UNL     1       3.574   5.150  18.894  0.00  0.00    +0.000 N 
ATOM     28  C   UNL     1       4.742   5.528  19.459  0.00  0.00    +0.000 A 
ATOM     29  C   UNL     1       5.931   5.414  18.755  0.00  0.00    +0.000 A 
ATOM     30  C   UNL     1       5.928   4.904  17.452  0.00  0.00    +0.000 A 
ATOM     31  C   UNL     1       4.724   4.450  16.918  0.00  0.00    +0.000 A 
ATOM     32  C   UNL     1       3.557   4.581  17.666  0.00  0.00    +0.000 A 
BRANCH  30  33
ATOM     33  C   UNL     1       7.224   4.942  16.718  0.00  0.00    +0.000 C 
ATOM     34  O   UNL     1       7.382   5.720  15.791  0.00  0.00    +0.000 OA
BRANCH  33  35
ATOM     35  O   UNL     1       8.167   4.064  17.089  0.00  0.00    +0.000 OA
ATOM     36  H   UNL     1       8.888   4.314  17.687  0.00  0.00    +0.000 HD
ENDBRANCH  33  35
ENDBRANCH  30  33
ENDBRANCH  26  27
ENDBRANCH  23  26
ENDBRANCH  19  20
ENDBRANCH   1  19
TORSDOF 11
ENDMDL
MODEL 4
REMARK VINA RESULT:      -8.2      8.402     11.893
REMARK  Name = 
REMARK  11 active torsions:
REMARK  status: ('A' for Active; 'I' for Inactive)
REMARK    1  A    between atoms: C_2  and  O_3
REMARK    2  A    between atoms: C_2  and  C_4
REMARK    3  A    between atoms: N_7  and  C_8
REMARK    4  A    between atoms: C_8  and  C_9
REMARK    5  A    between atoms: C_12  and  C_13
REMARK    6  A    between atoms: C_13  and  C_14
REMARK    7  A    between atoms: C_14  and  C_15
REMARK    8  A    between atoms: C_18  and  C_19
REMARK    9  A    between atoms: C_19  and  N_20
REMARK   10  A    between atoms: C_23  and  C_24
REMARK   11  A    between atoms: C_24  and  O_26
REMARK                            x       y       z     vdW  Elec       q    Type
REMARK                         _______ _______ _______ _____ _____    ______ ____
ROOT
ATOM      1  C   UNL     1       8.784   8.513  18.575  0.00  0.00    +0.000 C 
ENDROOT
BRANCH   1   5
ATOM      2  C   UNL     1       6.158   5.279  17.354  0.00  0.00    +0.000 A 
ATOM      3  C   UNL     1       6.049   6.538  16.750  0.00  0.00    +0.000 A 
ATOM      4  C   UNL     1       6.860   7.598  17.163  0.00  0.00    +0.000 A 
ATOM      5  C   UNL     1       7.784   7.436  18.202  0.00  0.00    +0.000 A 
ATOM      6  C   UNL     1       7.849   6.191  18.843  0.00  0.00    +0.000 A 
ATOM      7  C   UNL     1       7.042   5.125  18.431  0.00  0.00    +0.000 A 
BRANCH   2   8
ATOM      8  C   UNL     1       5.431   4.093  16.768  0.00  0.00    +0.000 C 
BRANCH   8  12
ATOM      9  C   UNL     1       2.492   3.065  19.661  0.00  0.00    +0.000 A 
ATOM     10  C   UNL     1       3.779   2.536  19.747  0.00  0.00    +0.000 A 
ATOM     11  C   UNL     1       4.706   2.840  18.760  0.00  0.00    +0.000 A 
ATOM     12  N   UNL     1       4.374   3.655  17.727  0.00  0.00    +0.000 N 
ATOM     13  C   UNL     1       3.119   4.153  17.619  0.00  0.00    +0.000 A 
ATOM     14  C   UNL     1       2.152   3.877  18.581  0.00  0.00    +0.000 A 
BRANCH   9  16
ATOM     15  O   UNL     1       1.993   2.381  21.853  0.00  0.00    +0.000 OA
ATOM     16  C   UNL     1       1.581   2.856  20.811  0.00  0.00    +0.000 C 
BRANCH  16  17
ATOM     17  O   UNL     1       0.312   3.238  20.602  0.00  0.00    +0.000 OA
ATOM     18  H   UNL     1       0.037   4.120  20.906  0.00  0.00    +0.000 HD
ENDBRANCH  16  17
ENDBRANCH   9  16
ENDBRANCH   8  12
ENDBRANCH   2   8
ENDBRANCH   1   5
BRANCH   1  19
ATOM     19  C   UNL     1       8.619   9.871  17.871  0.00  0.00    +0.000 C 
BRANCH  19  20
ATOM     20  C   UNL     1       9.091  11.008  18.748  0.00  0.00    +0.000 A 
ATOM     21  C   UNL     1       9.707  10.739  19.976  0.00  0.00    +0.000 A 
ATOM     22  C   UNL     1      10.046  11.781  20.843  0.00  0.00    +0.000 A 
ATOM     23  C   UNL     1       9.771  13.113  20.500  0.00  0.00    +0.000 A 
ATOM     24  C   UNL     1       9.211  13.381  19.242  0.00  0.00    +0.000 A 
ATOM     25  C   UNL     1       8.868  12.337  18.377  0.00  0.00    +0.000 A 
BRANCH  23  26
ATOM     26  C   UNL     1      10.057  14.232  21.472  0.00  0.00    +0.000 C 
BRANCH  26  27
ATOM     27  N   UNL     1       8.912  14.434  22.390  0.00  0.00    +0.000 N 
ATOM     28  C   UNL     1       8.575  13.457  23.260  0.00  0.00    +0.000 A 
ATOM     29  C   UNL     1       7.434  13.575  24.041  0.00  0.00    +0.000 A 
ATOM     30  C   UNL     1       6.625  14.711  23.930  0.00  0.00    +0.000 A 
ATOM     31  C   UNL     1       7.032  15.739  23.083  0.00  0.00    +0.000 A 
ATOM     32  C   UNL     1       8.188  15.575  22.324  0.00  0.00    +0.000 A 
BRANCH  30  33
ATOM     33  C   UNL     1       5.350  14.698  24.701  0.00  0.00    +0.000 C 
ATOM     34  O   UNL     1       5.088  13.762  25.439  0.00  0.00    +0.000 OA
BRANCH  33  35
ATOM     35  O   UNL     1       4.503  15.720  24.508  0.00  0.00    +0.000 OA
ATOM     36  H   UNL     1       4.512  16.504  25.079  0.00  0.00    +0.000 HD
ENDBRANCH  33  35
ENDBRANCH  30  33
ENDBRANCH  26  27
ENDBRANCH  23  26
ENDBRANCH  19  20
ENDBRANCH   1  19
TORSDOF 11
ENDMDL
MODEL 5
REMARK VINA RESULT:      -8.1      6.253      9.314
REMARK  Name = 
REMARK  11 active torsions:
REMARK  status: ('A' for Active; 'I' for Inactive)
REMARK    1  A    between atoms: C_2  and  O_3
REMARK    2  A    between atoms: C_2  and  C_4
REMARK    3  A    between atoms: N_7  and  C_8
REMARK    4  A    between atoms: C_8  and  C_9
REMARK    5  A    between atoms: C_12  and  C_13
REMARK    6  A    between atoms: C_13  and  C_14
REMARK    7  A    between atoms: C_14  and  C_15
REMARK    8  A    between atoms: C_18  and  C_19
REMARK    9  A    between atoms: C_19  and  N_20
REMARK   10  A    between atoms: C_23  and  C_24
REMARK   11  A    between atoms: C_24  and  O_26
REMARK                            x       y       z     vdW  Elec       q    Type
REMARK                         _______ _______ _______ _____ _____    ______ ____
ROOT
ATOM      1  C   UNL     1       1.300  12.277  20.179  0.00  0.00    +0.000 C 
ENDROOT
BRANCH   1   5
ATOM      2  C   UNL     1       4.532  14.993  19.168  0.00  0.00    +0.000 A 
ATOM      3  C   UNL     1       4.261  14.691  20.508  0.00  0.00    +0.000 A 
ATOM      4  C   UNL     1       3.198  13.852  20.849  0.00  0.00    +0.000 A 
ATOM      5  C   UNL     1       2.365  13.309  19.864  0.00  0.00    +0.000 A 
ATOM      6  C   UNL     1       2.603  13.660  18.527  0.00  0.00    +0.000 A 
ATOM      7  C   UNL     1       3.669  14.497  18.181  0.00  0.00    +0.000 A 
BRANCH   2   8
ATOM      8  C   UNL     1       5.797  15.727  18.798  0.00  0.00    +0.000 C 
BRANCH   8  12
ATOM      9  C   UNL     1       8.746  12.695  18.368  0.00  0.00    +0.000 A 
ATOM     10  C   UNL     1       8.678  13.451  19.537  0.00  0.00    +0.000 A 
ATOM     11  C   UNL     1       7.745  14.473  19.633  0.00  0.00    +0.000 A 
ATOM     12  N   UNL     1       6.893  14.730  18.609  0.00  0.00    +0.000 N 
ATOM     13  C   UNL     1       6.967  14.021  17.458  0.00  0.00    +0.000 A 
ATOM     14  C   UNL     1       7.886  12.986  17.310  0.00  0.00    +0.000 A 
BRANCH   9  16
ATOM     15  O   UNL     1      10.845  11.641  18.280  0.00  0.00    +0.000 OA
ATOM     16  C   UNL     1       9.636  11.511  18.361  0.00  0.00    +0.000 C 
BRANCH  16  17
ATOM     17  O   UNL     1       9.007  10.331  18.460  0.00  0.00    +0.000 OA
ATOM     18  H   UNL     1       8.263  10.252  19.083  0.00  0.00    +0.000 HD
ENDBRANCH  16  17
ENDBRANCH   9  16
ENDBRANCH   8  12
ENDBRANCH   2   8
ENDBRANCH   1   5
BRANCH   1  19
ATOM     19  C   UNL     1       0.729  11.498  18.981  0.00  0.00    +0.000 C 
BRANCH  19  20
ATOM     20  C   UNL     1       1.191  10.059  18.988  0.00  0.00    +0.000 A 
ATOM     21  C   UNL     1       1.162   9.317  20.175  0.00  0.00    +0.000 A 
ATOM     22  C   UNL     1       1.689   8.024  20.217  0.00  0.00    +0.000 A 
ATOM     23  C   UNL     1       2.259   7.448  19.072  0.00  0.00    +0.000 A 
ATOM     24  C   UNL     1       2.229   8.171  17.870  0.00  0.00    +0.000 A 
ATOM     25  C   UNL     1       1.705   9.468  17.831  0.00  0.00    +0.000 A 
BRANCH  23  26
ATOM     26  C   UNL     1       2.907   6.086  19.138  0.00  0.00    +0.000 C 
BRANCH  26  27
ATOM     27  N   UNL     1       3.754   5.851  17.946  0.00  0.00    +0.000 N 
ATOM     28  C   UNL     1       3.782   4.624  17.379  0.00  0.00    +0.000 A 
ATOM     29  C   UNL     1       4.659   4.351  16.341  0.00  0.00    +0.000 A 
ATOM     30  C   UNL     1       5.523   5.346  15.873  0.00  0.00    +0.000 A 
ATOM     31  C   UNL     1       5.425   6.624  16.420  0.00  0.00    +0.000 A 
ATOM     32  C   UNL     1       4.524   6.851  17.458  0.00  0.00    +0.000 A 
BRANCH  30  33
ATOM     33  C   UNL     1       6.526   4.932  14.851  0.00  0.00    +0.000 C 
ATOM     34  O   UNL     1       7.675   5.336  14.921  0.00  0.00    +0.000 OA
BRANCH  33  35
ATOM     35  O   UNL     1       6.097   4.152  13.849  0.00  0.00    +0.000 OA
ATOM     36  H   UNL     1       6.097   3.185  13.920  0.00  0.00    +0.000 HD
ENDBRANCH  33  35
ENDBRANCH  30  33
ENDBRANCH  26  27
ENDBRANCH  23  26
ENDBRANCH  19  20
ENDBRANCH   1  19
TORSDOF 11
ENDMDL
MODEL 6
REMARK VINA RESULT:      -8.1      7.844     10.184
REMARK  Name = 
REMARK  11 active torsions:
REMARK  status: ('A' for Active; 'I' for Inactive)
REMARK    1  A    between atoms: C_2  and  O_3
REMARK    2  A    between atoms: C_2  and  C_4
REMARK    3  A    between atoms: N_7  and  C_8
REMARK    4  A    between atoms: C_8  and  C_9
REMARK    5  A    between atoms: C_12  and  C_13
REMARK    6  A    between atoms: C_13  and  C_14
REMARK    7  A    between atoms: C_14  and  C_15
REMARK    8  A    between atoms: C_18  and  C_19
REMARK    9  A    between atoms: C_19  and  N_20
REMARK   10  A    between atoms: C_23  and  C_24
REMARK   11  A    between atoms: C_24  and  O_26
REMARK                            x       y       z     vdW  Elec       q    Type
REMARK                         _______ _______ _______ _____ _____    ______ ____
ROOT
ATOM      1  C   UNL     1       9.120  10.049  17.854  0.00  0.00    +0.000 C 
ENDROOT
BRANCH   1   5
ATOM      2  C   UNL     1       9.169  14.129  19.337  0.00  0.00    +0.000 A 
ATOM      3  C   UNL     1       8.559  13.834  18.112  0.00  0.00    +0.000 A 
ATOM      4  C   UNL     1       8.573  12.533  17.603  0.00  0.00    +0.000 A 
ATOM      5  C   UNL     1       9.213  11.497  18.293  0.00  0.00    +0.000 A 
ATOM      6  C   UNL     1       9.873  11.807  19.491  0.00  0.00    +0.000 A 
ATOM      7  C   UNL     1       9.859  13.108  20.005  0.00  0.00    +0.000 A 
BRANCH   2   8
ATOM      8  C   UNL     1       8.973  15.482  19.975  0.00  0.00    +0.000 C 
BRANCH   8  12
ATOM      9  C   UNL     1       4.830  16.331  19.549  0.00  0.00    +0.000 A 
ATOM     10  C   UNL     1       5.778  17.096  18.871  0.00  0.00    +0.000 A 
ATOM     11  C   UNL     1       7.127  16.838  19.070  0.00  0.00    +0.000 A 
ATOM     12  N   UNL     1       7.526  15.842  19.901  0.00  0.00    +0.000 N 
ATOM     13  C   UNL     1       6.615  15.111  20.585  0.00  0.00    +0.000 A 
ATOM     14  C   UNL     1       5.250  15.330  20.423  0.00  0.00    +0.000 A 
BRANCH   9  16
ATOM     15  O   UNL     1       2.895  17.627  19.234  0.00  0.00    +0.000 OA
ATOM     16  C   UNL     1       3.405  16.522  19.191  0.00  0.00    +0.000 C 
BRANCH  16  17
ATOM     17  O   UNL     1       2.762  15.406  18.817  0.00  0.00    +0.000 OA
ATOM     18  H   UNL     1       2.032  15.082  19.373  0.00  0.00    +0.000 HD
ENDBRANCH  16  17
ENDBRANCH   9  16
ENDBRANCH   8  12
ENDBRANCH   2   8
ENDBRANCH   1   5
BRANCH   1  19
ATOM     19  C   UNL     1       8.835   9.018  18.960  0.00  0.00    +0.000 C 
BRANCH  19  20
ATOM     20  C   UNL     1       8.102   7.813  18.415  0.00  0.00    +0.000 A 
ATOM     21  C   UNL     1       7.148   7.969  17.402  0.00  0.00    +0.000 A 
ATOM     22  C   UNL     1       6.387   6.880  16.969  0.00  0.00    +0.000 A 
ATOM     23  C   UNL     1       6.563   5.613  17.545  0.00  0.00    +0.000 A 
ATOM     24  C   UNL     1       7.564   5.449  18.515  0.00  0.00    +0.000 A 
ATOM     25  C   UNL     1       8.322   6.541  18.950  0.00  0.00    +0.000 A 
BRANCH  23  26
ATOM     26  C   UNL     1       5.682   4.456  17.140  0.00  0.00    +0.000 C 
BRANCH  26  27
ATOM     27  N   UNL     1       4.607   4.243  18.136  0.00  0.00    +0.000 N 
ATOM     28  C   UNL     1       4.809   3.387  19.163  0.00  0.00    +0.000 A 
ATOM     29  C   UNL     1       3.775   3.080  20.035  0.00  0.00    +0.000 A 
ATOM     30  C   UNL     1       2.513   3.657  19.855  0.00  0.00    +0.000 A 
ATOM     31  C   UNL     1       2.348   4.594  18.837  0.00  0.00    +0.000 A 
ATOM     32  C   UNL     1       3.418   4.873  17.991  0.00  0.00    +0.000 A 
BRANCH  30  33
ATOM     33  C   UNL     1       1.425   3.171  20.750  0.00  0.00    +0.000 C 
ATOM     34  O   UNL     1       1.673   2.852  21.901  0.00  0.00    +0.000 OA
BRANCH  33  35
ATOM     35  O   UNL     1       0.198   3.059  20.221  0.00  0.00    +0.000 OA
ATOM     36  H   UNL     1      -0.079   3.590  19.458  0.00  0.00    +0.000 HD
ENDBRANCH  33  35
ENDBRANCH  30  33
ENDBRANCH  26  27
ENDBRANCH  23  26
ENDBRANCH  19  20
ENDBRANCH   1  19
TORSDOF 11
ENDMDL
MODEL 7
REMARK VINA RESULT:      -8.1      8.644     12.167
REMARK  Name = 
REMARK  11 active torsions:
REMARK  status: ('A' for Active; 'I' for Inactive)
REMARK    1  A    between atoms: C_2  and  O_3
REMARK    2  A    between atoms: C_2  and  C_4
REMARK    3  A    between atoms: N_7  and  C_8
REMARK    4  A    between atoms: C_8  and  C_9
REMARK    5  A    between atoms: C_12  and  C_13
REMARK    6  A    between atoms: C_13  and  C_14
REMARK    7  A    between atoms: C_14  and  C_15
REMARK    8  A    between atoms: C_18  and  C_19
REMARK    9  A    between atoms: C_19  and  N_20
REMARK   10  A    between atoms: C_23  and  C_24
REMARK   11  A    between atoms: C_24  and  O_26
REMARK                            x       y       z     vdW  Elec       q    Type
REMARK                         _______ _______ _______ _____ _____    ______ ____
ROOT
ATOM      1  C   UNL     1       7.933   9.042  17.732  0.00  0.00    +0.000 C 
ENDROOT
BRANCH   1   5
ATOM      2  C   UNL     1       5.919   5.245  17.118  0.00  0.00    +0.000 A 
ATOM      3  C   UNL     1       5.253   6.446  16.845  0.00  0.00    +0.000 A 
ATOM      4  C   UNL     1       5.874   7.675  17.078  0.00  0.00    +0.000 A 
ATOM      5  C   UNL     1       7.168   7.738  17.608  0.00  0.00    +0.000 A 
ATOM      6  C   UNL     1       7.810   6.535  17.935  0.00  0.00    +0.000 A 
ATOM      7  C   UNL     1       7.193   5.302  17.700  0.00  0.00    +0.000 A 
BRANCH   2   8
ATOM      8  C   UNL     1       5.325   3.932  16.673  0.00  0.00    +0.000 C 
BRANCH   8  12
ATOM      9  C   UNL     1       2.521   2.886  19.692  0.00  0.00    +0.000 A 
ATOM     10  C   UNL     1       3.884   2.930  19.982  0.00  0.00    +0.000 A 
ATOM     11  C   UNL     1       4.785   3.217  18.967  0.00  0.00    +0.000 A 
ATOM     12  N   UNL     1       4.351   3.470  17.707  0.00  0.00    +0.000 N 
ATOM     13  C   UNL     1       3.032   3.405  17.408  0.00  0.00    +0.000 A 
ATOM     14  C   UNL     1       2.087   3.119  18.389  0.00  0.00    +0.000 A 
BRANCH   9  16
ATOM     15  O   UNL     1       1.975   2.404  21.927  0.00  0.00    +0.000 OA
ATOM     16  C   UNL     1       1.578   2.740  20.826  0.00  0.00    +0.000 C 
BRANCH  16  17
ATOM     17  O   UNL     1       0.298   3.017  20.535  0.00  0.00    +0.000 OA
ATOM     18  H   UNL     1      -0.044   2.765  19.659  0.00  0.00    +0.000 HD
ENDBRANCH  16  17
ENDBRANCH   9  16
ENDBRANCH   8  12
ENDBRANCH   2   8
ENDBRANCH   1   5
BRANCH   1  19
ATOM     19  C   UNL     1       8.981   9.114  18.856  0.00  0.00    +0.000 C 
BRANCH  19  20
ATOM     20  C   UNL     1       9.410  10.539  19.119  0.00  0.00    +0.000 A 
ATOM     21  C   UNL     1       9.901  11.330  18.074  0.00  0.00    +0.000 A 
ATOM     22  C   UNL     1      10.403  12.609  18.326  0.00  0.00    +0.000 A 
ATOM     23  C   UNL     1      10.427  13.121  19.632  0.00  0.00    +0.000 A 
ATOM     24  C   UNL     1       9.876  12.350  20.667  0.00  0.00    +0.000 A 
ATOM     25  C   UNL     1       9.378  11.068  20.413  0.00  0.00    +0.000 A 
BRANCH  23  26
ATOM     26  C   UNL     1      11.049  14.466  19.919  0.00  0.00    +0.000 C 
BRANCH  26  27
ATOM     27  N   UNL     1      10.142  15.297  20.745  0.00  0.00    +0.000 N 
ATOM     28  C   UNL     1      10.382  15.435  22.067  0.00  0.00    +0.000 A 
ATOM     29  C   UNL     1       9.480  16.106  22.879  0.00  0.00    +0.000 A 
ATOM     30  C   UNL     1       8.311  16.645  22.331  0.00  0.00    +0.000 A 
ATOM     31  C   UNL     1       8.120  16.558  20.953  0.00  0.00    +0.000 A 
ATOM     32  C   UNL     1       9.058  15.879  20.180  0.00  0.00    +0.000 A 
BRANCH  30  33
ATOM     33  C   UNL     1       7.332  17.228  23.291  0.00  0.00    +0.000 C 
ATOM     34  O   UNL     1       6.674  18.206  22.979  0.00  0.00    +0.000 OA
BRANCH  33  35
ATOM     35  O   UNL     1       7.250  16.663  24.504  0.00  0.00    +0.000 OA
ATOM     36  H   UNL     1       8.019  16.600  25.091  0.00  0.00    +0.000 HD
ENDBRANCH  33  35
ENDBRANCH  30  33
ENDBRANCH  26  27
ENDBRANCH  23  26
ENDBRANCH  19  20
ENDBRANCH   1  19
TORSDOF 11
ENDMDL
MODEL 8
REMARK VINA RESULT:      -8.1      1.906     12.471
REMARK  Name = 
REMARK  11 active torsions:
REMARK  status: ('A' for Active; 'I' for Inactive)
REMARK    1  A    between atoms: C_2  and  O_3
REMARK    2  A    between atoms: C_2  and  C_4
REMARK    3  A    between atoms: N_7  and  C_8
REMARK    4  A    between atoms: C_8  and  C_9
REMARK    5  A    between atoms: C_12  and  C_13
REMARK    6  A    between atoms: C_13  and  C_14
REMARK    7  A    between atoms: C_14  and  C_15
REMARK    8  A    between atoms: C_18  and  C_19
REMARK    9  A    between atoms: C_19  and  N_20
REMARK   10  A    between atoms: C_23  and  C_24
REMARK   11  A    between atoms: C_24  and  O_26
REMARK                            x       y       z     vdW  Elec       q    Type
REMARK                         _______ _______ _______ _____ _____    ______ ____
ROOT
ATOM      1  C   UNL     1       1.507   6.768  20.476  0.00  0.00    +0.000 C 
ENDROOT
BRANCH   1   5
ATOM      2  C   UNL     1       5.007   5.455  18.268  0.00  0.00    +0.000 A 
ATOM      3  C   UNL     1       4.261   6.551  17.817  0.00  0.00    +0.000 A 
ATOM      4  C   UNL     1       3.109   6.957  18.494  0.00  0.00    +0.000 A 
ATOM      5  C   UNL     1       2.660   6.270  19.627  0.00  0.00    +0.000 A 
ATOM      6  C   UNL     1       3.376   5.137  20.042  0.00  0.00    +0.000 A 
ATOM      7  C   UNL     1       4.531   4.729  19.369  0.00  0.00    +0.000 A 
BRANCH   2   8
ATOM      8  C   UNL     1       6.353   5.151  17.658  0.00  0.00    +0.000 C 
BRANCH   8  12
ATOM      9  C   UNL     1       5.977   3.853  13.628  0.00  0.00    +0.000 A 
ATOM     10  C   UNL     1       6.927   4.814  13.972  0.00  0.00    +0.000 A 
ATOM     11  C   UNL     1       6.993   5.264  15.283  0.00  0.00    +0.000 A 
ATOM     12  N   UNL     1       6.156   4.768  16.228  0.00  0.00    +0.000 N 
ATOM     13  C   UNL     1       5.212   3.855  15.900  0.00  0.00    +0.000 A 
ATOM     14  C   UNL     1       5.102   3.371  14.599  0.00  0.00    +0.000 A 
BRANCH   9  16
ATOM     15  O   UNL     1       5.095   3.367  11.504  0.00  0.00    +0.000 OA
ATOM     16  C   UNL     1       6.042   3.276  12.265  0.00  0.00    +0.000 C 
BRANCH  16  17
ATOM     17  O   UNL     1       7.203   2.678  11.959  0.00  0.00    +0.000 OA
ATOM     18  H   UNL     1       7.762   2.351  12.685  0.00  0.00    +0.000 HD
ENDBRANCH  16  17
ENDBRANCH   9  16
ENDBRANCH   8  12
ENDBRANCH   2   8
ENDBRANCH   1   5
BRANCH   1  19
ATOM     19  C   UNL     1       1.724   8.106  21.203  0.00  0.00    +0.000 C 
BRANCH  19  20
ATOM     20  C   UNL     1       0.811   9.182  20.662  0.00  0.00    +0.000 A 
ATOM     21  C   UNL     1       0.951   9.624  19.340  0.00  0.00    +0.000 A 
ATOM     22  C   UNL     1       0.188  10.693  18.864  0.00  0.00    +0.000 A 
ATOM     23  C   UNL     1      -0.728  11.345  19.703  0.00  0.00    +0.000 A 
ATOM     24  C   UNL     1      -0.910  10.859  21.006  0.00  0.00    +0.000 A 
ATOM     25  C   UNL     1      -0.142   9.791  21.483  0.00  0.00    +0.000 A 
BRANCH  23  26
ATOM     26  C   UNL     1      -1.489  12.555  19.217  0.00  0.00    +0.000 C 
BRANCH  26  27
ATOM     27  N   UNL     1      -2.941  12.270  19.154  0.00  0.00    +0.000 N 
ATOM     28  C   UNL     1      -3.757  12.750  20.118  0.00  0.00    +0.000 A 
ATOM     29  C   UNL     1      -5.097  12.394  20.145  0.00  0.00    +0.000 A 
ATOM     30  C   UNL     1      -5.613  11.531  19.172  0.00  0.00    +0.000 A 
ATOM     31  C   UNL     1      -4.772  11.109  18.144  0.00  0.00    +0.000 A 
ATOM     32  C   UNL     1      -3.435  11.499  18.157  0.00  0.00    +0.000 A 
BRANCH  30  33
ATOM     33  C   UNL     1      -7.025  11.091  19.352  0.00  0.00    +0.000 C 
ATOM     34  O   UNL     1      -7.807  11.780  19.986  0.00  0.00    +0.000 OA
BRANCH  33  35
ATOM     35  O   UNL     1      -7.369   9.902  18.835  0.00  0.00    +0.000 OA
ATOM     36  H   UNL     1      -8.100   9.813  18.205  0.00  0.00    +0.000 HD
ENDBRANCH  33  35
ENDBRANCH  30  33
ENDBRANCH  26  27
ENDBRANCH  23  26
ENDBRANCH  19  20
ENDBRANCH   1  19
TORSDOF 11
ENDMDL
MODEL 9
REMARK VINA RESULT:      -8.1      1.052     12.326
REMARK  Name = 
REMARK  11 active torsions:
REMARK  status: ('A' for Active; 'I' for Inactive)
REMARK    1  A    between atoms: C_2  and  O_3
REMARK    2  A    between atoms: C_2  and  C_4
REMARK    3  A    between atoms: N_7  and  C_8
REMARK    4  A    between atoms: C_8  and  C_9
REMARK    5  A    between atoms: C_12  and  C_13
REMARK    6  A    between atoms: C_13  and  C_14
REMARK    7  A    between atoms: C_14  and  C_15
REMARK    8  A    between atoms: C_18  and  C_19
REMARK    9  A    between atoms: C_19  and  N_20
REMARK   10  A    between atoms: C_23  and  C_24
REMARK   11  A    between atoms: C_24  and  O_26
REMARK                            x       y       z     vdW  Elec       q    Type
REMARK                         _______ _______ _______ _____ _____    ______ ____
ROOT
ATOM      1  C   UNL     1       1.067   9.617  20.055  0.00  0.00    +0.000 C 
ENDROOT
BRANCH   1   5
ATOM      2  C   UNL     1       2.469   5.517  19.785  0.00  0.00    +0.000 A 
ATOM      3  C   UNL     1       2.607   6.380  18.691  0.00  0.00    +0.000 A 
ATOM      4  C   UNL     1       2.123   7.689  18.750  0.00  0.00    +0.000 A 
ATOM      5  C   UNL     1       1.470   8.164  19.893  0.00  0.00    +0.000 A 
ATOM      6  C   UNL     1       1.281   7.279  20.965  0.00  0.00    +0.000 A 
ATOM      7  C   UNL     1       1.767   5.969  20.911  0.00  0.00    +0.000 A 
BRANCH   2   8
ATOM      8  C   UNL     1       3.172   4.182  19.790  0.00  0.00    +0.000 C 
BRANCH   8  12
ATOM      9  C   UNL     1       5.965   4.399  16.594  0.00  0.00    +0.000 A 
ATOM     10  C   UNL     1       4.690   3.878  16.380  0.00  0.00    +0.000 A 
ATOM     11  C   UNL     1       3.814   3.764  17.450  0.00  0.00    +0.000 A 
ATOM     12  N   UNL     1       4.183   4.168  18.691  0.00  0.00    +0.000 N 
ATOM     13  C   UNL     1       5.428   4.650  18.917  0.00  0.00    +0.000 A 
ATOM     14  C   UNL     1       6.345   4.784  17.878  0.00  0.00    +0.000 A 
BRANCH   9  16
ATOM     15  O   UNL     1       7.676   5.519  15.434  0.00  0.00    +0.000 OA
ATOM     16  C   UNL     1       6.813   4.660  15.407  0.00  0.00    +0.000 C 
BRANCH  16  17
ATOM     17  O   UNL     1       6.555   3.880  14.347  0.00  0.00    +0.000 OA
ATOM     18  H   UNL     1       5.982   3.102  14.470  0.00  0.00    +0.000 HD
ENDBRANCH  16  17
ENDBRANCH   9  16
ENDBRANCH   8  12
ENDBRANCH   2   8
ENDBRANCH   1   5
BRANCH   1  19
ATOM     19  C   UNL     1       0.960  10.443  18.761  0.00  0.00    +0.000 C 
BRANCH  19  20
ATOM     20  C   UNL     1      -0.481  10.717  18.399  0.00  0.00    +0.000 A 
ATOM     21  C   UNL     1      -1.004  12.010  18.523  0.00  0.00    +0.000 A 
ATOM     22  C   UNL     1      -2.361  12.252  18.297  0.00  0.00    +0.000 A 
ATOM     23  C   UNL     1      -3.224  11.203  17.947  0.00  0.00    +0.000 A 
ATOM     24  C   UNL     1      -2.684   9.922  17.762  0.00  0.00    +0.000 A 
ATOM     25  C   UNL     1      -1.326   9.680  17.993  0.00  0.00    +0.000 A 
BRANCH  23  26
ATOM     26  C   UNL     1      -4.705  11.447  17.788  0.00  0.00    +0.000 C 
BRANCH  26  27
ATOM     27  N   UNL     1      -5.321  11.796  19.090  0.00  0.00    +0.000 N 
ATOM     28  C   UNL     1      -4.725  12.709  19.886  0.00  0.00    +0.000 A 
ATOM     29  C   UNL     1      -5.217  12.959  21.159  0.00  0.00    +0.000 A 
ATOM     30  C   UNL     1      -6.337  12.264  21.625  0.00  0.00    +0.000 A 
ATOM     31  C   UNL     1      -6.982  11.383  20.760  0.00  0.00    +0.000 A 
ATOM     32  C   UNL     1      -6.452  11.169  19.490  0.00  0.00    +0.000 A 
BRANCH  30  33
ATOM     33  C   UNL     1      -6.718  12.491  23.048  0.00  0.00    +0.000 C 
ATOM     34  O   UNL     1      -7.375  11.657  23.648  0.00  0.00    +0.000 OA
BRANCH  33  35
ATOM     35  O   UNL     1      -6.350  13.654  23.605  0.00  0.00    +0.000 OA
ATOM     36  H   UNL     1      -6.840  14.475  23.443  0.00  0.00    +0.000 HD
ENDBRANCH  33  35
ENDBRANCH  30  33
ENDBRANCH  26  27
ENDBRANCH  23  26
ENDBRANCH  19  20
ENDBRANCH   1  19
TORSDOF 11
ENDMDL
