MODEL 1
REMARK VINA RESULT:      -9.1      0.000      0.000
REMARK  Name = 
REMARK  6 active torsions:
REMARK  status: ('A' for Active; 'I' for Inactive)
REMARK    1  A    between atoms: C_2  and  C_3
REMARK    2  A    between atoms: C_3  and  N_4
REMARK    3  A    between atoms: N_4  and  C_5
REMARK    4  A    between atoms: N_4  and  C_11
REMARK    5  A    between atoms: N_17  and  C_18
REMARK    6  A    between atoms: C_21  and  C_22
REMARK                            x       y       z     vdW  Elec       q    Type
REMARK                         _______ _______ _______ _____ _____    ______ ____
ROOT
ATOM      1  O   UNL     1       2.355   4.616  17.650  0.00  0.00    +0.000 OA
ATOM      2  C   UNL     1       3.385   5.233  17.372  0.00  0.00    +0.000 C 
ATOM      3  N   UNL     1       3.598   6.580  17.641  0.00  0.00    +0.000 N 
ATOM      4  H   UNL     1       4.466   6.988  17.312  0.00  0.00    +0.000 HD
ENDROOT
BRANCH   3   5
ATOM      5  C   UNL     1       2.709   7.440  18.338  0.00  0.00    +0.000 A 
ATOM      6  C   UNL     1       2.381   7.279  19.688  0.00  0.00    +0.000 A 
ATOM      7  C   UNL     1       1.514   8.163  20.346  0.00  0.00    +0.000 A 
ATOM      8  C   UNL     1       0.953   9.250  19.673  0.00  0.00    +0.000 A 
ATOM      9  C   UNL     1       1.288   9.419  18.320  0.00  0.00    +0.000 A 
ATOM     10  C   UNL     1       2.154   8.529  17.659  0.00  0.00    +0.000 A 
BRANCH   8  11
ATOM     11  C   UNL     1       0.105  10.255  20.343  0.00  0.00    +0.000 A 
ATOM     12  N   UNL     1      -0.217  10.192  21.618  0.00  0.00    +0.000 NA
ATOM     13  C   UNL     1      -1.102  11.206  21.939  0.00  0.00    +0.000 A 
ATOM     14  C   UNL     1      -1.708  11.397  23.194  0.00  0.00    +0.000 A 
ATOM     15  C   UNL     1      -2.603  12.452  23.385  0.00  0.00    +0.000 A 
ATOM     16  C   UNL     1      -2.889  13.326  22.342  0.00  0.00    +0.000 A 
ATOM     17  C   UNL     1      -2.294  13.164  21.085  0.00  0.00    +0.000 A 
ATOM     18  C   UNL     1      -1.407  12.089  20.901  0.00  0.00    +0.000 A 
ATOM     19  S   UNL     1      -0.545  11.608  19.493  0.00  0.00    +0.000 S 
ENDBRANCH   8  11
ENDBRANCH   3   5
BRANCH   2  20
ATOM     20  C   UNL     1       4.587   4.476  16.794  0.00  0.00    +0.000 C 
BRANCH  20  21
ATOM     21  N   UNL     1       5.645   5.309  16.145  0.00  0.00    +0.000 N 
BRANCH  21  22
ATOM     22  C   UNL     1       6.571   5.916  17.053  0.00  0.00    +0.000 A 
ATOM     23  C   UNL     1       6.968   7.265  16.986  0.00  0.00    +0.000 A 
ATOM     24  C   UNL     1       7.870   7.814  17.907  0.00  0.00    +0.000 A 
ATOM     25  C   UNL     1       8.371   7.035  18.943  0.00  0.00    +0.000 A 
ATOM     26  C   UNL     1       7.980   5.705  19.051  0.00  0.00    +0.000 A 
ATOM     27  C   UNL     1       7.102   5.153  18.109  0.00  0.00    +0.000 A 
ENDBRANCH  21  22
BRANCH  21  28
ATOM     28  C   UNL     1       6.035   4.851  14.836  0.00  0.00    +0.000 A 
ATOM     29  C   UNL     1       5.239   3.983  14.072  0.00  0.00    +0.000 A 
ATOM     30  C   UNL     1       5.642   3.491  12.821  0.00  0.00    +0.000 A 
ATOM     31  C   UNL     1       6.843   3.901  12.264  0.00  0.00    +0.000 A 
ATOM     32  C   UNL     1       7.638   4.799  12.963  0.00  0.00    +0.000 A 
ATOM     33  C   UNL     1       7.244   5.256  14.232  0.00  0.00    +0.000 A 
ENDBRANCH  21  28
ENDBRANCH  20  21
ENDBRANCH   2  20
TORSDOF 6
ENDMDL
MODEL 2
REMARK VINA RESULT:      -9.1      2.705      4.733
REMARK  Name = 
REMARK  6 active torsions:
REMARK  status: ('A' for Active; 'I' for Inactive)
REMARK    1  A    between atoms: C_2  and  C_3
REMARK    2  A    between atoms: C_3  and  N_4
REMARK    3  A    between atoms: N_4  and  C_5
REMARK    4  A    between atoms: N_4  and  C_11
REMARK    5  A    between atoms: N_17  and  C_18
REMARK    6  A    between atoms: C_21  and  C_22
REMARK                            x       y       z     vdW  Elec       q    Type
REMARK                         _______ _______ _______ _____ _____    ______ ____
ROOT
ATOM      1  O   UNL     1       1.650   9.324  17.518  0.00  0.00    +0.000 OA
ATOM      2  C   UNL     1       1.986   8.403  18.266  0.00  0.00    +0.000 C 
ATOM      3  N   UNL     1       1.726   8.358  19.630  0.00  0.00    +0.000 N 
ATOM      4  H   UNL     1       2.104   7.572  20.149  0.00  0.00    +0.000 HD
ENDROOT
BRANCH   3   5
ATOM      5  C   UNL     1       0.977   9.312  20.368  0.00  0.00    +0.000 A 
ATOM      6  C   UNL     1       0.275   9.004  21.537  0.00  0.00    +0.000 A 
ATOM      7  C   UNL     1      -0.436   9.981  22.248  0.00  0.00    +0.000 A 
ATOM      8  C   UNL     1      -0.460  11.307  21.814  0.00  0.00    +0.000 A 
ATOM      9  C   UNL     1       0.251  11.621  20.645  0.00  0.00    +0.000 A 
ATOM     10  C   UNL     1       0.961  10.640  19.930  0.00  0.00    +0.000 A 
BRANCH   8  11
ATOM     11  C   UNL     1      -1.123  12.385  22.574  0.00  0.00    +0.000 A 
ATOM     12  N   UNL     1      -0.478  13.420  23.071  0.00  0.00    +0.000 NA
ATOM     13  C   UNL     1      -1.337  14.206  23.818  0.00  0.00    +0.000 A 
ATOM     14  C   UNL     1      -0.973  15.351  24.549  0.00  0.00    +0.000 A 
ATOM     15  C   UNL     1      -1.936  16.049  25.282  0.00  0.00    +0.000 A 
ATOM     16  C   UNL     1      -3.259  15.625  25.282  0.00  0.00    +0.000 A 
ATOM     17  C   UNL     1      -3.652  14.492  24.557  0.00  0.00    +0.000 A 
ATOM     18  C   UNL     1      -2.671  13.790  23.836  0.00  0.00    +0.000 A 
ATOM     19  S   UNL     1      -2.821  12.368  22.880  0.00  0.00    +0.000 S 
ENDBRANCH   8  11
ENDBRANCH   3   5
BRANCH   2  20
ATOM     20  C   UNL     1       2.635   7.146  17.673  0.00  0.00    +0.000 C 
BRANCH  20  21
ATOM     21  N   UNL     1       3.319   6.235  18.640  0.00  0.00    +0.000 N 
BRANCH  21  22
ATOM     22  C   UNL     1       2.531   5.119  19.073  0.00  0.00    +0.000 A 
ATOM     23  C   UNL     1       2.166   4.887  20.412  0.00  0.00    +0.000 A 
ATOM     24  C   UNL     1       1.383   3.786  20.781  0.00  0.00    +0.000 A 
ATOM     25  C   UNL     1       0.914   2.906  19.814  0.00  0.00    +0.000 A 
ATOM     26  C   UNL     1       1.237   3.121  18.479  0.00  0.00    +0.000 A 
ATOM     27  C   UNL     1       2.046   4.206  18.118  0.00  0.00    +0.000 A 
ENDBRANCH  21  22
BRANCH  21  28
ATOM     28  C   UNL     1       4.745   6.149  18.461  0.00  0.00    +0.000 A 
ATOM     29  C   UNL     1       5.563   5.355  19.282  0.00  0.00    +0.000 A 
ATOM     30  C   UNL     1       6.959   5.313  19.144  0.00  0.00    +0.000 A 
ATOM     31  C   UNL     1       7.582   6.028  18.133  0.00  0.00    +0.000 A 
ATOM     32  C   UNL     1       6.806   6.785  17.266  0.00  0.00    +0.000 A 
ATOM     33  C   UNL     1       5.413   6.852  17.436  0.00  0.00    +0.000 A 
ENDBRANCH  21  28
ENDBRANCH  20  21
ENDBRANCH   2  20
TORSDOF 6
ENDMDL
MODEL 3
REMARK VINA RESULT:      -9.0      2.631      4.890
REMARK  Name = 
REMARK  6 active torsions:
REMARK  status: ('A' for Active; 'I' for Inactive)
REMARK    1  A    between atoms: C_2  and  C_3
REMARK    2  A    between atoms: C_3  and  N_4
REMARK    3  A    between atoms: N_4  and  C_5
REMARK    4  A    between atoms: N_4  and  C_11
REMARK    5  A    between atoms: N_17  and  C_18
REMARK    6  A    between atoms: C_21  and  C_22
REMARK                            x       y       z     vdW  Elec       q    Type
REMARK                         _______ _______ _______ _____ _____    ______ ____
ROOT
ATOM      1  O   UNL     1       2.342   9.483  17.944  0.00  0.00    +0.000 OA
ATOM      2  C   UNL     1       2.085   8.435  18.539  0.00  0.00    +0.000 C 
ATOM      3  N   UNL     1       1.407   8.359  19.751  0.00  0.00    +0.000 N 
ATOM      4  H   UNL     1       1.306   7.441  20.170  0.00  0.00    +0.000 HD
ENDROOT
BRANCH   3   5
ATOM      5  C   UNL     1       0.842   9.453  20.458  0.00  0.00    +0.000 A 
ATOM      6  C   UNL     1       0.962  10.783  20.044  0.00  0.00    +0.000 A 
ATOM      7  C   UNL     1       0.369  11.833  20.760  0.00  0.00    +0.000 A 
ATOM      8  C   UNL     1      -0.376  11.583  21.914  0.00  0.00    +0.000 A 
ATOM      9  C   UNL     1      -0.505  10.248  22.327  0.00  0.00    +0.000 A 
ATOM     10  C   UNL     1       0.093   9.194  21.611  0.00  0.00    +0.000 A 
BRANCH   8  11
ATOM     11  C   UNL     1      -1.087  12.645  22.651  0.00  0.00    +0.000 A 
ATOM     12  N   UNL     1      -0.472  13.612  23.298  0.00  0.00    +0.000 NA
ATOM     13  C   UNL     1      -1.388  14.394  23.977  0.00  0.00    +0.000 A 
ATOM     14  C   UNL     1      -1.076  15.471  24.826  0.00  0.00    +0.000 A 
ATOM     15  C   UNL     1      -2.098  16.171  25.473  0.00  0.00    +0.000 A 
ATOM     16  C   UNL     1      -3.426  15.818  25.269  0.00  0.00    +0.000 A 
ATOM     17  C   UNL     1      -3.767  14.755  24.423  0.00  0.00    +0.000 A 
ATOM     18  C   UNL     1      -2.729  14.048  23.791  0.00  0.00    +0.000 A 
ATOM     19  S   UNL     1      -2.810  12.698  22.728  0.00  0.00    +0.000 S 
ENDBRANCH   8  11
ENDBRANCH   3   5
BRANCH   2  20
ATOM     20  C   UNL     1       2.411   7.090  17.879  0.00  0.00    +0.000 C 
BRANCH  20  21
ATOM     21  N   UNL     1       3.166   6.107  18.714  0.00  0.00    +0.000 N 
BRANCH  21  22
ATOM     22  C   UNL     1       2.421   4.944  19.093  0.00  0.00    +0.000 A 
ATOM     23  C   UNL     1       1.882   4.740  20.377  0.00  0.00    +0.000 A 
ATOM     24  C   UNL     1       1.150   3.589  20.694  0.00  0.00    +0.000 A 
ATOM     25  C   UNL     1       0.907   2.626  19.722  0.00  0.00    +0.000 A 
ATOM     26  C   UNL     1       1.406   2.809  18.437  0.00  0.00    +0.000 A 
ATOM     27  C   UNL     1       2.164   3.947  18.134  0.00  0.00    +0.000 A 
ENDBRANCH  21  22
BRANCH  21  28
ATOM     28  C   UNL     1       4.580   6.062  18.437  0.00  0.00    +0.000 A 
ATOM     29  C   UNL     1       5.147   6.674  17.308  0.00  0.00    +0.000 A 
ATOM     30  C   UNL     1       6.514   6.584  17.006  0.00  0.00    +0.000 A 
ATOM     31  C   UNL     1       7.376   5.919  17.865  0.00  0.00    +0.000 A 
ATOM     32  C   UNL     1       6.865   5.344  19.020  0.00  0.00    +0.000 A 
ATOM     33  C   UNL     1       5.489   5.405  19.294  0.00  0.00    +0.000 A 
ENDBRANCH  21  28
ENDBRANCH  20  21
ENDBRANCH   2  20
TORSDOF 6
ENDMDL
MODEL 4
REMARK VINA RESULT:      -8.9      0.932      1.689
REMARK  Name = 
REMARK  6 active torsions:
REMARK  status: ('A' for Active; 'I' for Inactive)
REMARK    1  A    between atoms: C_2  and  C_3
REMARK    2  A    between atoms: C_3  and  N_4
REMARK    3  A    between atoms: N_4  and  C_5
REMARK    4  A    between atoms: N_4  and  C_11
REMARK    5  A    between atoms: N_17  and  C_18
REMARK    6  A    between atoms: C_21  and  C_22
REMARK                            x       y       z     vdW  Elec       q    Type
REMARK                         _______ _______ _______ _____ _____    ______ ____
ROOT
ATOM      1  O   UNL     1       2.568   4.366  18.029  0.00  0.00    +0.000 OA
ATOM      2  C   UNL     1       3.429   5.018  17.436  0.00  0.00    +0.000 C 
ATOM      3  N   UNL     1       3.554   6.401  17.496  0.00  0.00    +0.000 N 
ATOM      4  H   UNL     1       4.269   6.829  16.916  0.00  0.00    +0.000 HD
ENDROOT
BRANCH   3   5
ATOM      5  C   UNL     1       2.771   7.274  18.296  0.00  0.00    +0.000 A 
ATOM      6  C   UNL     1       2.459   7.020  19.635  0.00  0.00    +0.000 A 
ATOM      7  C   UNL     1       1.700   7.919  20.398  0.00  0.00    +0.000 A 
ATOM      8  C   UNL     1       1.236   9.114  19.845  0.00  0.00    +0.000 A 
ATOM      9  C   UNL     1       1.555   9.376  18.504  0.00  0.00    +0.000 A 
ATOM     10  C   UNL     1       2.313   8.472  17.737  0.00  0.00    +0.000 A 
BRANCH   8  11
ATOM     11  C   UNL     1       0.508  10.128  20.631  0.00  0.00    +0.000 A 
ATOM     12  N   UNL     1       0.649  11.424  20.445  0.00  0.00    +0.000 NA
ATOM     13  C   UNL     1      -0.075  12.126  21.392  0.00  0.00    +0.000 A 
ATOM     14  C   UNL     1      -0.098  13.525  21.535  0.00  0.00    +0.000 A 
ATOM     15  C   UNL     1      -0.857  14.113  22.549  0.00  0.00    +0.000 A 
ATOM     16  C   UNL     1      -1.605  13.322  23.412  0.00  0.00    +0.000 A 
ATOM     17  C   UNL     1      -1.608  11.926  23.289  0.00  0.00    +0.000 A 
ATOM     18  C   UNL     1      -0.827  11.346  22.274  0.00  0.00    +0.000 A 
ATOM     19  S   UNL     1      -0.599   9.688  21.880  0.00  0.00    +0.000 S 
ENDBRANCH   8  11
ENDBRANCH   3   5
BRANCH   2  20
ATOM     20  C   UNL     1       4.531   4.287  16.660  0.00  0.00    +0.000 C 
BRANCH  20  21
ATOM     21  N   UNL     1       5.604   5.143  16.069  0.00  0.00    +0.000 N 
BRANCH  21  22
ATOM     22  C   UNL     1       6.498   5.727  17.023  0.00  0.00    +0.000 A 
ATOM     23  C   UNL     1       7.130   5.005  18.053  0.00  0.00    +0.000 A 
ATOM     24  C   UNL     1       8.006   5.623  18.954  0.00  0.00    +0.000 A 
ATOM     25  C   UNL     1       8.302   6.975  18.827  0.00  0.00    +0.000 A 
ATOM     26  C   UNL     1       7.713   7.710  17.805  0.00  0.00    +0.000 A 
ATOM     27  C   UNL     1       6.813   7.095  16.924  0.00  0.00    +0.000 A 
ENDBRANCH  21  22
BRANCH  21  28
ATOM     28  C   UNL     1       6.038   4.724  14.760  0.00  0.00    +0.000 A 
ATOM     29  C   UNL     1       7.249   5.151  14.194  0.00  0.00    +0.000 A 
ATOM     30  C   UNL     1       7.647   4.788  12.898  0.00  0.00    +0.000 A 
ATOM     31  C   UNL     1       6.863   3.932  12.141  0.00  0.00    +0.000 A 
ATOM     32  C   UNL     1       5.681   3.445  12.683  0.00  0.00    +0.000 A 
ATOM     33  C   UNL     1       5.272   3.844  13.966  0.00  0.00    +0.000 A 
ENDBRANCH  21  28
ENDBRANCH  20  21
ENDBRANCH   2  20
TORSDOF 6
ENDMDL
MODEL 5
REMARK VINA RESULT:      -8.9      2.572      4.618
REMARK  Name = 
REMARK  6 active torsions:
REMARK  status: ('A' for Active; 'I' for Inactive)
REMARK    1  A    between atoms: C_2  and  C_3
REMARK    2  A    between atoms: C_3  and  N_4
REMARK    3  A    between atoms: N_4  and  C_5
REMARK    4  A    between atoms: N_4  and  C_11
REMARK    5  A    between atoms: N_17  and  C_18
REMARK    6  A    between atoms: C_21  and  C_22
REMARK                            x       y       z     vdW  Elec       q    Type
REMARK                         _______ _______ _______ _____ _____    ______ ____
ROOT
ATOM      1  O   UNL     1       2.837   9.041  18.123  0.00  0.00    +0.000 OA
ATOM      2  C   UNL     1       2.373   8.000  18.591  0.00  0.00    +0.000 C 
ATOM      3  N   UNL     1       1.486   7.939  19.660  0.00  0.00    +0.000 N 
ATOM      4  H   UNL     1       1.220   7.018  19.990  0.00  0.00    +0.000 HD
ENDROOT
BRANCH   3   5
ATOM      5  C   UNL     1       0.916   9.052  20.332  0.00  0.00    +0.000 A 
ATOM      6  C   UNL     1       0.448  10.193  19.674  0.00  0.00    +0.000 A 
ATOM      7  C   UNL     1      -0.129  11.262  20.375  0.00  0.00    +0.000 A 
ATOM      8  C   UNL     1      -0.266  11.219  21.763  0.00  0.00    +0.000 A 
ATOM      9  C   UNL     1       0.196  10.071  22.426  0.00  0.00    +0.000 A 
ATOM     10  C   UNL     1       0.778   8.999  21.723  0.00  0.00    +0.000 A 
BRANCH   8  11
ATOM     11  C   UNL     1      -0.942  12.280  22.534  0.00  0.00    +0.000 A 
ATOM     12  N   UNL     1      -0.362  13.417  22.858  0.00  0.00    +0.000 NA
ATOM     13  C   UNL     1      -1.199  14.168  23.664  0.00  0.00    +0.000 A 
ATOM     14  C   UNL     1      -0.876  15.404  24.252  0.00  0.00    +0.000 A 
ATOM     15  C   UNL     1      -1.806  16.056  25.067  0.00  0.00    +0.000 A 
ATOM     16  C   UNL     1      -3.057  15.494  25.288  0.00  0.00    +0.000 A 
ATOM     17  C   UNL     1      -3.409  14.268  24.709  0.00  0.00    +0.000 A 
ATOM     18  C   UNL     1      -2.459  13.615  23.904  0.00  0.00    +0.000 A 
ATOM     19  S   UNL     1      -2.568  12.109  23.082  0.00  0.00    +0.000 S 
ENDBRANCH   8  11
ENDBRANCH   3   5
BRANCH   2  20
ATOM     20  C   UNL     1       2.675   6.662  17.905  0.00  0.00    +0.000 C 
BRANCH  20  21
ATOM     21  N   UNL     1       3.429   5.657  18.715  0.00  0.00    +0.000 N 
BRANCH  21  22
ATOM     22  C   UNL     1       2.609   4.714  19.415  0.00  0.00    +0.000 A 
ATOM     23  C   UNL     1       1.682   3.861  18.787  0.00  0.00    +0.000 A 
ATOM     24  C   UNL     1       0.911   2.947  19.517  0.00  0.00    +0.000 A 
ATOM     25  C   UNL     1       1.073   2.838  20.893  0.00  0.00    +0.000 A 
ATOM     26  C   UNL     1       1.998   3.650  21.539  0.00  0.00    +0.000 A 
ATOM     27  C   UNL     1       2.744   4.584  20.810  0.00  0.00    +0.000 A 
ENDBRANCH  21  22
BRANCH  21  28
ATOM     28  C   UNL     1       4.716   5.306  18.170  0.00  0.00    +0.000 A 
ATOM     29  C   UNL     1       5.910   5.465  18.890  0.00  0.00    +0.000 A 
ATOM     30  C   UNL     1       7.169   5.176  18.341  0.00  0.00    +0.000 A 
ATOM     31  C   UNL     1       7.268   4.660  17.058  0.00  0.00    +0.000 A 
ATOM     32  C   UNL     1       6.108   4.439  16.329  0.00  0.00    +0.000 A 
ATOM     33  C   UNL     1       4.855   4.767  16.873  0.00  0.00    +0.000 A 
ENDBRANCH  21  28
ENDBRANCH  20  21
ENDBRANCH   2  20
TORSDOF 6
ENDMDL
MODEL 6
REMARK VINA RESULT:      -8.9      0.720      1.387
REMARK  Name = 
REMARK  6 active torsions:
REMARK  status: ('A' for Active; 'I' for Inactive)
REMARK    1  A    between atoms: C_2  and  C_3
REMARK    2  A    between atoms: C_3  and  N_4
REMARK    3  A    between atoms: N_4  and  C_5
REMARK    4  A    between atoms: N_4  and  C_11
REMARK    5  A    between atoms: N_17  and  C_18
REMARK    6  A    between atoms: C_21  and  C_22
REMARK                            x       y       z     vdW  Elec       q    Type
REMARK                         _______ _______ _______ _____ _____    ______ ____
ROOT
ATOM      1  O   UNL     1       2.261   4.730  17.852  0.00  0.00    +0.000 OA
ATOM      2  C   UNL     1       3.282   5.318  17.493  0.00  0.00    +0.000 C 
ATOM      3  N   UNL     1       3.516   6.677  17.670  0.00  0.00    +0.000 N 
ATOM      4  H   UNL     1       4.372   7.056  17.279  0.00  0.00    +0.000 HD
ENDROOT
BRANCH   3   5
ATOM      5  C   UNL     1       2.665   7.586  18.351  0.00  0.00    +0.000 A 
ATOM      6  C   UNL     1       2.070   8.692  17.736  0.00  0.00    +0.000 A 
ATOM      7  C   UNL     1       1.218   9.555  18.440  0.00  0.00    +0.000 A 
ATOM      8  C   UNL     1       0.923   9.332  19.786  0.00  0.00    +0.000 A 
ATOM      9  C   UNL     1       1.512   8.217  20.403  0.00  0.00    +0.000 A 
ATOM     10  C   UNL     1       2.371   7.353  19.698  0.00  0.00    +0.000 A 
BRANCH   8  11
ATOM     11  C   UNL     1      -0.034  10.162  20.543  0.00  0.00    +0.000 A 
ATOM     12  N   UNL     1      -0.788  11.085  19.985  0.00  0.00    +0.000 NA
ATOM     13  C   UNL     1      -1.504  11.768  20.953  0.00  0.00    +0.000 A 
ATOM     14  C   UNL     1      -2.354  12.864  20.721  0.00  0.00    +0.000 A 
ATOM     15  C   UNL     1      -3.007  13.482  21.790  0.00  0.00    +0.000 A 
ATOM     16  C   UNL     1      -2.830  13.010  23.085  0.00  0.00    +0.000 A 
ATOM     17  C   UNL     1      -1.995  11.916  23.345  0.00  0.00    +0.000 A 
ATOM     18  C   UNL     1      -1.332  11.312  22.262  0.00  0.00    +0.000 A 
ATOM     19  S   UNL     1      -0.236   9.987  22.248  0.00  0.00    +0.000 S 
ENDBRANCH   8  11
ENDBRANCH   3   5
BRANCH   2  20
ATOM     20  C   UNL     1       4.452   4.516  16.911  0.00  0.00    +0.000 C 
BRANCH  20  21
ATOM     21  N   UNL     1       5.521   5.305  16.225  0.00  0.00    +0.000 N 
BRANCH  21  22
ATOM     22  C   UNL     1       6.481   5.902  17.104  0.00  0.00    +0.000 A 
ATOM     23  C   UNL     1       6.911   7.239  17.006  0.00  0.00    +0.000 A 
ATOM     24  C   UNL     1       7.845   7.780  17.899  0.00  0.00    +0.000 A 
ATOM     25  C   UNL     1       8.349   7.005  18.937  0.00  0.00    +0.000 A 
ATOM     26  C   UNL     1       7.927   5.688  19.075  0.00  0.00    +0.000 A 
ATOM     27  C   UNL     1       7.016   5.142  18.161  0.00  0.00    +0.000 A 
ENDBRANCH  21  22
BRANCH  21  28
ATOM     28  C   UNL     1       5.873   4.809  14.919  0.00  0.00    +0.000 A 
ATOM     29  C   UNL     1       4.990   4.046  14.139  0.00  0.00    +0.000 A 
ATOM     30  C   UNL     1       5.350   3.516  12.890  0.00  0.00    +0.000 A 
ATOM     31  C   UNL     1       6.599   3.782  12.353  0.00  0.00    +0.000 A 
ATOM     32  C   UNL     1       7.485   4.576  13.069  0.00  0.00    +0.000 A 
ATOM     33  C   UNL     1       7.130   5.071  14.334  0.00  0.00    +0.000 A 
ENDBRANCH  21  28
ENDBRANCH  20  21
ENDBRANCH   2  20
TORSDOF 6
ENDMDL
MODEL 7
REMARK VINA RESULT:      -8.8      2.334      4.437
REMARK  Name = 
REMARK  6 active torsions:
REMARK  status: ('A' for Active; 'I' for Inactive)
REMARK    1  A    between atoms: C_2  and  C_3
REMARK    2  A    between atoms: C_3  and  N_4
REMARK    3  A    between atoms: N_4  and  C_5
REMARK    4  A    between atoms: N_4  and  C_11
REMARK    5  A    between atoms: N_17  and  C_18
REMARK    6  A    between atoms: C_21  and  C_22
REMARK                            x       y       z     vdW  Elec       q    Type
REMARK                         _______ _______ _______ _____ _____    ______ ____
ROOT
ATOM      1  O   UNL     1       2.763   8.854  17.849  0.00  0.00    +0.000 OA
ATOM      2  C   UNL     1       2.489   7.810  18.445  0.00  0.00    +0.000 C 
ATOM      3  N   UNL     1       1.725   7.739  19.604  0.00  0.00    +0.000 N 
ATOM      4  H   UNL     1       1.616   6.826  20.033  0.00  0.00    +0.000 HD
ENDROOT
BRANCH   3   5
ATOM      5  C   UNL     1       1.078   8.829  20.243  0.00  0.00    +0.000 A 
ATOM      6  C   UNL     1       0.499   9.896  19.549  0.00  0.00    +0.000 A 
ATOM      7  C   UNL     1      -0.150  10.944  20.217  0.00  0.00    +0.000 A 
ATOM      8  C   UNL     1      -0.249  10.953  21.610  0.00  0.00    +0.000 A 
ATOM      9  C   UNL     1       0.324   9.879  22.308  0.00  0.00    +0.000 A 
ATOM     10  C   UNL     1       0.978   8.829  21.638  0.00  0.00    +0.000 A 
BRANCH   8  11
ATOM     11  C   UNL     1      -0.995  11.988  22.351  0.00  0.00    +0.000 A 
ATOM     12  N   UNL     1      -2.101  11.742  23.020  0.00  0.00    +0.000 NA
ATOM     13  C   UNL     1      -2.629  12.917  23.523  0.00  0.00    +0.000 A 
ATOM     14  C   UNL     1      -3.841  13.036  24.227  0.00  0.00    +0.000 A 
ATOM     15  C   UNL     1      -4.276  14.288  24.667  0.00  0.00    +0.000 A 
ATOM     16  C   UNL     1      -3.507  15.421  24.424  0.00  0.00    +0.000 A 
ATOM     17  C   UNL     1      -2.293  15.332  23.733  0.00  0.00    +0.000 A 
ATOM     18  C   UNL     1      -1.874  14.067  23.282  0.00  0.00    +0.000 A 
ATOM     19  S   UNL     1      -0.467  13.631  22.395  0.00  0.00    +0.000 S 
ENDBRANCH   8  11
ENDBRANCH   3   5
BRANCH   2  20
ATOM     20  C   UNL     1       2.900   6.463  17.839  0.00  0.00    +0.000 C 
BRANCH  20  21
ATOM     21  N   UNL     1       3.645   5.531  18.740  0.00  0.00    +0.000 N 
BRANCH  21  22
ATOM     22  C   UNL     1       2.824   4.587  19.437  0.00  0.00    +0.000 A 
ATOM     23  C   UNL     1       2.802   4.449  20.838  0.00  0.00    +0.000 A 
ATOM     24  C   UNL     1       1.971   3.516  21.472  0.00  0.00    +0.000 A 
ATOM     25  C   UNL     1       1.112   2.721  20.723  0.00  0.00    +0.000 A 
ATOM     26  C   UNL     1       1.094   2.851  19.339  0.00  0.00    +0.000 A 
ATOM     27  C   UNL     1       1.949   3.763  18.707  0.00  0.00    +0.000 A 
ENDBRANCH  21  22
BRANCH  21  28
ATOM     28  C   UNL     1       4.975   5.211  18.287  0.00  0.00    +0.000 A 
ATOM     29  C   UNL     1       6.115   5.436  19.075  0.00  0.00    +0.000 A 
ATOM     30  C   UNL     1       7.415   5.177  18.615  0.00  0.00    +0.000 A 
ATOM     31  C   UNL     1       7.614   4.627  17.358  0.00  0.00    +0.000 A 
ATOM     32  C   UNL     1       6.510   4.341  16.566  0.00  0.00    +0.000 A 
ATOM     33  C   UNL     1       5.215   4.639  17.020  0.00  0.00    +0.000 A 
ENDBRANCH  21  28
ENDBRANCH  20  21
ENDBRANCH   2  20
TORSDOF 6
ENDMDL
MODEL 8
REMARK VINA RESULT:      -8.8      2.605      4.556
REMARK  Name = 
REMARK  6 active torsions:
REMARK  status: ('A' for Active; 'I' for Inactive)
REMARK    1  A    between atoms: C_2  and  C_3
REMARK    2  A    between atoms: C_3  and  N_4
REMARK    3  A    between atoms: N_4  and  C_5
REMARK    4  A    between atoms: N_4  and  C_11
REMARK    5  A    between atoms: N_17  and  C_18
REMARK    6  A    between atoms: C_21  and  C_22
REMARK                            x       y       z     vdW  Elec       q    Type
REMARK                         _______ _______ _______ _____ _____    ______ ____
ROOT
ATOM      1  O   UNL     1       2.671   8.869  18.031  0.00  0.00    +0.000 OA
ATOM      2  C   UNL     1       2.331   7.838  18.613  0.00  0.00    +0.000 C 
ATOM      3  N   UNL     1       1.539   7.799  19.756  0.00  0.00    +0.000 N 
ATOM      4  H   UNL     1       1.375   6.890  20.176  0.00  0.00    +0.000 HD
ENDROOT
BRANCH   3   5
ATOM      5  C   UNL     1       0.938   8.918  20.390  0.00  0.00    +0.000 A 
ATOM      6  C   UNL     1       0.271   9.931  19.694  0.00  0.00    +0.000 A 
ATOM      7  C   UNL     1      -0.329  11.009  20.360  0.00  0.00    +0.000 A 
ATOM      8  C   UNL     1      -0.290  11.103  21.753  0.00  0.00    +0.000 A 
ATOM      9  C   UNL     1       0.370  10.082  22.454  0.00  0.00    +0.000 A 
ATOM     10  C   UNL     1       0.976   9.002  21.785  0.00  0.00    +0.000 A 
BRANCH   8  11
ATOM     11  C   UNL     1      -0.979  12.171  22.502  0.00  0.00    +0.000 A 
ATOM     12  N   UNL     1      -0.367  13.245  22.954  0.00  0.00    +0.000 NA
ATOM     13  C   UNL     1      -1.240  14.015  23.703  0.00  0.00    +0.000 A 
ATOM     14  C   UNL     1      -0.907  15.193  24.394  0.00  0.00    +0.000 A 
ATOM     15  C   UNL     1      -1.879  15.869  25.134  0.00  0.00    +0.000 A 
ATOM     16  C   UNL     1      -3.183  15.390  25.180  0.00  0.00    +0.000 A 
ATOM     17  C   UNL     1      -3.545  14.224  24.495  0.00  0.00    +0.000 A 
ATOM     18  C   UNL     1      -2.554  13.544  23.766  0.00  0.00    +0.000 A 
ATOM     19  S   UNL     1      -2.667  12.092  22.852  0.00  0.00    +0.000 S 
ENDBRANCH   8  11
ENDBRANCH   3   5
BRANCH   2  20
ATOM     20  C   UNL     1       2.683   6.474  18.006  0.00  0.00    +0.000 C 
BRANCH  20  21
ATOM     21  N   UNL     1       3.535   5.576  18.844  0.00  0.00    +0.000 N 
BRANCH  21  22
ATOM     22  C   UNL     1       2.813   4.594  19.595  0.00  0.00    +0.000 A 
ATOM     23  C   UNL     1       3.277   4.024  20.796  0.00  0.00    +0.000 A 
ATOM     24  C   UNL     1       2.525   3.074  21.499  0.00  0.00    +0.000 A 
ATOM     25  C   UNL     1       1.271   2.694  21.037  0.00  0.00    +0.000 A 
ATOM     26  C   UNL     1       0.774   3.256  19.867  0.00  0.00    +0.000 A 
ATOM     27  C   UNL     1       1.542   4.183  19.151  0.00  0.00    +0.000 A 
ENDBRANCH  21  22
BRANCH  21  28
ATOM     28  C   UNL     1       4.841   5.319  18.292  0.00  0.00    +0.000 A 
ATOM     29  C   UNL     1       5.025   4.795  17.002  0.00  0.00    +0.000 A 
ATOM     30  C   UNL     1       6.293   4.492  16.483  0.00  0.00    +0.000 A 
ATOM     31  C   UNL     1       7.433   4.759  17.226  0.00  0.00    +0.000 A 
ATOM     32  C   UNL     1       7.298   5.325  18.486  0.00  0.00    +0.000 A 
ATOM     33  C   UNL     1       6.023   5.589  19.013  0.00  0.00    +0.000 A 
ENDBRANCH  21  28
ENDBRANCH  20  21
ENDBRANCH   2  20
TORSDOF 6
ENDMDL
MODEL 9
REMARK VINA RESULT:      -8.8      0.357      1.243
REMARK  Name = 
REMARK  6 active torsions:
REMARK  status: ('A' for Active; 'I' for Inactive)
REMARK    1  A    between atoms: C_2  and  C_3
REMARK    2  A    between atoms: C_3  and  N_4
REMARK    3  A    between atoms: N_4  and  C_5
REMARK    4  A    between atoms: N_4  and  C_11
REMARK    5  A    between atoms: N_17  and  C_18
REMARK    6  A    between atoms: C_21  and  C_22
REMARK                            x       y       z     vdW  Elec       q    Type
REMARK                         _______ _______ _______ _____ _____    ______ ____
ROOT
ATOM      1  O   UNL     1       2.185   4.910  17.827  0.00  0.00    +0.000 OA
ATOM      2  C   UNL     1       3.241   5.464  17.516  0.00  0.00    +0.000 C 
ATOM      3  N   UNL     1       3.503   6.819  17.685  0.00  0.00    +0.000 N 
ATOM      4  H   UNL     1       4.390   7.167  17.337  0.00  0.00    +0.000 HD
ENDROOT
BRANCH   3   5
ATOM      5  C   UNL     1       2.642   7.762  18.304  0.00  0.00    +0.000 A 
ATOM      6  C   UNL     1       2.131   8.886  17.647  0.00  0.00    +0.000 A 
ATOM      7  C   UNL     1       1.266   9.783  18.289  0.00  0.00    +0.000 A 
ATOM      8  C   UNL     1       0.872   9.578  19.612  0.00  0.00    +0.000 A 
ATOM      9  C   UNL     1       1.377   8.446  20.271  0.00  0.00    +0.000 A 
ATOM     10  C   UNL     1       2.249   7.548  19.629  0.00  0.00    +0.000 A 
BRANCH   8  11
ATOM     11  C   UNL     1      -0.102  10.447  20.301  0.00  0.00    +0.000 A 
ATOM     12  N   UNL     1      -0.257  10.463  21.608  0.00  0.00    +0.000 NA
ATOM     13  C   UNL     1      -1.308  11.293  21.956  0.00  0.00    +0.000 A 
ATOM     14  C   UNL     1      -1.797  11.493  23.259  0.00  0.00    +0.000 A 
ATOM     15  C   UNL     1      -2.882  12.345  23.476  0.00  0.00    +0.000 A 
ATOM     16  C   UNL     1      -3.474  13.011  22.410  0.00  0.00    +0.000 A 
ATOM     17  C   UNL     1      -3.003  12.837  21.102  0.00  0.00    +0.000 A 
ATOM     18  C   UNL     1      -1.920  11.965  20.895  0.00  0.00    +0.000 A 
ATOM     19  S   UNL     1      -1.134  11.521  19.431  0.00  0.00    +0.000 S 
ENDBRANCH   8  11
ENDBRANCH   3   5
BRANCH   2  20
ATOM     20  C   UNL     1       4.418   4.620  17.012  0.00  0.00    +0.000 C 
BRANCH  20  21
ATOM     21  N   UNL     1       5.509   5.359  16.307  0.00  0.00    +0.000 N 
BRANCH  21  22
ATOM     22  C   UNL     1       6.483   5.957  17.171  0.00  0.00    +0.000 A 
ATOM     23  C   UNL     1       6.939   7.282  17.043  0.00  0.00    +0.000 A 
ATOM     24  C   UNL     1       7.885   7.824  17.922  0.00  0.00    +0.000 A 
ATOM     25  C   UNL     1       8.376   7.062  18.976  0.00  0.00    +0.000 A 
ATOM     26  C   UNL     1       7.927   5.757  19.144  0.00  0.00    +0.000 A 
ATOM     27  C   UNL     1       7.004   5.210  18.244  0.00  0.00    +0.000 A 
ENDBRANCH  21  22
BRANCH  21  28
ATOM     28  C   UNL     1       5.851   4.816  15.017  0.00  0.00    +0.000 A 
ATOM     29  C   UNL     1       7.119   4.986  14.439  0.00  0.00    +0.000 A 
ATOM     30  C   UNL     1       7.437   4.506  13.159  0.00  0.00    +0.000 A 
ATOM     31  C   UNL     1       6.503   3.783  12.433  0.00  0.00    +0.000 A 
ATOM     32  C   UNL     1       5.253   3.548  12.989  0.00  0.00    +0.000 A 
ATOM     33  C   UNL     1       4.931   4.065  14.255  0.00  0.00    +0.000 A 
ENDBRANCH  21  28
ENDBRANCH  20  21
ENDBRANCH   2  20
TORSDOF 6
ENDMDL
