MODEL 1
REMARK VINA RESULT:      -7.3      0.000      0.000
REMARK  Name = 
REMARK  4 active torsions:
REMARK  status: ('A' for Active; 'I' for Inactive)
REMARK    1  A    between atoms: C_2  and  C_3
REMARK    2  A    between atoms: C_3  and  N_4
REMARK    3  A    between atoms: C_7  and  C_8
REMARK    4  A    between atoms: N_15  and  O_16
REMARK                            x       y       z     vdW  Elec       q    Type
REMARK                         _______ _______ _______ _____ _____    ______ ____
ROOT
ATOM      1  N   UNL     1       6.106   4.395  17.769  0.00  0.00    +0.000 N 
ATOM      2  N   UNL     1       5.383   4.000  16.708  0.00  0.00    +0.000 NA
ATOM      3  N   UNL     1       4.217   3.627  17.216  0.00  0.00    +0.000 NA
ATOM      4  C   UNL     1       4.294   3.814  18.575  0.00  0.00    +0.000 A 
ATOM      5  N   UNL     1       5.484   4.312  18.961  0.00  0.00    +0.000 NA
ENDROOT
BRANCH   4   6
ATOM      6  C   UNL     1       3.218   3.494  19.499  0.00  0.00    +0.000 A 
ATOM      7  C   UNL     1       3.455   2.716  20.638  0.00  0.00    +0.000 A 
ATOM      8  C   UNL     1       2.417   2.455  21.538  0.00  0.00    +0.000 A 
ATOM      9  C   UNL     1       1.140   2.956  21.297  0.00  0.00    +0.000 A 
ATOM     10  C   UNL     1       0.889   3.717  20.157  0.00  0.00    +0.000 A 
ATOM     11  C   UNL     1       1.924   3.985  19.262  0.00  0.00    +0.000 A 
ENDBRANCH   4   6
BRANCH   1  12
ATOM     12  C   UNL     1       7.477   4.834  17.652  0.00  0.00    +0.000 C 
BRANCH  12  14
ATOM     13  N   UNL     1       8.148   5.540  19.993  0.00  0.00    +0.000 N 
ATOM     14  C   UNL     1       7.876   5.880  18.687  0.00  0.00    +0.000 C 
ATOM     15  N   UNL     1       7.985   7.147  18.379  0.00  0.00    +0.000 NA
ATOM     16  H   UNL     1       8.513   4.602  20.157  0.00  0.00    +0.000 HD
ATOM     17  H   UNL     1       8.652   6.261  20.496  0.00  0.00    +0.000 HD
BRANCH  15  18
ATOM     18  O   UNL     1       7.688   7.379  17.033  0.00  0.00    +0.000 OA
ATOM     19  H   UNL     1       7.782   6.487  16.645  0.00  0.00    +0.000 HD
ENDBRANCH  15  18
ENDBRANCH  12  14
ENDBRANCH   1  12
TORSDOF 4
ENDMDL
MODEL 2
REMARK VINA RESULT:      -7.2      0.110      1.213
REMARK  Name = 
REMARK  4 active torsions:
REMARK  status: ('A' for Active; 'I' for Inactive)
REMARK    1  A    between atoms: C_2  and  C_3
REMARK    2  A    between atoms: C_3  and  N_4
REMARK    3  A    between atoms: C_7  and  C_8
REMARK    4  A    between atoms: N_15  and  O_16
REMARK                            x       y       z     vdW  Elec       q    Type
REMARK                         _______ _______ _______ _____ _____    ______ ____
ROOT
ATOM      1  N   UNL     1       6.034   4.445  17.666  0.00  0.00    +0.000 N 
ATOM      2  N   UNL     1       5.316   3.969  16.634  0.00  0.00    +0.000 NA
ATOM      3  N   UNL     1       4.160   3.604  17.168  0.00  0.00    +0.000 NA
ATOM      4  C   UNL     1       4.236   3.877  18.513  0.00  0.00    +0.000 A 
ATOM      5  N   UNL     1       5.416   4.422  18.863  0.00  0.00    +0.000 NA
ENDROOT
BRANCH   4   6
ATOM      6  C   UNL     1       3.169   3.592  19.458  0.00  0.00    +0.000 A 
ATOM      7  C   UNL     1       1.875   4.084  19.253  0.00  0.00    +0.000 A 
ATOM      8  C   UNL     1       0.851   3.764  20.149  0.00  0.00    +0.000 A 
ATOM      9  C   UNL     1       1.117   2.965  21.259  0.00  0.00    +0.000 A 
ATOM     10  C   UNL     1       2.405   2.482  21.482  0.00  0.00    +0.000 A 
ATOM     11  C   UNL     1       3.427   2.794  20.585  0.00  0.00    +0.000 A 
ENDBRANCH   4   6
BRANCH   1  12
ATOM     12  C   UNL     1       7.394   4.904  17.518  0.00  0.00    +0.000 C 
BRANCH  12  14
ATOM     13  N   UNL     1       8.090   5.515  19.878  0.00  0.00    +0.000 N 
ATOM     14  C   UNL     1       7.823   5.905  18.585  0.00  0.00    +0.000 C 
ATOM     15  N   UNL     1       7.965   7.178  18.319  0.00  0.00    +0.000 NA
ATOM     16  H   UNL     1       8.430   4.563  20.010  0.00  0.00    +0.000 HD
ATOM     17  H   UNL     1       8.613   6.206  20.403  0.00  0.00    +0.000 HD
BRANCH  15  18
ATOM     18  O   UNL     1       7.671   7.462  16.981  0.00  0.00    +0.000 OA
ATOM     19  H   UNL     1       6.839   7.967  17.056  0.00  0.00    +0.000 HD
ENDBRANCH  15  18
ENDBRANCH  12  14
ENDBRANCH   1  12
TORSDOF 4
ENDMDL
MODEL 3
REMARK VINA RESULT:      -7.1      1.813      2.183
REMARK  Name = 
REMARK  4 active torsions:
REMARK  status: ('A' for Active; 'I' for Inactive)
REMARK    1  A    between atoms: C_2  and  C_3
REMARK    2  A    between atoms: C_3  and  N_4
REMARK    3  A    between atoms: C_7  and  C_8
REMARK    4  A    between atoms: N_15  and  O_16
REMARK                            x       y       z     vdW  Elec       q    Type
REMARK                         _______ _______ _______ _____ _____    ______ ____
ROOT
ATOM      1  N   UNL     1       5.496   6.258  17.884  0.00  0.00    +0.000 N 
ATOM      2  N   UNL     1       4.611   7.117  17.353  0.00  0.00    +0.000 NA
ATOM      3  N   UNL     1       3.425   6.616  17.667  0.00  0.00    +0.000 NA
ATOM      4  C   UNL     1       3.654   5.463  18.380  0.00  0.00    +0.000 A 
ATOM      5  N   UNL     1       4.966   5.210  18.544  0.00  0.00    +0.000 NA
ENDROOT
BRANCH   4   6
ATOM      6  C   UNL     1       2.598   4.602  18.886  0.00  0.00    +0.000 A 
ATOM      7  C   UNL     1       2.032   3.607  18.080  0.00  0.00    +0.000 A 
ATOM      8  C   UNL     1       1.048   2.759  18.597  0.00  0.00    +0.000 A 
ATOM      9  C   UNL     1       0.617   2.910  19.914  0.00  0.00    +0.000 A 
ATOM     10  C   UNL     1       1.162   3.907  20.720  0.00  0.00    +0.000 A 
ATOM     11  C   UNL     1       2.149   4.749  20.208  0.00  0.00    +0.000 A 
ENDBRANCH   4   6
BRANCH   1  12
ATOM     12  C   UNL     1       6.922   6.415  17.720  0.00  0.00    +0.000 C 
BRANCH  12  14
ATOM     13  N   UNL     1       8.007   5.433  19.790  0.00  0.00    +0.000 N 
ATOM     14  C   UNL     1       7.742   5.351  18.442  0.00  0.00    +0.000 C 
ATOM     15  N   UNL     1       8.225   4.310  17.814  0.00  0.00    +0.000 NA
ATOM     16  H   UNL     1       7.320   5.918  20.366  0.00  0.00    +0.000 HD
ATOM     17  H   UNL     1       8.317   4.554  20.190  0.00  0.00    +0.000 HD
BRANCH  15  18
ATOM     18  O   UNL     1       7.896   4.327  16.455  0.00  0.00    +0.000 OA
ATOM     19  H   UNL     1       6.992   3.959  16.457  0.00  0.00    +0.000 HD
ENDBRANCH  15  18
ENDBRANCH  12  14
ENDBRANCH   1  12
TORSDOF 4
ENDMDL
MODEL 4
REMARK VINA RESULT:      -7.0      1.956      2.251
REMARK  Name = 
REMARK  4 active torsions:
REMARK  status: ('A' for Active; 'I' for Inactive)
REMARK    1  A    between atoms: C_2  and  C_3
REMARK    2  A    between atoms: C_3  and  N_4
REMARK    3  A    between atoms: C_7  and  C_8
REMARK    4  A    between atoms: N_15  and  O_16
REMARK                            x       y       z     vdW  Elec       q    Type
REMARK                         _______ _______ _______ _____ _____    ______ ____
ROOT
ATOM      1  N   UNL     1       5.196   6.265  17.601  0.00  0.00    +0.000 N 
ATOM      2  N   UNL     1       4.255   7.198  17.381  0.00  0.00    +0.000 NA
ATOM      3  N   UNL     1       3.141   6.675  17.872  0.00  0.00    +0.000 NA
ATOM      4  C   UNL     1       3.467   5.435  18.369  0.00  0.00    +0.000 A 
ATOM      5  N   UNL     1       4.772   5.146  18.220  0.00  0.00    +0.000 NA
ENDROOT
BRANCH   4   6
ATOM      6  C   UNL     1       2.505   4.528  18.972  0.00  0.00    +0.000 A 
ATOM      7  C   UNL     1       2.298   4.513  20.357  0.00  0.00    +0.000 A 
ATOM      8  C   UNL     1       1.338   3.665  20.916  0.00  0.00    +0.000 A 
ATOM      9  C   UNL     1       0.591   2.819  20.098  0.00  0.00    +0.000 A 
ATOM     10  C   UNL     1       0.800   2.813  18.720  0.00  0.00    +0.000 A 
ATOM     11  C   UNL     1       1.752   3.664  18.159  0.00  0.00    +0.000 A 
ENDBRANCH   4   6
BRANCH   1  12
ATOM     12  C   UNL     1       6.563   6.424  17.163  0.00  0.00    +0.000 C 
BRANCH  12  14
ATOM     13  N   UNL     1       7.643   4.360  18.164  0.00  0.00    +0.000 N 
ATOM     14  C   UNL     1       7.328   5.110  17.053  0.00  0.00    +0.000 C 
ATOM     15  N   UNL     1       7.714   4.631  15.898  0.00  0.00    +0.000 NA
ATOM     16  H   UNL     1       7.011   4.432  18.961  0.00  0.00    +0.000 HD
ATOM     17  H   UNL     1       7.902   3.406  17.941  0.00  0.00    +0.000 HD
BRANCH  15  18
ATOM     18  O   UNL     1       7.342   5.469  14.842  0.00  0.00    +0.000 OA
ATOM     19  H   UNL     1       7.087   4.828  14.150  0.00  0.00    +0.000 HD
ENDBRANCH  15  18
ENDBRANCH  12  14
ENDBRANCH   1  12
TORSDOF 4
ENDMDL
MODEL 5
REMARK VINA RESULT:      -7.0      1.819      2.555
REMARK  Name = 
REMARK  4 active torsions:
REMARK  status: ('A' for Active; 'I' for Inactive)
REMARK    1  A    between atoms: C_2  and  C_3
REMARK    2  A    between atoms: C_3  and  N_4
REMARK    3  A    between atoms: C_7  and  C_8
REMARK    4  A    between atoms: N_15  and  O_16
REMARK                            x       y       z     vdW  Elec       q    Type
REMARK                         _______ _______ _______ _____ _____    ______ ____
ROOT
ATOM      1  N   UNL     1       5.076   4.725  16.836  0.00  0.00    +0.000 N 
ATOM      2  N   UNL     1       6.080   4.452  17.687  0.00  0.00    +0.000 NA
ATOM      3  N   UNL     1       5.482   3.984  18.773  0.00  0.00    +0.000 NA
ATOM      4  C   UNL     1       4.131   3.998  18.524  0.00  0.00    +0.000 A 
ATOM      5  N   UNL     1       3.838   4.457  17.293  0.00  0.00    +0.000 NA
ENDROOT
BRANCH   4   6
ATOM      6  C   UNL     1       3.126   3.580  19.488  0.00  0.00    +0.000 A 
ATOM      7  C   UNL     1       3.485   2.875  20.643  0.00  0.00    +0.000 A 
ATOM      8  C   UNL     1       2.511   2.520  21.581  0.00  0.00    +0.000 A 
ATOM      9  C   UNL     1       1.176   2.853  21.363  0.00  0.00    +0.000 A 
ATOM     10  C   UNL     1       0.805   3.540  20.209  0.00  0.00    +0.000 A 
ATOM     11  C   UNL     1       1.776   3.902  19.275  0.00  0.00    +0.000 A 
ENDBRANCH   4   6
BRANCH   1  12
ATOM     12  C   UNL     1       5.300   5.312  15.536  0.00  0.00    +0.000 C 
BRANCH  12  14
ATOM     13  N   UNL     1       6.307   3.656  13.902  0.00  0.00    +0.000 N 
ATOM     14  C   UNL     1       6.475   4.701  14.782  0.00  0.00    +0.000 C 
ATOM     15  N   UNL     1       7.696   5.148  14.930  0.00  0.00    +0.000 NA
ATOM     16  H   UNL     1       5.405   3.593  13.430  0.00  0.00    +0.000 HD
ATOM     17  H   UNL     1       7.096   3.527  13.279  0.00  0.00    +0.000 HD
BRANCH  15  18
ATOM     18  O   UNL     1       7.751   6.206  15.842  0.00  0.00    +0.000 OA
ATOM     19  H   UNL     1       8.375   5.868  16.512  0.00  0.00    +0.000 HD
ENDBRANCH  15  18
ENDBRANCH  12  14
ENDBRANCH   1  12
TORSDOF 4
ENDMDL
MODEL 6
REMARK VINA RESULT:      -6.9      2.038      2.637
REMARK  Name = 
REMARK  4 active torsions:
REMARK  status: ('A' for Active; 'I' for Inactive)
REMARK    1  A    between atoms: C_2  and  C_3
REMARK    2  A    between atoms: C_3  and  N_4
REMARK    3  A    between atoms: C_7  and  C_8
REMARK    4  A    between atoms: N_15  and  O_16
REMARK                            x       y       z     vdW  Elec       q    Type
REMARK                         _______ _______ _______ _____ _____    ______ ____
ROOT
ATOM      1  N   UNL     1       5.388   6.294  17.669  0.00  0.00    +0.000 N 
ATOM      2  N   UNL     1       4.430   7.142  17.259  0.00  0.00    +0.000 NA
ATOM      3  N   UNL     1       3.304   6.634  17.738  0.00  0.00    +0.000 NA
ATOM      4  C   UNL     1       3.639   5.489  18.419  0.00  0.00    +0.000 A 
ATOM      5  N   UNL     1       4.963   5.248  18.403  0.00  0.00    +0.000 NA
ENDROOT
BRANCH   4   6
ATOM      6  C   UNL     1       2.671   4.623  19.072  0.00  0.00    +0.000 A 
ATOM      7  C   UNL     1       1.857   3.763  18.326  0.00  0.00    +0.000 A 
ATOM      8  C   UNL     1       0.961   2.906  18.973  0.00  0.00    +0.000 A 
ATOM      9  C   UNL     1       0.866   2.914  20.363  0.00  0.00    +0.000 A 
ATOM     10  C   UNL     1       1.659   3.778  21.115  0.00  0.00    +0.000 A 
ATOM     11  C   UNL     1       2.559   4.629  20.472  0.00  0.00    +0.000 A 
ENDBRANCH   4   6
BRANCH   1  12
ATOM     12  C   UNL     1       6.777   6.460  17.309  0.00  0.00    +0.000 C 
BRANCH  12  14
ATOM     13  N   UNL     1       7.207   5.509  15.000  0.00  0.00    +0.000 N 
ATOM     14  C   UNL     1       7.299   5.382  16.368  0.00  0.00    +0.000 C 
ATOM     15  N   UNL     1       7.865   4.291  16.816  0.00  0.00    +0.000 NA
ATOM     16  H   UNL     1       7.214   6.457  14.624  0.00  0.00    +0.000 HD
ATOM     17  H   UNL     1       7.818   4.873  14.498  0.00  0.00    +0.000 HD
BRANCH  15  18
ATOM     18  O   UNL     1       7.907   4.267  18.213  0.00  0.00    +0.000 OA
ATOM     19  H   UNL     1       7.823   5.214  18.438  0.00  0.00    +0.000 HD
ENDBRANCH  15  18
ENDBRANCH  12  14
ENDBRANCH   1  12
TORSDOF 4
ENDMDL
MODEL 7
REMARK VINA RESULT:      -6.9      2.002      2.470
REMARK  Name = 
REMARK  4 active torsions:
REMARK  status: ('A' for Active; 'I' for Inactive)
REMARK    1  A    between atoms: C_2  and  C_3
REMARK    2  A    between atoms: C_3  and  N_4
REMARK    3  A    between atoms: C_7  and  C_8
REMARK    4  A    between atoms: N_15  and  O_16
REMARK                            x       y       z     vdW  Elec       q    Type
REMARK                         _______ _______ _______ _____ _____    ______ ____
ROOT
ATOM      1  N   UNL     1       5.225   6.328  17.550  0.00  0.00    +0.000 N 
ATOM      2  N   UNL     1       4.313   7.299  17.373  0.00  0.00    +0.000 NA
ATOM      3  N   UNL     1       3.183   6.789  17.841  0.00  0.00    +0.000 NA
ATOM      4  C   UNL     1       3.469   5.518  18.281  0.00  0.00    +0.000 A 
ATOM      5  N   UNL     1       4.766   5.196  18.118  0.00  0.00    +0.000 NA
ENDROOT
BRANCH   4   6
ATOM      6  C   UNL     1       2.479   4.615  18.843  0.00  0.00    +0.000 A 
ATOM      7  C   UNL     1       1.898   3.608  18.064  0.00  0.00    +0.000 A 
ATOM      8  C   UNL     1       0.979   2.721  18.633  0.00  0.00    +0.000 A 
ATOM      9  C   UNL     1       0.629   2.843  19.976  0.00  0.00    +0.000 A 
ATOM     10  C   UNL     1       1.189   3.852  20.757  0.00  0.00    +0.000 A 
ATOM     11  C   UNL     1       2.111   4.734  20.193  0.00  0.00    +0.000 A 
ENDBRANCH   4   6
BRANCH   1  12
ATOM     12  C   UNL     1       6.596   6.463  17.118  0.00  0.00    +0.000 C 
BRANCH  12  14
ATOM     13  N   UNL     1       7.739   4.346  17.914  0.00  0.00    +0.000 N 
ATOM     14  C   UNL     1       7.296   5.132  16.874  0.00  0.00    +0.000 C 
ATOM     15  N   UNL     1       7.502   4.671  15.666  0.00  0.00    +0.000 NA
ATOM     16  H   UNL     1       7.228   4.415  18.793  0.00  0.00    +0.000 HD
ATOM     17  H   UNL     1       7.934   3.390  17.637  0.00  0.00    +0.000 HD
BRANCH  15  18
ATOM     18  O   UNL     1       7.013   5.545  14.691  0.00  0.00    +0.000 OA
ATOM     19  H   UNL     1       7.248   6.418  15.060  0.00  0.00    +0.000 HD
ENDBRANCH  15  18
ENDBRANCH  12  14
ENDBRANCH   1  12
TORSDOF 4
ENDMDL
MODEL 8
REMARK VINA RESULT:      -6.9      2.071      2.641
REMARK  Name = 
REMARK  4 active torsions:
REMARK  status: ('A' for Active; 'I' for Inactive)
REMARK    1  A    between atoms: C_2  and  C_3
REMARK    2  A    between atoms: C_3  and  N_4
REMARK    3  A    between atoms: C_7  and  C_8
REMARK    4  A    between atoms: N_15  and  O_16
REMARK                            x       y       z     vdW  Elec       q    Type
REMARK                         _______ _______ _______ _____ _____    ______ ____
ROOT
ATOM      1  N   UNL     1       5.398   6.359  17.558  0.00  0.00    +0.000 N 
ATOM      2  N   UNL     1       4.475   7.295  17.280  0.00  0.00    +0.000 NA
ATOM      3  N   UNL     1       3.333   6.780  17.713  0.00  0.00    +0.000 NA
ATOM      4  C   UNL     1       3.624   5.543  18.235  0.00  0.00    +0.000 A 
ATOM      5  N   UNL     1       4.935   5.246  18.160  0.00  0.00    +0.000 NA
ENDROOT
BRANCH   4   6
ATOM      6  C   UNL     1       2.626   4.644  18.791  0.00  0.00    +0.000 A 
ATOM      7  C   UNL     1       2.052   4.892  20.043  0.00  0.00    +0.000 A 
ATOM      8  C   UNL     1       1.062   4.041  20.543  0.00  0.00    +0.000 A 
ATOM      9  C   UNL     1       0.652   2.934  19.803  0.00  0.00    +0.000 A 
ATOM     10  C   UNL     1       1.229   2.668  18.563  0.00  0.00    +0.000 A 
ATOM     11  C   UNL     1       2.212   3.520  18.058  0.00  0.00    +0.000 A 
ENDBRANCH   4   6
BRANCH   1  12
ATOM     12  C   UNL     1       6.787   6.508  17.194  0.00  0.00    +0.000 C 
BRANCH  12  14
ATOM     13  N   UNL     1       7.219   5.374  14.968  0.00  0.00    +0.000 N 
ATOM     14  C   UNL     1       7.324   5.364  16.341  0.00  0.00    +0.000 C 
ATOM     15  N   UNL     1       7.914   4.326  16.874  0.00  0.00    +0.000 NA
ATOM     16  H   UNL     1       7.204   6.286  14.514  0.00  0.00    +0.000 HD
ATOM     17  H   UNL     1       7.838   4.710  14.516  0.00  0.00    +0.000 HD
BRANCH  15  18
ATOM     18  O   UNL     1       7.967   4.421  18.268  0.00  0.00    +0.000 OA
ATOM     19  H   UNL     1       7.304   3.760  18.545  0.00  0.00    +0.000 HD
ENDBRANCH  15  18
ENDBRANCH  12  14
ENDBRANCH   1  12
TORSDOF 4
ENDMDL
MODEL 9
REMARK VINA RESULT:      -6.8      4.044      5.677
REMARK  Name = 
REMARK  4 active torsions:
REMARK  status: ('A' for Active; 'I' for Inactive)
REMARK    1  A    between atoms: C_2  and  C_3
REMARK    2  A    between atoms: C_3  and  N_4
REMARK    3  A    between atoms: C_7  and  C_8
REMARK    4  A    between atoms: N_15  and  O_16
REMARK                            x       y       z     vdW  Elec       q    Type
REMARK                         _______ _______ _______ _____ _____    ______ ____
ROOT
ATOM      1  N   UNL     1       6.879   4.323  13.488  0.00  0.00    +0.000 N 
ATOM      2  N   UNL     1       7.690   5.312  13.900  0.00  0.00    +0.000 NA
ATOM      3  N   UNL     1       7.356   5.516  15.166  0.00  0.00    +0.000 NA
ATOM      4  C   UNL     1       6.346   4.631  15.461  0.00  0.00    +0.000 A 
ATOM      5  N   UNL     1       6.023   3.849  14.414  0.00  0.00    +0.000 NA
ENDROOT
BRANCH   4   6
ATOM      6  C   UNL     1       5.685   4.559  16.754  0.00  0.00    +0.000 A 
ATOM      7  C   UNL     1       6.330   4.995  17.917  0.00  0.00    +0.000 A 
ATOM      8  C   UNL     1       5.664   4.958  19.146  0.00  0.00    +0.000 A 
ATOM      9  C   UNL     1       4.359   4.476  19.219  0.00  0.00    +0.000 A 
ATOM     10  C   UNL     1       3.713   4.024  18.070  0.00  0.00    +0.000 A 
ATOM     11  C   UNL     1       4.373   4.066  16.842  0.00  0.00    +0.000 A 
ENDBRANCH   4   6
BRANCH   1  12
ATOM     12  C   UNL     1       6.885   3.830  12.131  0.00  0.00    +0.000 C 
BRANCH  12  14
ATOM     13  N   UNL     1       4.400   3.394  11.885  0.00  0.00    +0.000 N 
ATOM     14  C   UNL     1       5.696   2.937  11.798  0.00  0.00    +0.000 C 
ATOM     15  N   UNL     1       5.852   1.698  11.406  0.00  0.00    +0.000 NA
ATOM     16  H   UNL     1       4.253   4.391  11.733  0.00  0.00    +0.000 HD
ATOM     17  H   UNL     1       3.736   2.810  11.390  0.00  0.00    +0.000 HD
BRANCH  15  18
ATOM     18  O   UNL     1       7.203   1.340  11.352  0.00  0.00    +0.000 OA
ATOM     19  H   UNL     1       7.168   0.470  10.912  0.00  0.00    +0.000 HD
ENDBRANCH  15  18
ENDBRANCH  12  14
ENDBRANCH   1  12
TORSDOF 4
ENDMDL
