MODEL 1
REMARK VINA RESULT:      -8.6      0.000      0.000
REMARK  Name = 
REMARK  7 active torsions:
REMARK  status: ('A' for Active; 'I' for Inactive)
REMARK    1  A    between atoms: C_2  and  C_3
REMARK    2  A    between atoms: C_9  and  C_10
REMARK    3  A    between atoms: C_10  and  C_11
REMARK    4  A    between atoms: C_11  and  C_12
REMARK    5  A    between atoms: C_12  and  C_13
REMARK    6  A    between atoms: C_13  and  N_14
REMARK    7  A    between atoms: N_17  and  C_18
REMARK                            x       y       z     vdW  Elec       q    Type
REMARK                         _______ _______ _______ _____ _____    ______ ____
ROOT
ATOM      1  C   UNL     1       7.870   8.537  17.560  0.00  0.00    +0.000 C 
ENDROOT
BRANCH   1   2
ATOM      2  N   UNL     1       7.341   7.198  17.366  0.00  0.00    +0.000 NA
ATOM      3  C   UNL     1       5.882   7.246  17.150  0.00  0.00    +0.000 C 
ATOM      4  C   UNL     1       5.512   5.957  16.433  0.00  0.00    +0.000 C 
ATOM      5  N   UNL     1       5.719   4.840  17.351  0.00  0.00    +0.000 N 
ATOM      6  C   UNL     1       7.051   4.773  18.004  0.00  0.00    +0.000 C 
ATOM      7  C   UNL     1       7.602   6.188  18.415  0.00  0.00    +0.000 C 
BRANCH   5   8
ATOM      8  C   UNL     1       4.593   4.236  17.884  0.00  0.00    +0.000 A 
ATOM      9  C   UNL     1       4.001   3.095  17.310  0.00  0.00    +0.000 A 
ATOM     10  C   UNL     1       2.944   2.397  17.904  0.00  0.00    +0.000 A 
ATOM     11  C   UNL     1       2.495   2.869  19.135  0.00  0.00    +0.000 A 
ATOM     12  N   UNL     1       1.491   2.416  19.960  0.00  0.00    +0.000 N 
ATOM     13  C   UNL     1       1.425   3.190  21.091  0.00  0.00    +0.000 A 
ATOM     14  C   UNL     1       2.397   4.156  20.999  0.00  0.00    +0.000 A 
ATOM     15  C   UNL     1       3.054   3.987  19.753  0.00  0.00    +0.000 A 
ATOM     16  C   UNL     1       4.095   4.681  19.111  0.00  0.00    +0.000 A 
ATOM     17  H   UNL     1       0.891   1.631  19.752  0.00  0.00    +0.000 HD
ENDBRANCH   5   8
ENDBRANCH   1   2
BRANCH   1  18
ATOM     18  C   UNL     1       8.702   8.715  18.833  0.00  0.00    +0.000 C 
BRANCH  18  19
ATOM     19  C   UNL     1       9.100  10.190  18.976  0.00  0.00    +0.000 C 
BRANCH  19  20
ATOM     20  C   UNL     1       9.763  10.756  17.719  0.00  0.00    +0.000 C 
BRANCH  20  27
ATOM     21  C   UNL     1       7.220  14.801  17.875  0.00  0.00    +0.000 A 
ATOM     22  C   UNL     1       8.039  15.926  17.946  0.00  0.00    +0.000 A 
ATOM     23  C   UNL     1       9.430  15.794  18.007  0.00  0.00    +0.000 A 
ATOM     24  C   UNL     1       9.966  14.500  17.980  0.00  0.00    +0.000 A 
ATOM     25  N   UNL     1      11.281  14.099  18.025  0.00  0.00    +0.000 N 
ATOM     26  C   UNL     1      11.363  12.738  17.944  0.00  0.00    +0.000 A 
ATOM     27  C   UNL     1      10.085  12.220  17.845  0.00  0.00    +0.000 A 
ATOM     28  C   UNL     1       9.183  13.345  17.893  0.00  0.00    +0.000 A 
ATOM     29  C   UNL     1       7.776  13.505  17.861  0.00  0.00    +0.000 A 
ATOM     30  H   UNL     1      12.070  14.726  18.098  0.00  0.00    +0.000 HD
BRANCH  21  32
ATOM     31  N   UNL     1       4.649  15.099  17.732  0.00  0.00    +0.000 NA
ATOM     32  C   UNL     1       5.789  14.964  17.801  0.00  0.00    +0.000 C 
ENDBRANCH  21  32
ENDBRANCH  20  27
ENDBRANCH  19  20
ENDBRANCH  18  19
ENDBRANCH   1  18
TORSDOF 7
ENDMDL
MODEL 2
REMARK VINA RESULT:      -8.6      1.351      1.630
REMARK  Name = 
REMARK  7 active torsions:
REMARK  status: ('A' for Active; 'I' for Inactive)
REMARK    1  A    between atoms: C_2  and  C_3
REMARK    2  A    between atoms: C_9  and  C_10
REMARK    3  A    between atoms: C_10  and  C_11
REMARK    4  A    between atoms: C_11  and  C_12
REMARK    5  A    between atoms: C_12  and  C_13
REMARK    6  A    between atoms: C_13  and  N_14
REMARK    7  A    between atoms: N_17  and  C_18
REMARK                            x       y       z     vdW  Elec       q    Type
REMARK                         _______ _______ _______ _____ _____    ______ ____
ROOT
ATOM      1  C   UNL     1       7.624   8.672  17.496  0.00  0.00    +0.000 C 
ENDROOT
BRANCH   1   2
ATOM      2  N   UNL     1       7.143   7.314  17.310  0.00  0.00    +0.000 NA
ATOM      3  C   UNL     1       5.679   7.306  17.131  0.00  0.00    +0.000 C 
ATOM      4  C   UNL     1       5.342   6.005  16.418  0.00  0.00    +0.000 C 
ATOM      5  N   UNL     1       5.616   4.894  17.326  0.00  0.00    +0.000 N 
ATOM      6  C   UNL     1       6.966   4.878  17.944  0.00  0.00    +0.000 C 
ATOM      7  C   UNL     1       7.471   6.311  18.348  0.00  0.00    +0.000 C 
BRANCH   5   8
ATOM      8  C   UNL     1       4.528   4.244  17.884  0.00  0.00    +0.000 A 
ATOM      9  C   UNL     1       3.975   3.075  17.327  0.00  0.00    +0.000 A 
ATOM     10  C   UNL     1       2.961   2.336  17.946  0.00  0.00    +0.000 A 
ATOM     11  C   UNL     1       2.518   2.794  19.184  0.00  0.00    +0.000 A 
ATOM     12  N   UNL     1       1.552   2.302  20.031  0.00  0.00    +0.000 N 
ATOM     13  C   UNL     1       1.474   3.078  21.160  0.00  0.00    +0.000 A 
ATOM     14  C   UNL     1       2.401   4.084  21.044  0.00  0.00    +0.000 A 
ATOM     15  C   UNL     1       3.040   3.938  19.786  0.00  0.00    +0.000 A 
ATOM     16  C   UNL     1       4.036   4.673  19.120  0.00  0.00    +0.000 A 
ATOM     17  H   UNL     1       0.982   1.490  19.839  0.00  0.00    +0.000 HD
ENDBRANCH   5   8
ENDBRANCH   1   2
BRANCH   1  18
ATOM     18  C   UNL     1       8.865   8.792  18.386  0.00  0.00    +0.000 C 
BRANCH  18  19
ATOM     19  C   UNL     1       8.907  10.193  19.010  0.00  0.00    +0.000 C 
BRANCH  19  20
ATOM     20  C   UNL     1       8.744  11.313  17.980  0.00  0.00    +0.000 C 
BRANCH  20  27
ATOM     21  C   UNL     1       9.891  15.953  17.918  0.00  0.00    +0.000 A 
ATOM     22  C   UNL     1      11.240  16.150  17.625  0.00  0.00    +0.000 A 
ATOM     23  C   UNL     1      12.095  15.061  17.432  0.00  0.00    +0.000 A 
ATOM     24  C   UNL     1      11.548  13.775  17.529  0.00  0.00    +0.000 A 
ATOM     25  N   UNL     1      12.162  12.552  17.382  0.00  0.00    +0.000 N 
ATOM     26  C   UNL     1      11.250  11.545  17.529  0.00  0.00    +0.000 A 
ATOM     27  C   UNL     1      10.010  12.101  17.779  0.00  0.00    +0.000 A 
ATOM     28  C   UNL     1      10.200  13.531  17.805  0.00  0.00    +0.000 A 
ATOM     29  C   UNL     1       9.360  14.651  18.024  0.00  0.00    +0.000 A 
ATOM     30  H   UNL     1      13.145  12.424  17.185  0.00  0.00    +0.000 HD
BRANCH  21  32
ATOM     31  N   UNL     1       8.344  18.005  18.255  0.00  0.00    +0.000 NA
ATOM     32  C   UNL     1       9.027  17.093  18.101  0.00  0.00    +0.000 C 
ENDBRANCH  21  32
ENDBRANCH  20  27
ENDBRANCH  19  20
ENDBRANCH  18  19
ENDBRANCH   1  18
TORSDOF 7
ENDMDL
MODEL 3
REMARK VINA RESULT:      -8.2      2.869      3.204
REMARK  Name = 
REMARK  7 active torsions:
REMARK  status: ('A' for Active; 'I' for Inactive)
REMARK    1  A    between atoms: C_2  and  C_3
REMARK    2  A    between atoms: C_9  and  C_10
REMARK    3  A    between atoms: C_10  and  C_11
REMARK    4  A    between atoms: C_11  and  C_12
REMARK    5  A    between atoms: C_12  and  C_13
REMARK    6  A    between atoms: C_13  and  N_14
REMARK    7  A    between atoms: N_17  and  C_18
REMARK                            x       y       z     vdW  Elec       q    Type
REMARK                         _______ _______ _______ _____ _____    ______ ____
ROOT
ATOM      1  C   UNL     1       7.718   9.084  17.552  0.00  0.00    +0.000 C 
ENDROOT
BRANCH   1   2
ATOM      2  N   UNL     1       7.397   7.680  17.370  0.00  0.00    +0.000 NA
ATOM      3  C   UNL     1       5.944   7.503  17.179  0.00  0.00    +0.000 C 
ATOM      4  C   UNL     1       5.764   6.170  16.471  0.00  0.00    +0.000 C 
ATOM      5  N   UNL     1       6.156   5.101  17.386  0.00  0.00    +0.000 N 
ATOM      6  C   UNL     1       7.494   5.241  18.014  0.00  0.00    +0.000 C 
ATOM      7  C   UNL     1       7.828   6.725  18.415  0.00  0.00    +0.000 C 
BRANCH   5   8
ATOM      8  C   UNL     1       5.145   4.333  17.939  0.00  0.00    +0.000 A 
ATOM      9  C   UNL     1       5.328   3.568  19.107  0.00  0.00    +0.000 A 
ATOM     10  C   UNL     1       4.286   2.890  19.751  0.00  0.00    +0.000 A 
ATOM     11  C   UNL     1       3.016   3.019  19.194  0.00  0.00    +0.000 A 
ATOM     12  N   UNL     1       1.807   2.487  19.580  0.00  0.00    +0.000 N 
ATOM     13  C   UNL     1       0.814   2.911  18.734  0.00  0.00    +0.000 A 
ATOM     14  C   UNL     1       1.384   3.728  17.789  0.00  0.00    +0.000 A 
ATOM     15  C   UNL     1       2.779   3.775  18.047  0.00  0.00    +0.000 A 
ATOM     16  C   UNL     1       3.855   4.417  17.410  0.00  0.00    +0.000 A 
ATOM     17  H   UNL     1       1.680   1.869  20.369  0.00  0.00    +0.000 HD
ENDBRANCH   5   8
ENDBRANCH   1   2
BRANCH   1  18
ATOM     18  C   UNL     1       8.786   9.361  18.614  0.00  0.00    +0.000 C 
BRANCH  18  19
ATOM     19  C   UNL     1       9.302  10.796  18.453  0.00  0.00    +0.000 C 
BRANCH  19  20
ATOM     20  C   UNL     1      10.565  11.075  19.271  0.00  0.00    +0.000 C 
BRANCH  20  27
ATOM     21  C   UNL     1       8.093  12.514  23.102  0.00  0.00    +0.000 A 
ATOM     22  C   UNL     1       8.341  13.851  23.406  0.00  0.00    +0.000 A 
ATOM     23  C   UNL     1       9.256  14.596  22.656  0.00  0.00    +0.000 A 
ATOM     24  C   UNL     1       9.898  13.959  21.586  0.00  0.00    +0.000 A 
ATOM     25  N   UNL     1      10.826  14.460  20.701  0.00  0.00    +0.000 N 
ATOM     26  C   UNL     1      11.172  13.504  19.789  0.00  0.00    +0.000 A 
ATOM     27  C   UNL     1      10.468  12.347  20.067  0.00  0.00    +0.000 A 
ATOM     28  C   UNL     1       9.667  12.626  21.235  0.00  0.00    +0.000 A 
ATOM     29  C   UNL     1       8.758  11.885  22.028  0.00  0.00    +0.000 A 
ATOM     30  H   UNL     1      11.188  15.403  20.723  0.00  0.00    +0.000 HD
BRANCH  21  32
ATOM     31  N   UNL     1       6.382  11.168  24.507  0.00  0.00    +0.000 NA
ATOM     32  C   UNL     1       7.137  11.769  23.883  0.00  0.00    +0.000 C 
ENDBRANCH  21  32
ENDBRANCH  20  27
ENDBRANCH  19  20
ENDBRANCH  18  19
ENDBRANCH   1  18
TORSDOF 7
ENDMDL
MODEL 4
REMARK VINA RESULT:      -8.2      5.721      9.612
REMARK  Name = 
REMARK  7 active torsions:
REMARK  status: ('A' for Active; 'I' for Inactive)
REMARK    1  A    between atoms: C_2  and  C_3
REMARK    2  A    between atoms: C_9  and  C_10
REMARK    3  A    between atoms: C_10  and  C_11
REMARK    4  A    between atoms: C_11  and  C_12
REMARK    5  A    between atoms: C_12  and  C_13
REMARK    6  A    between atoms: C_13  and  N_14
REMARK    7  A    between atoms: N_17  and  C_18
REMARK                            x       y       z     vdW  Elec       q    Type
REMARK                         _______ _______ _______ _____ _____    ______ ____
ROOT
ATOM      1  C   UNL     1       2.764   6.341  19.728  0.00  0.00    +0.000 C 
ENDROOT
BRANCH   1   2
ATOM      2  N   UNL     1       2.289   7.694  19.498  0.00  0.00    +0.000 NA
ATOM      3  C   UNL     1       1.092   7.967  20.316  0.00  0.00    +0.000 C 
ATOM      4  C   UNL     1       0.998   9.479  20.448  0.00  0.00    +0.000 C 
ATOM      5  N   UNL     1       0.692  10.041  19.135  0.00  0.00    +0.000 N 
ATOM      6  C   UNL     1       1.578   9.615  18.023  0.00  0.00    +0.000 C 
ATOM      7  C   UNL     1       1.979   8.097  18.108  0.00  0.00    +0.000 C 
BRANCH   5   8
ATOM      8  C   UNL     1      -0.592  10.517  18.929  0.00  0.00    +0.000 A 
ATOM      9  C   UNL     1      -1.174  11.506  19.745  0.00  0.00    +0.000 A 
ATOM     10  C   UNL     1      -2.417  12.090  19.476  0.00  0.00    +0.000 A 
ATOM     11  C   UNL     1      -3.073  11.664  18.323  0.00  0.00    +0.000 A 
ATOM     12  N   UNL     1      -4.286  12.034  17.790  0.00  0.00    +0.000 N 
ATOM     13  C   UNL     1      -4.512  11.358  16.618  0.00  0.00    +0.000 A 
ATOM     14  C   UNL     1      -3.433  10.541  16.387  0.00  0.00    +0.000 A 
ATOM     15  C   UNL     1      -2.536  10.697  17.474  0.00  0.00    +0.000 A 
ATOM     16  C   UNL     1      -1.298  10.111  17.794  0.00  0.00    +0.000 A 
ATOM     17  H   UNL     1      -4.916  12.703  18.212  0.00  0.00    +0.000 HD
ENDBRANCH   5   8
ENDBRANCH   1   2
BRANCH   1  18
ATOM     18  C   UNL     1       1.937   5.250  19.041  0.00  0.00    +0.000 C 
BRANCH  18  19
ATOM     19  C   UNL     1       2.391   3.876  19.548  0.00  0.00    +0.000 C 
BRANCH  19  20
ATOM     20  C   UNL     1       3.246   3.115  18.533  0.00  0.00    +0.000 C 
BRANCH  20  27
ATOM     21  C   UNL     1       5.921   4.077  14.690  0.00  0.00    +0.000 A 
ATOM     22  C   UNL     1       7.134   4.669  15.037  0.00  0.00    +0.000 A 
ATOM     23  C   UNL     1       7.432   4.955  16.373  0.00  0.00    +0.000 A 
ATOM     24  C   UNL     1       6.480   4.614  17.343  0.00  0.00    +0.000 A 
ATOM     25  N   UNL     1       6.526   4.784  18.708  0.00  0.00    +0.000 N 
ATOM     26  C   UNL     1       5.394   4.282  19.284  0.00  0.00    +0.000 A 
ATOM     27  C   UNL     1       4.578   3.771  18.292  0.00  0.00    +0.000 A 
ATOM     28  C   UNL     1       5.259   4.005  17.041  0.00  0.00    +0.000 A 
ATOM     29  C   UNL     1       4.970   3.751  15.678  0.00  0.00    +0.000 A 
ATOM     30  H   UNL     1       7.293   5.210  19.207  0.00  0.00    +0.000 HD
BRANCH  21  32
ATOM     31  N   UNL     1       5.428   3.536  12.204  0.00  0.00    +0.000 NA
ATOM     32  C   UNL     1       5.643   3.780  13.306  0.00  0.00    +0.000 C 
ENDBRANCH  21  32
ENDBRANCH  20  27
ENDBRANCH  19  20
ENDBRANCH  18  19
ENDBRANCH   1  18
TORSDOF 7
ENDMDL
MODEL 5
REMARK VINA RESULT:      -8.2      1.515      1.781
REMARK  Name = 
REMARK  7 active torsions:
REMARK  status: ('A' for Active; 'I' for Inactive)
REMARK    1  A    between atoms: C_2  and  C_3
REMARK    2  A    between atoms: C_9  and  C_10
REMARK    3  A    between atoms: C_10  and  C_11
REMARK    4  A    between atoms: C_11  and  C_12
REMARK    5  A    between atoms: C_12  and  C_13
REMARK    6  A    between atoms: C_13  and  N_14
REMARK    7  A    between atoms: N_17  and  C_18
REMARK                            x       y       z     vdW  Elec       q    Type
REMARK                         _______ _______ _______ _____ _____    ______ ____
ROOT
ATOM      1  C   UNL     1       8.238   7.776  17.333  0.00  0.00    +0.000 C 
ENDROOT
BRANCH   1   2
ATOM      2  N   UNL     1       7.297   6.678  17.198  0.00  0.00    +0.000 NA
ATOM      3  C   UNL     1       5.910   7.173  17.294  0.00  0.00    +0.000 C 
ATOM      4  C   UNL     1       5.035   6.130  16.617  0.00  0.00    +0.000 C 
ATOM      5  N   UNL     1       5.056   4.912  17.423  0.00  0.00    +0.000 N 
ATOM      6  C   UNL     1       6.401   4.391  17.778  0.00  0.00    +0.000 C 
ATOM      7  C   UNL     1       7.426   5.532  18.125  0.00  0.00    +0.000 C 
BRANCH   5   8
ATOM      8  C   UNL     1       3.920   4.611  18.154  0.00  0.00    +0.000 A 
ATOM      9  C   UNL     1       2.621   4.759  17.631  0.00  0.00    +0.000 A 
ATOM     10  C   UNL     1       1.469   4.340  18.307  0.00  0.00    +0.000 A 
ATOM     11  C   UNL     1       1.656   3.731  19.545  0.00  0.00    +0.000 A 
ATOM     12  N   UNL     1       0.746   3.220  20.442  0.00  0.00    +0.000 N 
ATOM     13  C   UNL     1       1.398   2.693  21.527  0.00  0.00    +0.000 A 
ATOM     14  C   UNL     1       2.747   2.862  21.332  0.00  0.00    +0.000 A 
ATOM     15  C   UNL     1       2.920   3.549  20.103  0.00  0.00    +0.000 A 
ATOM     16  C   UNL     1       4.053   4.010  19.408  0.00  0.00    +0.000 A 
ATOM     17  H   UNL     1      -0.256   3.241  20.315  0.00  0.00    +0.000 HD
ENDBRANCH   5   8
ENDBRANCH   1   2
BRANCH   1  18
ATOM     18  C   UNL     1       7.640   9.059  17.918  0.00  0.00    +0.000 C 
BRANCH  18  19
ATOM     19  C   UNL     1       8.739   9.843  18.647  0.00  0.00    +0.000 C 
BRANCH  19  20
ATOM     20  C   UNL     1       9.200  11.084  17.879  0.00  0.00    +0.000 C 
BRANCH  20  27
ATOM     21  C   UNL     1       9.298  15.707  19.089  0.00  0.00    +0.000 A 
ATOM     22  C   UNL     1      10.433  16.024  19.835  0.00  0.00    +0.000 A 
ATOM     23  C   UNL     1      11.357  15.035  20.183  0.00  0.00    +0.000 A 
ATOM     24  C   UNL     1      11.112  13.727  19.745  0.00  0.00    +0.000 A 
ATOM     25  N   UNL     1      11.854  12.585  19.946  0.00  0.00    +0.000 N 
ATOM     26  C   UNL     1      11.266  11.524  19.319  0.00  0.00    +0.000 A 
ATOM     27  C   UNL     1      10.114  11.959  18.691  0.00  0.00    +0.000 A 
ATOM     28  C   UNL     1       9.997  13.368  18.983  0.00  0.00    +0.000 A 
ATOM     29  C   UNL     1       9.061  14.383  18.668  0.00  0.00    +0.000 A 
ATOM     30  H   UNL     1      12.714  12.547  20.475  0.00  0.00    +0.000 HD
BRANCH  21  32
ATOM     31  N   UNL     1       7.621  17.572  18.438  0.00  0.00    +0.000 NA
ATOM     32  C   UNL     1       8.365  16.748  18.732  0.00  0.00    +0.000 C 
ENDBRANCH  21  32
ENDBRANCH  20  27
ENDBRANCH  19  20
ENDBRANCH  18  19
ENDBRANCH   1  18
TORSDOF 7
ENDMDL
MODEL 6
REMARK VINA RESULT:      -8.2      1.628      1.848
REMARK  Name = 
REMARK  7 active torsions:
REMARK  status: ('A' for Active; 'I' for Inactive)
REMARK    1  A    between atoms: C_2  and  C_3
REMARK    2  A    between atoms: C_9  and  C_10
REMARK    3  A    between atoms: C_10  and  C_11
REMARK    4  A    between atoms: C_11  and  C_12
REMARK    5  A    between atoms: C_12  and  C_13
REMARK    6  A    between atoms: C_13  and  N_14
REMARK    7  A    between atoms: N_17  and  C_18
REMARK                            x       y       z     vdW  Elec       q    Type
REMARK                         _______ _______ _______ _____ _____    ______ ____
ROOT
ATOM      1  C   UNL     1       8.096   7.870  17.778  0.00  0.00    +0.000 C 
ENDROOT
BRANCH   1   2
ATOM      2  N   UNL     1       6.916   7.254  17.198  0.00  0.00    +0.000 NA
ATOM      3  C   UNL     1       5.902   7.000  18.240  0.00  0.00    +0.000 C 
ATOM      4  C   UNL     1       4.566   6.892  17.520  0.00  0.00    +0.000 C 
ATOM      5  N   UNL     1       4.576   5.682  16.703  0.00  0.00    +0.000 N 
ATOM      6  C   UNL     1       5.735   5.524  15.789  0.00  0.00    +0.000 C 
ATOM      7  C   UNL     1       7.090   6.000  16.431  0.00  0.00    +0.000 C 
BRANCH   5   8
ATOM      8  C   UNL     1       3.817   4.610  17.142  0.00  0.00    +0.000 A 
ATOM      9  C   UNL     1       4.193   3.272  16.915  0.00  0.00    +0.000 A 
ATOM     10  C   UNL     1       3.509   2.180  17.459  0.00  0.00    +0.000 A 
ATOM     11  C   UNL     1       2.421   2.468  18.280  0.00  0.00    +0.000 A 
ATOM     12  N   UNL     1       1.557   1.635  18.953  0.00  0.00    +0.000 N 
ATOM     13  C   UNL     1       0.644   2.374  19.660  0.00  0.00    +0.000 A 
ATOM     14  C   UNL     1       0.919   3.702  19.446  0.00  0.00    +0.000 A 
ATOM     15  C   UNL     1       2.015   3.774  18.547  0.00  0.00    +0.000 A 
ATOM     16  C   UNL     1       2.708   4.846  17.957  0.00  0.00    +0.000 A 
ATOM     17  H   UNL     1       1.593   0.626  18.919  0.00  0.00    +0.000 HD
ENDBRANCH   5   8
ENDBRANCH   1   2
BRANCH   1  18
ATOM     18  C   UNL     1       8.090   9.401  17.758  0.00  0.00    +0.000 C 
BRANCH  18  19
ATOM     19  C   UNL     1       9.126   9.925  18.761  0.00  0.00    +0.000 C 
BRANCH  19  20
ATOM     20  C   UNL     1       8.980  11.422  19.046  0.00  0.00    +0.000 C 
BRANCH  20  27
ATOM     21  C   UNL     1       9.386  16.041  17.884  0.00  0.00    +0.000 A 
ATOM     22  C   UNL     1      10.517  16.282  17.106  0.00  0.00    +0.000 A 
ATOM     23  C   UNL     1      11.400  15.246  16.790  0.00  0.00    +0.000 A 
ATOM     24  C   UNL     1      11.101  13.963  17.266  0.00  0.00    +0.000 A 
ATOM     25  N   UNL     1      11.794  12.786  17.098  0.00  0.00    +0.000 N 
ATOM     26  C   UNL     1      11.133  11.758  17.708  0.00  0.00    +0.000 A 
ATOM     27  C   UNL     1       9.983  12.253  18.294  0.00  0.00    +0.000 A 
ATOM     28  C   UNL     1       9.971  13.673  18.035  0.00  0.00    +0.000 A 
ATOM     29  C   UNL     1       9.107  14.745  18.366  0.00  0.00    +0.000 A 
ATOM     30  H   UNL     1      12.662  12.699  16.588  0.00  0.00    +0.000 HD
BRANCH  21  32
ATOM     31  N   UNL     1       7.773  17.995  18.429  0.00  0.00    +0.000 NA
ATOM     32  C   UNL     1       8.484  17.124  18.187  0.00  0.00    +0.000 C 
ENDBRANCH  21  32
ENDBRANCH  20  27
ENDBRANCH  19  20
ENDBRANCH  18  19
ENDBRANCH   1  18
TORSDOF 7
ENDMDL
MODEL 7
REMARK VINA RESULT:      -8.2      5.369      9.286
REMARK  Name = 
REMARK  7 active torsions:
REMARK  status: ('A' for Active; 'I' for Inactive)
REMARK    1  A    between atoms: C_2  and  C_3
REMARK    2  A    between atoms: C_9  and  C_10
REMARK    3  A    between atoms: C_10  and  C_11
REMARK    4  A    between atoms: C_11  and  C_12
REMARK    5  A    between atoms: C_12  and  C_13
REMARK    6  A    between atoms: C_13  and  N_14
REMARK    7  A    between atoms: N_17  and  C_18
REMARK                            x       y       z     vdW  Elec       q    Type
REMARK                         _______ _______ _______ _____ _____    ______ ____
ROOT
ATOM      1  C   UNL     1       2.398   6.165  20.831  0.00  0.00    +0.000 C 
ENDROOT
BRANCH   1   2
ATOM      2  N   UNL     1       2.074   7.475  20.294  0.00  0.00    +0.000 NA
ATOM      3  C   UNL     1       0.802   7.964  20.860  0.00  0.00    +0.000 C 
ATOM      4  C   UNL     1       0.818   9.477  20.704  0.00  0.00    +0.000 C 
ATOM      5  N   UNL     1       0.744   9.798  19.281  0.00  0.00    +0.000 N 
ATOM      6  C   UNL     1       1.737   9.120  18.410  0.00  0.00    +0.000 C 
ATOM      7  C   UNL     1       1.995   7.625  18.824  0.00  0.00    +0.000 C 
BRANCH   5   8
ATOM      8  C   UNL     1      -0.454  10.298  18.801  0.00  0.00    +0.000 A 
ATOM      9  C   UNL     1      -1.101  11.405  19.384  0.00  0.00    +0.000 A 
ATOM     10  C   UNL     1      -2.243  12.002  18.837  0.00  0.00    +0.000 A 
ATOM     11  C   UNL     1      -2.721  11.464  17.645  0.00  0.00    +0.000 A 
ATOM     12  N   UNL     1      -3.802  11.816  16.870  0.00  0.00    +0.000 N 
ATOM     13  C   UNL     1      -3.871  11.010  15.763  0.00  0.00    +0.000 A 
ATOM     14  C   UNL     1      -2.822  10.125  15.818  0.00  0.00    +0.000 A 
ATOM     15  C   UNL     1      -2.112  10.378  17.020  0.00  0.00    +0.000 A 
ATOM     16  C   UNL     1      -0.984   9.784  17.615  0.00  0.00    +0.000 A 
ATOM     17  H   UNL     1      -4.450  12.558  17.096  0.00  0.00    +0.000 HD
ENDBRANCH   5   8
ENDBRANCH   1   2
BRANCH   1  18
ATOM     18  C   UNL     1       1.398   5.063  20.470  0.00  0.00    +0.000 C 
BRANCH  18  19
ATOM     19  C   UNL     1       2.152   3.746  20.251  0.00  0.00    +0.000 C 
BRANCH  19  20
ATOM     20  C   UNL     1       3.669   3.931  20.163  0.00  0.00    +0.000 C 
BRANCH  20  27
ATOM     21  C   UNL     1       6.744   6.235  17.320  0.00  0.00    +0.000 A 
ATOM     22  C   UNL     1       6.834   5.639  16.063  0.00  0.00    +0.000 A 
ATOM     23  C   UNL     1       6.111   4.479  15.769  0.00  0.00    +0.000 A 
ATOM     24  C   UNL     1       5.287   3.950  16.772  0.00  0.00    +0.000 A 
ATOM     25  N   UNL     1       4.481   2.836  16.741  0.00  0.00    +0.000 N 
ATOM     26  C   UNL     1       3.823   2.696  17.930  0.00  0.00    +0.000 A 
ATOM     27  C   UNL     1       4.195   3.730  18.769  0.00  0.00    +0.000 A 
ATOM     28  C   UNL     1       5.154   4.524  18.039  0.00  0.00    +0.000 A 
ATOM     29  C   UNL     1       5.919   5.682  18.321  0.00  0.00    +0.000 A 
ATOM     30  H   UNL     1       4.386   2.218  15.947  0.00  0.00    +0.000 HD
BRANCH  21  32
ATOM     31  N   UNL     1       8.085   8.395  17.824  0.00  0.00    +0.000 NA
ATOM     32  C   UNL     1       7.491   7.438  17.594  0.00  0.00    +0.000 C 
ENDBRANCH  21  32
ENDBRANCH  20  27
ENDBRANCH  19  20
ENDBRANCH  18  19
ENDBRANCH   1  18
TORSDOF 7
ENDMDL
MODEL 8
REMARK VINA RESULT:      -8.1      2.133      2.356
REMARK  Name = 
REMARK  7 active torsions:
REMARK  status: ('A' for Active; 'I' for Inactive)
REMARK    1  A    between atoms: C_2  and  C_3
REMARK    2  A    between atoms: C_9  and  C_10
REMARK    3  A    between atoms: C_10  and  C_11
REMARK    4  A    between atoms: C_11  and  C_12
REMARK    5  A    between atoms: C_12  and  C_13
REMARK    6  A    between atoms: C_13  and  N_14
REMARK    7  A    between atoms: N_17  and  C_18
REMARK                            x       y       z     vdW  Elec       q    Type
REMARK                         _______ _______ _______ _____ _____    ______ ____
ROOT
ATOM      1  C   UNL     1       7.757   8.288  17.420  0.00  0.00    +0.000 C 
ENDROOT
BRANCH   1   2
ATOM      2  N   UNL     1       7.033   7.102  16.998  0.00  0.00    +0.000 NA
ATOM      3  C   UNL     1       5.583   7.284  17.202  0.00  0.00    +0.000 C 
ATOM      4  C   UNL     1       4.893   6.299  16.270  0.00  0.00    +0.000 C 
ATOM      5  N   UNL     1       5.170   4.944  16.739  0.00  0.00    +0.000 N 
ATOM      6  C   UNL     1       6.600   4.615  16.965  0.00  0.00    +0.000 C 
ATOM      7  C   UNL     1       7.408   5.805  17.604  0.00  0.00    +0.000 C 
BRANCH   5   8
ATOM      8  C   UNL     1       4.138   4.258  17.355  0.00  0.00    +0.000 A 
ATOM      9  C   UNL     1       3.927   2.878  17.170  0.00  0.00    +0.000 A 
ATOM     10  C   UNL     1       2.970   2.146  17.882  0.00  0.00    +0.000 A 
ATOM     11  C   UNL     1       2.224   2.844  18.828  0.00  0.00    +0.000 A 
ATOM     12  N   UNL     1       1.225   2.421  19.675  0.00  0.00    +0.000 N 
ATOM     13  C   UNL     1       0.793   3.464  20.453  0.00  0.00    +0.000 A 
ATOM     14  C   UNL     1       1.521   4.577  20.110  0.00  0.00    +0.000 A 
ATOM     15  C   UNL     1       2.401   4.207  19.060  0.00  0.00    +0.000 A 
ATOM     16  C   UNL     1       3.351   4.916  18.303  0.00  0.00    +0.000 A 
ATOM     17  H   UNL     1       0.863   1.478  19.706  0.00  0.00    +0.000 HD
ENDBRANCH   5   8
ENDBRANCH   1   2
BRANCH   1  18
ATOM     18  C   UNL     1       8.535   8.127  18.730  0.00  0.00    +0.000 C 
BRANCH  18  19
ATOM     19  C   UNL     1       9.093   9.490  19.159  0.00  0.00    +0.000 C 
BRANCH  19  20
ATOM     20  C   UNL     1       8.937  10.566  18.082  0.00  0.00    +0.000 C 
BRANCH  20  27
ATOM     21  C   UNL     1       9.453  13.706  21.649  0.00  0.00    +0.000 A 
ATOM     22  C   UNL     1      10.392  14.689  21.343  0.00  0.00    +0.000 A 
ATOM     23  C   UNL     1      11.090  14.657  20.132  0.00  0.00    +0.000 A 
ATOM     24  C   UNL     1      10.801  13.618  19.237  0.00  0.00    +0.000 A 
ATOM     25  N   UNL     1      11.336  13.361  17.996  0.00  0.00    +0.000 N 
ATOM     26  C   UNL     1      10.748  12.257  17.448  0.00  0.00    +0.000 A 
ATOM     27  C   UNL     1       9.808  11.766  18.335  0.00  0.00    +0.000 A 
ATOM     28  C   UNL     1       9.856  12.622  19.496  0.00  0.00    +0.000 A 
ATOM     29  C   UNL     1       9.183  12.661  20.742  0.00  0.00    +0.000 A 
ATOM     30  H   UNL     1      12.054  13.918  17.554  0.00  0.00    +0.000 HD
BRANCH  21  32
ATOM     31  N   UNL     1       8.159  13.812  23.892  0.00  0.00    +0.000 NA
ATOM     32  C   UNL     1       8.738  13.768  22.900  0.00  0.00    +0.000 C 
ENDBRANCH  21  32
ENDBRANCH  20  27
ENDBRANCH  19  20
ENDBRANCH  18  19
ENDBRANCH   1  18
TORSDOF 7
ENDMDL
MODEL 9
REMARK VINA RESULT:      -8.0      2.515      2.808
REMARK  Name = 
REMARK  7 active torsions:
REMARK  status: ('A' for Active; 'I' for Inactive)
REMARK    1  A    between atoms: C_2  and  C_3
REMARK    2  A    between atoms: C_9  and  C_10
REMARK    3  A    between atoms: C_10  and  C_11
REMARK    4  A    between atoms: C_11  and  C_12
REMARK    5  A    between atoms: C_12  and  C_13
REMARK    6  A    between atoms: C_13  and  N_14
REMARK    7  A    between atoms: N_17  and  C_18
REMARK                            x       y       z     vdW  Elec       q    Type
REMARK                         _______ _______ _______ _____ _____    ______ ____
ROOT
ATOM      1  C   UNL     1       7.912   8.667  17.479  0.00  0.00    +0.000 C 
ENDROOT
BRANCH   1   2
ATOM      2  N   UNL     1       7.430   7.301  17.370  0.00  0.00    +0.000 NA
ATOM      3  C   UNL     1       5.990   7.286  17.048  0.00  0.00    +0.000 C 
ATOM      4  C   UNL     1       5.704   5.928  16.426  0.00  0.00    +0.000 C 
ATOM      5  N   UNL     1       5.869   4.904  17.453  0.00  0.00    +0.000 N 
ATOM      6  C   UNL     1       7.152   4.934  18.201  0.00  0.00    +0.000 C 
ATOM      7  C   UNL     1       7.638   6.395  18.522  0.00  0.00    +0.000 C 
BRANCH   5   8
ATOM      8  C   UNL     1       4.722   4.315  17.958  0.00  0.00    +0.000 A 
ATOM      9  C   UNL     1       4.143   3.167  17.383  0.00  0.00    +0.000 A 
ATOM     10  C   UNL     1       3.061   2.487  17.953  0.00  0.00    +0.000 A 
ATOM     11  C   UNL     1       2.573   2.983  19.159  0.00  0.00    +0.000 A 
ATOM     12  N   UNL     1       1.539   2.551  19.957  0.00  0.00    +0.000 N 
ATOM     13  C   UNL     1       1.438   3.345  21.071  0.00  0.00    +0.000 A 
ATOM     14  C   UNL     1       2.419   4.303  20.996  0.00  0.00    +0.000 A 
ATOM     15  C   UNL     1       3.118   4.108  19.776  0.00  0.00    +0.000 A 
ATOM     16  C   UNL     1       4.185   4.785  19.159  0.00  0.00    +0.000 A 
ATOM     17  H   UNL     1       0.941   1.765  19.742  0.00  0.00    +0.000 HD
ENDBRANCH   5   8
ENDBRANCH   1   2
BRANCH   1  18
ATOM     18  C   UNL     1       8.572   9.004  18.819  0.00  0.00    +0.000 C 
BRANCH  18  19
ATOM     19  C   UNL     1       9.628  10.095  18.604  0.00  0.00    +0.000 C 
BRANCH  19  20
ATOM     20  C   UNL     1       9.032  11.420  18.123  0.00  0.00    +0.000 C 
BRANCH  20  27
ATOM     21  C   UNL     1       8.508  12.606  22.724  0.00  0.00    +0.000 A 
ATOM     22  C   UNL     1       9.047  13.862  23.000  0.00  0.00    +0.000 A 
ATOM     23  C   UNL     1       9.689  14.599  22.000  0.00  0.00    +0.000 A 
ATOM     24  C   UNL     1       9.757  14.040  20.717  0.00  0.00    +0.000 A 
ATOM     25  N   UNL     1      10.323  14.551  19.571  0.00  0.00    +0.000 N 
ATOM     26  C   UNL     1      10.139  13.689  18.529  0.00  0.00    +0.000 A 
ATOM     27  C   UNL     1       9.442  12.584  18.982  0.00  0.00    +0.000 A 
ATOM     28  C   UNL     1       9.217  12.793  20.392  0.00  0.00    +0.000 A 
ATOM     29  C   UNL     1       8.597  12.054  21.429  0.00  0.00    +0.000 A 
ATOM     30  H   UNL     1      10.796  15.442  19.514  0.00  0.00    +0.000 HD
BRANCH  21  32
ATOM     31  N   UNL     1       7.317  11.276  24.602  0.00  0.00    +0.000 NA
ATOM     32  C   UNL     1       7.841  11.870  23.769  0.00  0.00    +0.000 C 
ENDBRANCH  21  32
ENDBRANCH  20  27
ENDBRANCH  19  20
ENDBRANCH  18  19
ENDBRANCH   1  18
TORSDOF 7
ENDMDL
