MODEL 1
REMARK VINA RESULT:      -7.0      0.000      0.000
REMARK  Name = 
REMARK  6 active torsions:
REMARK  status: ('A' for Active; 'I' for Inactive)
REMARK    1  A    between atoms: C_1  and  O_2
REMARK    2  A    between atoms: O_2  and  C_3
REMARK    3  A    between atoms: C_3  and  C_5
REMARK    4  A    between atoms: C_5  and  C_6
REMARK    5  A    between atoms: C_5  and  C_13
REMARK    6  A    between atoms: N_18  and  C_19
REMARK                            x       y       z     vdW  Elec       q    Type
REMARK                         _______ _______ _______ _____ _____    ______ ____
ROOT
ATOM      1  C   UNL     1       3.011   5.835  19.412  0.00  0.00    +0.000 C 
ENDROOT
BRANCH   1   2
ATOM      2  C   UNL     1       4.127   5.982  18.383  0.00  0.00    +0.000 A 
ATOM      3  C   UNL     1       3.958   6.660  17.167  0.00  0.00    +0.000 A 
ATOM      4  C   UNL     1       4.964   6.649  16.194  0.00  0.00    +0.000 A 
ATOM      5  C   UNL     1       6.160   5.972  16.425  0.00  0.00    +0.000 A 
ATOM      6  C   UNL     1       6.367   5.354  17.653  0.00  0.00    +0.000 A 
ATOM      7 CL   UNL     1       7.834   4.505  17.951  0.00  0.00    +0.000 Cl
ATOM      8  C   UNL     1       5.375   5.382  18.633  0.00  0.00    +0.000 A 
ENDBRANCH   1   2
BRANCH   1   9
ATOM      9  C   UNL     1       1.967   4.665  19.228  0.00  0.00    +0.000 C 
ATOM     10  C   UNL     1       1.676   4.220  17.778  0.00  0.00    +0.000 C 
ATOM     11  C   UNL     1       2.693   3.248  17.191  0.00  0.00    +0.000 C 
ATOM     12  C   UNL     1       3.009   2.099  18.135  0.00  0.00    +0.000 C 
ATOM     13  C   UNL     1       3.174   2.521  19.595  0.00  0.00    +0.000 C 
ATOM     14  N   UNL     1       2.125   3.432  20.043  0.00  0.00    +0.000 NA
ATOM     15  C   UNL     1       2.164   3.662  21.481  0.00  0.00    +0.000 C 
ENDBRANCH   1   9
BRANCH   1  16
ATOM     16  C   UNL     1       2.260   7.149  19.659  0.00  0.00    +0.000 C 
ATOM     17  O   UNL     1       2.260   8.120  18.921  0.00  0.00    +0.000 OA
BRANCH  16  19
ATOM     18  C   UNL     1       1.048   8.335  21.289  0.00  0.00    +0.000 C 
ATOM     19  O   UNL     1       1.580   7.085  20.846  0.00  0.00    +0.000 OA
ENDBRANCH  16  19
ENDBRANCH   1  16
TORSDOF 4
ENDMDL
MODEL 2
REMARK VINA RESULT:      -6.6      1.146      1.586
REMARK  Name = 
REMARK  6 active torsions:
REMARK  status: ('A' for Active; 'I' for Inactive)
REMARK    1  A    between atoms: C_1  and  O_2
REMARK    2  A    between atoms: O_2  and  C_3
REMARK    3  A    between atoms: C_3  and  C_5
REMARK    4  A    between atoms: C_5  and  C_6
REMARK    5  A    between atoms: C_5  and  C_13
REMARK    6  A    between atoms: N_18  and  C_19
REMARK                            x       y       z     vdW  Elec       q    Type
REMARK                         _______ _______ _______ _____ _____    ______ ____
ROOT
ATOM      1  C   UNL     1       2.965   5.574  19.709  0.00  0.00    +0.000 C 
ENDROOT
BRANCH   1   2
ATOM      2  C   UNL     1       4.225   5.584  18.848  0.00  0.00    +0.000 A 
ATOM      3  C   UNL     1       5.484   5.205  19.336  0.00  0.00    +0.000 A 
ATOM      4  C   UNL     1       6.634   5.363  18.554  0.00  0.00    +0.000 A 
ATOM      5  C   UNL     1       6.542   5.891  17.267  0.00  0.00    +0.000 A 
ATOM      6  C   UNL     1       5.293   6.206  16.747  0.00  0.00    +0.000 A 
ATOM      7 CL   UNL     1       5.163   6.868  15.163  0.00  0.00    +0.000 Cl
ATOM      8  C   UNL     1       4.143   6.029  17.516  0.00  0.00    +0.000 A 
ENDBRANCH   1   2
BRANCH   1   9
ATOM      9  C   UNL     1       1.896   4.438  19.466  0.00  0.00    +0.000 C 
ATOM     10  C   UNL     1       1.536   4.131  17.995  0.00  0.00    +0.000 C 
ATOM     11  C   UNL     1       2.511   3.205  17.278  0.00  0.00    +0.000 C 
ATOM     12  C   UNL     1       2.848   1.970  18.100  0.00  0.00    +0.000 C 
ATOM     13  C   UNL     1       3.083   2.255  19.582  0.00  0.00    +0.000 C 
ATOM     14  N   UNL     1       2.069   3.135  20.157  0.00  0.00    +0.000 NA
ATOM     15  C   UNL     1       2.173   3.231  21.607  0.00  0.00    +0.000 C 
ENDBRANCH   1   9
BRANCH   1  16
ATOM     16  C   UNL     1       2.260   6.935  19.737  0.00  0.00    +0.000 C 
ATOM     17  O   UNL     1       2.340   7.798  18.878  0.00  0.00    +0.000 OA
BRANCH  16  19
ATOM     18  C   UNL     1       1.188   8.401  21.232  0.00  0.00    +0.000 C 
ATOM     19  O   UNL     1       1.518   7.056  20.881  0.00  0.00    +0.000 OA
ENDBRANCH  16  19
ENDBRANCH   1  16
TORSDOF 4
ENDMDL
MODEL 3
REMARK VINA RESULT:      -6.5      0.941      1.019
REMARK  Name = 
REMARK  6 active torsions:
REMARK  status: ('A' for Active; 'I' for Inactive)
REMARK    1  A    between atoms: C_1  and  O_2
REMARK    2  A    between atoms: O_2  and  C_3
REMARK    3  A    between atoms: C_3  and  C_5
REMARK    4  A    between atoms: C_5  and  C_6
REMARK    5  A    between atoms: C_5  and  C_13
REMARK    6  A    between atoms: N_18  and  C_19
REMARK                            x       y       z     vdW  Elec       q    Type
REMARK                         _______ _______ _______ _____ _____    ______ ____
ROOT
ATOM      1  C   UNL     1       3.162   5.760  18.895  0.00  0.00    +0.000 C 
ENDROOT
BRANCH   1   2
ATOM      2  C   UNL     1       4.529   5.915  18.237  0.00  0.00    +0.000 A 
ATOM      3  C   UNL     1       4.690   6.207  16.874  0.00  0.00    +0.000 A 
ATOM      4  C   UNL     1       5.959   6.201  16.285  0.00  0.00    +0.000 A 
ATOM      5  C   UNL     1       7.089   5.916  17.049  0.00  0.00    +0.000 A 
ATOM      6  C   UNL     1       6.951   5.693  18.414  0.00  0.00    +0.000 A 
ATOM      7 CL   UNL     1       8.334   5.330  19.371  0.00  0.00    +0.000 Cl
ATOM      8  C   UNL     1       5.689   5.720  19.009  0.00  0.00    +0.000 A 
ENDBRANCH   1   2
BRANCH   1   9
ATOM      9  C   UNL     1       2.228   4.579  18.421  0.00  0.00    +0.000 C 
ATOM     10  C   UNL     1       2.713   3.760  17.204  0.00  0.00    +0.000 C 
ATOM     11  C   UNL     1       3.728   2.671  17.530  0.00  0.00    +0.000 C 
ATOM     12  C   UNL     1       3.302   1.818  18.716  0.00  0.00    +0.000 C 
ATOM     13  C   UNL     1       2.705   2.617  19.874  0.00  0.00    +0.000 C 
ATOM     14  N   UNL     1       1.731   3.611  19.432  0.00  0.00    +0.000 NA
ATOM     15  C   UNL     1       1.013   4.218  20.545  0.00  0.00    +0.000 C 
ENDBRANCH   1   9
BRANCH   1  16
ATOM     16  C   UNL     1       2.360   7.067  18.905  0.00  0.00    +0.000 C 
ATOM     17  O   UNL     1       1.963   7.667  17.920  0.00  0.00    +0.000 OA
BRANCH  16  19
ATOM     18  C   UNL     1       1.293   8.616  20.317  0.00  0.00    +0.000 C 
ATOM     19  O   UNL     1       2.152   7.481  20.193  0.00  0.00    +0.000 OA
ENDBRANCH  16  19
ENDBRANCH   1  16
TORSDOF 4
ENDMDL
MODEL 4
REMARK VINA RESULT:      -6.4      1.698      2.173
REMARK  Name = 
REMARK  6 active torsions:
REMARK  status: ('A' for Active; 'I' for Inactive)
REMARK    1  A    between atoms: C_1  and  O_2
REMARK    2  A    between atoms: O_2  and  C_3
REMARK    3  A    between atoms: C_3  and  C_5
REMARK    4  A    between atoms: C_5  and  C_6
REMARK    5  A    between atoms: C_5  and  C_13
REMARK    6  A    between atoms: N_18  and  C_19
REMARK                            x       y       z     vdW  Elec       q    Type
REMARK                         _______ _______ _______ _____ _____    ______ ____
ROOT
ATOM      1  C   UNL     1       3.652   5.804  18.477  0.00  0.00    +0.000 C 
ENDROOT
BRANCH   1   2
ATOM      2  C   UNL     1       4.919   5.241  17.841  0.00  0.00    +0.000 A 
ATOM      3  C   UNL     1       6.107   5.037  18.558  0.00  0.00    +0.000 A 
ATOM      4  C   UNL     1       7.283   4.652  17.904  0.00  0.00    +0.000 A 
ATOM      5  C   UNL     1       7.288   4.452  16.525  0.00  0.00    +0.000 A 
ATOM      6  C   UNL     1       6.102   4.584  15.813  0.00  0.00    +0.000 A 
ATOM      7 CL   UNL     1       6.093   4.350  14.107  0.00  0.00    +0.000 Cl
ATOM      8  C   UNL     1       4.924   4.946  16.465  0.00  0.00    +0.000 A 
ENDBRANCH   1   2
BRANCH   1   9
ATOM      9  C   UNL     1       2.362   4.895  18.518  0.00  0.00    +0.000 C 
ATOM     10  C   UNL     1       2.238   3.822  17.415  0.00  0.00    +0.000 C 
ATOM     11  C   UNL     1       3.010   2.535  17.684  0.00  0.00    +0.000 C 
ATOM     12  C   UNL     1       2.777   2.003  19.089  0.00  0.00    +0.000 C 
ATOM     13  C   UNL     1       2.775   3.082  20.171  0.00  0.00    +0.000 C 
ATOM     14  N   UNL     1       1.982   4.252  19.802  0.00  0.00    +0.000 NA
ATOM     15  C   UNL     1       1.809   5.179  20.912  0.00  0.00    +0.000 C 
ENDBRANCH   1   9
BRANCH   1  16
ATOM     16  C   UNL     1       3.281   7.186  17.926  0.00  0.00    +0.000 C 
ATOM     17  O   UNL     1       3.882   7.792  17.056  0.00  0.00    +0.000 OA
BRANCH  16  19
ATOM     18  C   UNL     1       1.652   8.880  18.024  0.00  0.00    +0.000 C 
ATOM     19  O   UNL     1       2.163   7.659  18.561  0.00  0.00    +0.000 OA
ENDBRANCH  16  19
ENDBRANCH   1  16
TORSDOF 4
ENDMDL
MODEL 5
REMARK VINA RESULT:      -6.3      0.818      1.064
REMARK  Name = 
REMARK  6 active torsions:
REMARK  status: ('A' for Active; 'I' for Inactive)
REMARK    1  A    between atoms: C_1  and  O_2
REMARK    2  A    between atoms: O_2  and  C_3
REMARK    3  A    between atoms: C_3  and  C_5
REMARK    4  A    between atoms: C_5  and  C_6
REMARK    5  A    between atoms: C_5  and  C_13
REMARK    6  A    between atoms: N_18  and  C_19
REMARK                            x       y       z     vdW  Elec       q    Type
REMARK                         _______ _______ _______ _____ _____    ______ ____
ROOT
ATOM      1  C   UNL     1       2.775   5.285  19.922  0.00  0.00    +0.000 C 
ENDROOT
BRANCH   1   2
ATOM      2  C   UNL     1       3.823   5.783  18.932  0.00  0.00    +0.000 A 
ATOM      3  C   UNL     1       3.516   6.638  17.863  0.00  0.00    +0.000 A 
ATOM      4  C   UNL     1       4.480   6.955  16.899  0.00  0.00    +0.000 A 
ATOM      5  C   UNL     1       5.770   6.435  16.995  0.00  0.00    +0.000 A 
ATOM      6  C   UNL     1       6.105   5.642  18.086  0.00  0.00    +0.000 A 
ATOM      7 CL   UNL     1       7.690   4.982  18.214  0.00  0.00    +0.000 Cl
ATOM      8  C   UNL     1       5.153   5.342  19.060  0.00  0.00    +0.000 A 
ENDBRANCH   1   2
BRANCH   1   9
ATOM      9  C   UNL     1       1.935   4.002  19.547  0.00  0.00    +0.000 C 
ATOM     10  C   UNL     1       1.602   3.807  18.052  0.00  0.00    +0.000 C 
ATOM     11  C   UNL     1       2.716   3.176  17.225  0.00  0.00    +0.000 C 
ATOM     12  C   UNL     1       3.304   1.941  17.890  0.00  0.00    +0.000 C 
ATOM     13  C   UNL     1       3.519   2.089  19.396  0.00  0.00    +0.000 C 
ATOM     14  N   UNL     1       2.371   2.684  20.076  0.00  0.00    +0.000 NA
ATOM     15  C   UNL     1       2.494   2.627  21.526  0.00  0.00    +0.000 C 
ENDBRANCH   1   9
BRANCH   1  16
ATOM     16  C   UNL     1       1.823   6.397  20.381  0.00  0.00    +0.000 C 
ATOM     17  O   UNL     1       0.765   6.233  20.965  0.00  0.00    +0.000 OA
BRANCH  16  19
ATOM     18  C   UNL     1       1.406   8.702  20.173  0.00  0.00    +0.000 C 
ATOM     19  O   UNL     1       2.330   7.621  20.036  0.00  0.00    +0.000 OA
ENDBRANCH  16  19
ENDBRANCH   1  16
TORSDOF 4
ENDMDL
MODEL 6
REMARK VINA RESULT:      -6.3      1.282      1.891
REMARK  Name = 
REMARK  6 active torsions:
REMARK  status: ('A' for Active; 'I' for Inactive)
REMARK    1  A    between atoms: C_1  and  O_2
REMARK    2  A    between atoms: O_2  and  C_3
REMARK    3  A    between atoms: C_3  and  C_5
REMARK    4  A    between atoms: C_5  and  C_6
REMARK    5  A    between atoms: C_5  and  C_13
REMARK    6  A    between atoms: N_18  and  C_19
REMARK                            x       y       z     vdW  Elec       q    Type
REMARK                         _______ _______ _______ _____ _____    ______ ____
ROOT
ATOM      1  C   UNL     1       2.969   5.698  19.587  0.00  0.00    +0.000 C 
ENDROOT
BRANCH   1   2
ATOM      2  C   UNL     1       4.246   5.630  18.756  0.00  0.00    +0.000 A 
ATOM      3  C   UNL     1       5.483   5.240  19.290  0.00  0.00    +0.000 A 
ATOM      4  C   UNL     1       6.653   5.327  18.528  0.00  0.00    +0.000 A 
ATOM      5  C   UNL     1       6.605   5.794  17.215  0.00  0.00    +0.000 A 
ATOM      6  C   UNL     1       5.377   6.118  16.652  0.00  0.00    +0.000 A 
ATOM      7 CL   UNL     1       5.300   6.706  15.036  0.00  0.00    +0.000 Cl
ATOM      8  C   UNL     1       4.206   6.011  17.403  0.00  0.00    +0.000 A 
ENDBRANCH   1   2
BRANCH   1   9
ATOM      9  C   UNL     1       1.891   4.558  19.407  0.00  0.00    +0.000 C 
ATOM     10  C   UNL     1       1.557   4.148  17.956  0.00  0.00    +0.000 C 
ATOM     11  C   UNL     1       2.534   3.161  17.328  0.00  0.00    +0.000 C 
ATOM     12  C   UNL     1       2.841   1.987  18.245  0.00  0.00    +0.000 C 
ATOM     13  C   UNL     1       3.051   2.377  19.707  0.00  0.00    +0.000 C 
ATOM     14  N   UNL     1       2.036   3.307  20.196  0.00  0.00    +0.000 NA
ATOM     15  C   UNL     1       2.114   3.509  21.636  0.00  0.00    +0.000 C 
ENDBRANCH   1   9
BRANCH   1  16
ATOM     16  C   UNL     1       2.280   7.065  19.498  0.00  0.00    +0.000 C 
ATOM     17  O   UNL     1       1.855   7.712  20.440  0.00  0.00    +0.000 OA
BRANCH  16  19
ATOM     18  C   UNL     1       1.881   8.847  18.015  0.00  0.00    +0.000 C 
ATOM     19  O   UNL     1       2.199   7.465  18.191  0.00  0.00    +0.000 OA
ENDBRANCH  16  19
ENDBRANCH   1  16
TORSDOF 4
ENDMDL
MODEL 7
REMARK VINA RESULT:      -6.2      1.682      2.478
REMARK  Name = 
REMARK  6 active torsions:
REMARK  status: ('A' for Active; 'I' for Inactive)
REMARK    1  A    between atoms: C_1  and  O_2
REMARK    2  A    between atoms: O_2  and  C_3
REMARK    3  A    between atoms: C_3  and  C_5
REMARK    4  A    between atoms: C_5  and  C_6
REMARK    5  A    between atoms: C_5  and  C_13
REMARK    6  A    between atoms: N_18  and  C_19
REMARK                            x       y       z     vdW  Elec       q    Type
REMARK                         _______ _______ _______ _____ _____    ______ ____
ROOT
ATOM      1  C   UNL     1       3.164   4.381  18.606  0.00  0.00    +0.000 C 
ENDROOT
BRANCH   1   2
ATOM      2  C   UNL     1       4.530   4.545  17.947  0.00  0.00    +0.000 A 
ATOM      3  C   UNL     1       4.795   4.137  16.631  0.00  0.00    +0.000 A 
ATOM      4  C   UNL     1       6.096   4.177  16.117  0.00  0.00    +0.000 A 
ATOM      5  C   UNL     1       7.151   4.636  16.903  0.00  0.00    +0.000 A 
ATOM      6  C   UNL     1       6.890   5.107  18.185  0.00  0.00    +0.000 A 
ATOM      7 CL   UNL     1       8.183   5.668  19.174  0.00  0.00    +0.000 Cl
ATOM      8  C   UNL     1       5.592   5.089  18.693  0.00  0.00    +0.000 A 
ENDBRANCH   1   2
BRANCH   1   9
ATOM      9  C   UNL     1       2.682   2.927  18.989  0.00  0.00    +0.000 C 
ATOM     10  C   UNL     1       3.735   1.801  18.887  0.00  0.00    +0.000 C 
ATOM     11  C   UNL     1       4.665   1.683  20.089  0.00  0.00    +0.000 C 
ATOM     12  C   UNL     1       3.910   1.702  21.409  0.00  0.00    +0.000 C 
ATOM     13  C   UNL     1       2.784   2.733  21.467  0.00  0.00    +0.000 C 
ATOM     14  N   UNL     1       1.952   2.730  20.267  0.00  0.00    +0.000 NA
ATOM     15  C   UNL     1       0.762   3.558  20.414  0.00  0.00    +0.000 C 
ENDBRANCH   1   9
BRANCH   1  16
ATOM     16  C   UNL     1       2.048   5.097  17.835  0.00  0.00    +0.000 C 
ATOM     17  O   UNL     1       1.150   4.555  17.214  0.00  0.00    +0.000 OA
BRANCH  16  19
ATOM     18  C   UNL     1       2.306   6.937  19.278  0.00  0.00    +0.000 C 
ATOM     19  O   UNL     1       2.204   6.454  17.937  0.00  0.00    +0.000 OA
ENDBRANCH  16  19
ENDBRANCH   1  16
TORSDOF 4
ENDMDL
MODEL 8
REMARK VINA RESULT:      -6.1      2.507      4.524
REMARK  Name = 
REMARK  6 active torsions:
REMARK  status: ('A' for Active; 'I' for Inactive)
REMARK    1  A    between atoms: C_1  and  O_2
REMARK    2  A    between atoms: O_2  and  C_3
REMARK    3  A    between atoms: C_3  and  C_5
REMARK    4  A    between atoms: C_5  and  C_6
REMARK    5  A    between atoms: C_5  and  C_13
REMARK    6  A    between atoms: N_18  and  C_19
REMARK                            x       y       z     vdW  Elec       q    Type
REMARK                         _______ _______ _______ _____ _____    ______ ____
ROOT
ATOM      1  C   UNL     1       3.239   5.998  17.846  0.00  0.00    +0.000 C 
ENDROOT
BRANCH   1   2
ATOM      2  C   UNL     1       2.870   4.580  18.269  0.00  0.00    +0.000 A 
ATOM      3  C   UNL     1       2.809   3.507  17.368  0.00  0.00    +0.000 A 
ATOM      4  C   UNL     1       2.329   2.256  17.773  0.00  0.00    +0.000 A 
ATOM      5  C   UNL     1       1.915   2.053  19.088  0.00  0.00    +0.000 A 
ATOM      6  C   UNL     1       2.033   3.089  20.007  0.00  0.00    +0.000 A 
ATOM      7 CL   UNL     1       1.516   2.859  21.633  0.00  0.00    +0.000 Cl
ATOM      8  C   UNL     1       2.532   4.330  19.612  0.00  0.00    +0.000 A 
ENDBRANCH   1   2
BRANCH   1   9
ATOM      9  C   UNL     1       4.767   6.397  17.803  0.00  0.00    +0.000 C 
ATOM     10  C   UNL     1       5.675   5.769  18.883  0.00  0.00    +0.000 C 
ATOM     11  C   UNL     1       6.156   4.356  18.573  0.00  0.00    +0.000 C 
ATOM     12  C   UNL     1       6.701   4.227  17.159  0.00  0.00    +0.000 C 
ATOM     13  C   UNL     1       5.870   4.954  16.103  0.00  0.00    +0.000 C 
ATOM     14  N   UNL     1       5.493   6.305  16.510  0.00  0.00    +0.000 NA
ATOM     15  C   UNL     1       4.888   7.065  15.424  0.00  0.00    +0.000 C 
ENDBRANCH   1   9
BRANCH   1  16
ATOM     16  C   UNL     1       2.459   7.067  18.620  0.00  0.00    +0.000 C 
ATOM     17  O   UNL     1       2.441   7.198  19.832  0.00  0.00    +0.000 OA
BRANCH  16  19
ATOM     18  C   UNL     1       2.047   9.261  17.877  0.00  0.00    +0.000 C 
ATOM     19  O   UNL     1       1.767   7.865  17.749  0.00  0.00    +0.000 OA
ENDBRANCH  16  19
ENDBRANCH   1  16
TORSDOF 4
ENDMDL
MODEL 9
REMARK VINA RESULT:      -6.1      2.825      4.330
REMARK  Name = 
REMARK  6 active torsions:
REMARK  status: ('A' for Active; 'I' for Inactive)
REMARK    1  A    between atoms: C_1  and  O_2
REMARK    2  A    between atoms: O_2  and  C_3
REMARK    3  A    between atoms: C_3  and  C_5
REMARK    4  A    between atoms: C_5  and  C_6
REMARK    5  A    between atoms: C_5  and  C_13
REMARK    6  A    between atoms: N_18  and  C_19
REMARK                            x       y       z     vdW  Elec       q    Type
REMARK                         _______ _______ _______ _____ _____    ______ ____
ROOT
ATOM      1  C   UNL     1       3.923   4.591  18.714  0.00  0.00    +0.000 C 
ENDROOT
BRANCH   1   2
ATOM      2  C   UNL     1       3.202   5.935  18.694  0.00  0.00    +0.000 A 
ATOM      3  C   UNL     1       3.189   6.777  17.572  0.00  0.00    +0.000 A 
ATOM      4  C   UNL     1       2.636   8.060  17.645  0.00  0.00    +0.000 A 
ATOM      5  C   UNL     1       2.076   8.519  18.836  0.00  0.00    +0.000 A 
ATOM      6  C   UNL     1       2.022   7.671  19.935  0.00  0.00    +0.000 A 
ATOM      7 CL   UNL     1       1.343   8.225  21.416  0.00  0.00    +0.000 Cl
ATOM      8  C   UNL     1       2.552   6.383  19.859  0.00  0.00    +0.000 A 
ENDBRANCH   1   2
BRANCH   1   9
ATOM      9  C   UNL     1       3.413   3.477  19.710  0.00  0.00    +0.000 C 
ATOM     10  C   UNL     1       2.399   3.925  20.785  0.00  0.00    +0.000 C 
ATOM     11  C   UNL     1       0.953   3.997  20.310  0.00  0.00    +0.000 C 
ATOM     12  C   UNL     1       0.531   2.751  19.546  0.00  0.00    +0.000 C 
ATOM     13  C   UNL     1       1.586   2.233  18.570  0.00  0.00    +0.000 C 
ATOM     14  N   UNL     1       2.924   2.190  19.152  0.00  0.00    +0.000 NA
ATOM     15  C   UNL     1       3.881   1.502  18.297  0.00  0.00    +0.000 C 
ENDBRANCH   1   9
BRANCH   1  16
ATOM     16  C   UNL     1       5.443   4.740  18.855  0.00  0.00    +0.000 C 
ATOM     17  O   UNL     1       6.031   5.140  19.846  0.00  0.00    +0.000 OA
BRANCH  16  19
ATOM     18  C   UNL     1       7.451   4.688  17.631  0.00  0.00    +0.000 C 
ATOM     19  O   UNL     1       6.062   4.359  17.694  0.00  0.00    +0.000 OA
ENDBRANCH  16  19
ENDBRANCH   1  16
TORSDOF 4
ENDMDL
