MODEL 1
REMARK VINA RESULT:      -8.0      0.000      0.000
REMARK  Name = 
REMARK  6 active torsions:
REMARK  status: ('A' for Active; 'I' for Inactive)
REMARK    1  A    between atoms: C_1  and  O_2
REMARK    2  A    between atoms: O_2  and  C_3
REMARK    3  A    between atoms: C_8  and  O_9
REMARK    4  A    between atoms: O_9  and  C_10
REMARK    5  A    between atoms: C_14  and  C_15
REMARK    6  A    between atoms: C_18  and  C_19
REMARK                            x       y       z     vdW  Elec       q    Type
REMARK                         _______ _______ _______ _____ _____    ______ ____
ROOT
ATOM      1  C   UNL     1       3.283   5.287  19.110  0.00  0.00    +0.000 A 
ATOM      2  C   UNL     1       2.376   5.120  20.149  0.00  0.00    +0.000 A 
ATOM      3  N   UNL     1       2.062   3.846  20.637  0.00  0.00    +0.000 N 
ATOM      4  N   UNL     1       1.655   6.129  20.672  0.00  0.00    +0.000 NA
ATOM      5  C   UNL     1       1.805   7.339  20.114  0.00  0.00    +0.000 A 
ATOM      6  N   UNL     1       2.528   7.571  19.011  0.00  0.00    +0.000 NA
ATOM      7  C   UNL     1       3.223   6.531  18.522  0.00  0.00    +0.000 A 
ATOM      8 CL   UNL     1       3.919   6.926  16.993  0.00  0.00    +0.000 Cl
ATOM      9  H   UNL     1       2.881   3.285  20.837  0.00  0.00    +0.000 HD
ATOM     10  H   UNL     1       1.415   3.934  21.414  0.00  0.00    +0.000 HD
ENDROOT
BRANCH   5  11
ATOM     11  C   UNL     1       1.151   8.503  20.740  0.00  0.00    +0.000 A 
ATOM     12  C   UNL     1       0.739   8.507  22.084  0.00  0.00    +0.000 A 
ATOM     13  C   UNL     1       0.113   9.624  22.656  0.00  0.00    +0.000 A 
ATOM     14  C   UNL     1      -0.116  10.775  21.895  0.00  0.00    +0.000 A 
ATOM     15  C   UNL     1      -0.807  11.974  22.471  0.00  0.00    +0.000 C 
ATOM     16  C   UNL     1       0.298  10.798  20.564  0.00  0.00    +0.000 A 
ATOM     17  C   UNL     1       0.917   9.677  19.998  0.00  0.00    +0.000 A 
ENDBRANCH   5  11
BRANCH   1  18
ATOM     18  O   UNL     1       4.035   4.207  18.746  0.00  0.00    +0.000 OA
BRANCH  18  24
ATOM     19  C   UNL     1       6.400   4.715  18.111  0.00  0.00    +0.000 A 
ATOM     20  C   UNL     1       7.291   4.835  17.034  0.00  0.00    +0.000 A 
ATOM     21  C   UNL     1       6.899   4.500  15.735  0.00  0.00    +0.000 A 
ATOM     22  C   UNL     1       5.618   4.019  15.495  0.00  0.00    +0.000 A 
ATOM     23  C   UNL     1       4.711   3.925  16.547  0.00  0.00    +0.000 A 
ATOM     24  C   UNL     1       5.074   4.314  17.844  0.00  0.00    +0.000 A 
BRANCH  19  26
ATOM     25  C   UNL     1       7.942   5.715  19.642  0.00  0.00    +0.000 C 
ATOM     26  O   UNL     1       6.739   4.988  19.410  0.00  0.00    +0.000 OA
ENDBRANCH  19  26
ENDBRANCH  18  24
ENDBRANCH   1  18
TORSDOF 4
ENDMDL
MODEL 2
REMARK VINA RESULT:      -8.0      0.900      1.942
REMARK  Name = 
REMARK  6 active torsions:
REMARK  status: ('A' for Active; 'I' for Inactive)
REMARK    1  A    between atoms: C_1  and  O_2
REMARK    2  A    between atoms: O_2  and  C_3
REMARK    3  A    between atoms: C_8  and  O_9
REMARK    4  A    between atoms: O_9  and  C_10
REMARK    5  A    between atoms: C_14  and  C_15
REMARK    6  A    between atoms: C_18  and  C_19
REMARK                            x       y       z     vdW  Elec       q    Type
REMARK                         _______ _______ _______ _____ _____    ______ ____
ROOT
ATOM      1  C   UNL     1       3.047   5.669  19.161  0.00  0.00    +0.000 A 
ATOM      2  C   UNL     1       2.200   5.441  20.238  0.00  0.00    +0.000 A 
ATOM      3  N   UNL     1       1.961   4.145  20.710  0.00  0.00    +0.000 N 
ATOM      4  N   UNL     1       1.466   6.408  20.819  0.00  0.00    +0.000 NA
ATOM      5  C   UNL     1       1.539   7.635  20.284  0.00  0.00    +0.000 A 
ATOM      6  N   UNL     1       2.198   7.921  19.154  0.00  0.00    +0.000 NA
ATOM      7  C   UNL     1       2.909   6.922  18.606  0.00  0.00    +0.000 A 
ATOM      8 CL   UNL     1       3.513   7.378  17.055  0.00  0.00    +0.000 Cl
ATOM      9  H   UNL     1       2.811   3.614  20.857  0.00  0.00    +0.000 HD
ATOM     10  H   UNL     1       1.350   4.189  21.519  0.00  0.00    +0.000 HD
ENDROOT
BRANCH   5  11
ATOM     11  C   UNL     1       0.871   8.757  20.968  0.00  0.00    +0.000 A 
ATOM     12  C   UNL     1       0.495   8.702  22.322  0.00  0.00    +0.000 A 
ATOM     13  C   UNL     1      -0.145   9.781  22.950  0.00  0.00    +0.000 A 
ATOM     14  C   UNL     1      -0.426  10.950  22.237  0.00  0.00    +0.000 A 
ATOM     15  C   UNL     1      -1.133  12.109  22.874  0.00  0.00    +0.000 C 
ATOM     16  C   UNL     1      -0.049  11.033  20.897  0.00  0.00    +0.000 A 
ATOM     17  C   UNL     1       0.585   9.950  20.276  0.00  0.00    +0.000 A 
ENDBRANCH   5  11
BRANCH   1  18
ATOM     18  O   UNL     1       3.823   4.628  18.735  0.00  0.00    +0.000 OA
BRANCH  18  24
ATOM     19  C   UNL     1       5.787   4.522  17.191  0.00  0.00    +0.000 A 
ATOM     20  C   UNL     1       7.177   4.689  17.100  0.00  0.00    +0.000 A 
ATOM     21  C   UNL     1       7.915   5.180  18.181  0.00  0.00    +0.000 A 
ATOM     22  C   UNL     1       7.273   5.533  19.361  0.00  0.00    +0.000 A 
ATOM     23  C   UNL     1       5.899   5.343  19.479  0.00  0.00    +0.000 A 
ATOM     24  C   UNL     1       5.157   4.796  18.422  0.00  0.00    +0.000 A 
BRANCH  19  26
ATOM     25  C   UNL     1       5.485   4.298  14.828  0.00  0.00    +0.000 C 
ATOM     26  O   UNL     1       5.006   4.085  16.153  0.00  0.00    +0.000 OA
ENDBRANCH  19  26
ENDBRANCH  18  24
ENDBRANCH   1  18
TORSDOF 4
ENDMDL
MODEL 3
REMARK VINA RESULT:      -7.7      0.839      1.336
REMARK  Name = 
REMARK  6 active torsions:
REMARK  status: ('A' for Active; 'I' for Inactive)
REMARK    1  A    between atoms: C_1  and  O_2
REMARK    2  A    between atoms: O_2  and  C_3
REMARK    3  A    between atoms: C_8  and  O_9
REMARK    4  A    between atoms: O_9  and  C_10
REMARK    5  A    between atoms: C_14  and  C_15
REMARK    6  A    between atoms: C_18  and  C_19
REMARK                            x       y       z     vdW  Elec       q    Type
REMARK                         _______ _______ _______ _____ _____    ______ ____
ROOT
ATOM      1  C   UNL     1       3.996   5.355  18.670  0.00  0.00    +0.000 A 
ATOM      2  C   UNL     1       3.090   5.077  19.686  0.00  0.00    +0.000 A 
ATOM      3  N   UNL     1       2.918   3.773  20.165  0.00  0.00    +0.000 N 
ATOM      4  N   UNL     1       2.241   5.991  20.189  0.00  0.00    +0.000 NA
ATOM      5  C   UNL     1       2.258   7.212  19.636  0.00  0.00    +0.000 A 
ATOM      6  N   UNL     1       2.977   7.532  18.552  0.00  0.00    +0.000 NA
ATOM      7  C   UNL     1       3.803   6.584  18.081  0.00  0.00    +0.000 A 
ATOM      8 CL   UNL     1       4.486   7.064  16.570  0.00  0.00    +0.000 Cl
ATOM      9  H   UNL     1       3.794   3.314  20.387  0.00  0.00    +0.000 HD
ATOM     10  H   UNL     1       2.246   3.781  20.926  0.00  0.00    +0.000 HD
ENDROOT
BRANCH   5  11
ATOM     11  C   UNL     1       1.454   8.287  20.244  0.00  0.00    +0.000 A 
ATOM     12  C   UNL     1       1.027   9.415  19.521  0.00  0.00    +0.000 A 
ATOM     13  C   UNL     1       0.268  10.429  20.123  0.00  0.00    +0.000 A 
ATOM     14  C   UNL     1      -0.088  10.340  21.472  0.00  0.00    +0.000 A 
ATOM     15  C   UNL     1      -0.876  11.421  22.150  0.00  0.00    +0.000 C 
ATOM     16  C   UNL     1       0.312   9.224  22.206  0.00  0.00    +0.000 A 
ATOM     17  C   UNL     1       1.074   8.218  21.599  0.00  0.00    +0.000 A 
ENDBRANCH   5  11
BRANCH   1  18
ATOM     18  O   UNL     1       4.882   4.373  18.327  0.00  0.00    +0.000 OA
BRANCH  18  24
ATOM     19  C   UNL     1       6.933   4.834  16.973  0.00  0.00    +0.000 A 
ATOM     20  C   UNL     1       7.454   4.881  15.670  0.00  0.00    +0.000 A 
ATOM     21  C   UNL     1       6.693   4.462  14.576  0.00  0.00    +0.000 A 
ATOM     22  C   UNL     1       5.408   3.969  14.767  0.00  0.00    +0.000 A 
ATOM     23  C   UNL     1       4.865   3.946  16.048  0.00  0.00    +0.000 A 
ATOM     24  C   UNL     1       5.597   4.419  17.147  0.00  0.00    +0.000 A 
BRANCH  19  26
ATOM     25  C   UNL     1       7.719   6.577  18.412  0.00  0.00    +0.000 C 
ATOM     26  O   UNL     1       7.646   5.191  18.088  0.00  0.00    +0.000 OA
ENDBRANCH  19  26
ENDBRANCH  18  24
ENDBRANCH   1  18
TORSDOF 4
ENDMDL
MODEL 4
REMARK VINA RESULT:      -7.7      4.667      6.629
REMARK  Name = 
REMARK  6 active torsions:
REMARK  status: ('A' for Active; 'I' for Inactive)
REMARK    1  A    between atoms: C_1  and  O_2
REMARK    2  A    between atoms: O_2  and  C_3
REMARK    3  A    between atoms: C_8  and  O_9
REMARK    4  A    between atoms: O_9  and  C_10
REMARK    5  A    between atoms: C_14  and  C_15
REMARK    6  A    between atoms: C_18  and  C_19
REMARK                            x       y       z     vdW  Elec       q    Type
REMARK                         _______ _______ _______ _____ _____    ______ ____
ROOT
ATOM      1  C   UNL     1       7.218   6.085  17.903  0.00  0.00    +0.000 A 
ATOM      2  C   UNL     1       8.091   6.428  18.928  0.00  0.00    +0.000 A 
ATOM      3  N   UNL     1       8.428   5.509  19.929  0.00  0.00    +0.000 N 
ATOM      4  N   UNL     1       8.571   7.672  19.105  0.00  0.00    +0.000 NA
ATOM      5  C   UNL     1       8.135   8.621  18.264  0.00  0.00    +0.000 A 
ATOM      6  N   UNL     1       7.177   8.427  17.349  0.00  0.00    +0.000 NA
ATOM      7  C   UNL     1       6.723   7.170  17.215  0.00  0.00    +0.000 A 
ATOM      8 CL   UNL     1       5.352   7.123  16.167  0.00  0.00    +0.000 Cl
ATOM      9  H   UNL     1       8.709   4.608  19.562  0.00  0.00    +0.000 HD
ATOM     10  H   UNL     1       9.101   5.932  20.560  0.00  0.00    +0.000 HD
ENDROOT
BRANCH   5  11
ATOM     11  C   UNL     1       8.740   9.965  18.322  0.00  0.00    +0.000 A 
ATOM     12  C   UNL     1       9.873  10.251  19.104  0.00  0.00    +0.000 A 
ATOM     13  C   UNL     1      10.426  11.540  19.149  0.00  0.00    +0.000 A 
ATOM     14  C   UNL     1       9.859  12.580  18.406  0.00  0.00    +0.000 A 
ATOM     15  C   UNL     1      10.412  13.973  18.455  0.00  0.00    +0.000 C 
ATOM     16  C   UNL     1       8.744  12.315  17.613  0.00  0.00    +0.000 A 
ATOM     17  C   UNL     1       8.194  11.028  17.577  0.00  0.00    +0.000 A 
ENDBRANCH   5  11
BRANCH   1  18
ATOM     18  O   UNL     1       6.894   4.765  17.763  0.00  0.00    +0.000 OA
BRANCH  18  24
ATOM     19  C   UNL     1       4.905   3.658  16.729  0.00  0.00    +0.000 A 
ATOM     20  C   UNL     1       3.541   3.374  16.897  0.00  0.00    +0.000 A 
ATOM     21  C   UNL     1       2.882   3.691  18.088  0.00  0.00    +0.000 A 
ATOM     22  C   UNL     1       3.580   4.276  19.138  0.00  0.00    +0.000 A 
ATOM     23  C   UNL     1       4.925   4.593  18.975  0.00  0.00    +0.000 A 
ATOM     24  C   UNL     1       5.583   4.334  17.763  0.00  0.00    +0.000 A 
BRANCH  19  26
ATOM     25  C   UNL     1       5.565   4.241  14.504  0.00  0.00    +0.000 C 
ATOM     26  O   UNL     1       5.614   3.333  15.602  0.00  0.00    +0.000 OA
ENDBRANCH  19  26
ENDBRANCH  18  24
ENDBRANCH   1  18
TORSDOF 4
ENDMDL
MODEL 5
REMARK VINA RESULT:      -7.7      1.647      2.868
REMARK  Name = 
REMARK  6 active torsions:
REMARK  status: ('A' for Active; 'I' for Inactive)
REMARK    1  A    between atoms: C_1  and  O_2
REMARK    2  A    between atoms: O_2  and  C_3
REMARK    3  A    between atoms: C_8  and  O_9
REMARK    4  A    between atoms: O_9  and  C_10
REMARK    5  A    between atoms: C_14  and  C_15
REMARK    6  A    between atoms: C_18  and  C_19
REMARK                            x       y       z     vdW  Elec       q    Type
REMARK                         _______ _______ _______ _____ _____    ______ ____
ROOT
ATOM      1  C   UNL     1       2.803   6.047  18.868  0.00  0.00    +0.000 A 
ATOM      2  C   UNL     1       2.775   7.367  18.436  0.00  0.00    +0.000 A 
ATOM      3  N   UNL     1       3.542   7.786  17.342  0.00  0.00    +0.000 N 
ATOM      4  N   UNL     1       2.125   8.346  19.091  0.00  0.00    +0.000 NA
ATOM      5  C   UNL     1       1.518   8.014  20.240  0.00  0.00    +0.000 A 
ATOM      6  N   UNL     1       1.621   6.812  20.821  0.00  0.00    +0.000 NA
ATOM      7  C   UNL     1       2.287   5.870  20.133  0.00  0.00    +0.000 A 
ATOM      8 CL   UNL     1       2.521   4.459  21.098  0.00  0.00    +0.000 Cl
ATOM      9  H   UNL     1       3.439   7.185  16.533  0.00  0.00    +0.000 HD
ATOM     10  H   UNL     1       3.358   8.768  17.160  0.00  0.00    +0.000 HD
ENDROOT
BRANCH   5  11
ATOM     11  C   UNL     1       0.672   9.013  20.919  0.00  0.00    +0.000 A 
ATOM     12  C   UNL     1       0.054  10.073  20.232  0.00  0.00    +0.000 A 
ATOM     13  C   UNL     1      -0.742  11.015  20.902  0.00  0.00    +0.000 A 
ATOM     14  C   UNL     1      -0.943  10.919  22.282  0.00  0.00    +0.000 A 
ATOM     15  C   UNL     1      -1.766  11.926  23.028  0.00  0.00    +0.000 C 
ATOM     16  C   UNL     1      -0.351   9.868  22.981  0.00  0.00    +0.000 A 
ATOM     17  C   UNL     1       0.446   8.934  22.307  0.00  0.00    +0.000 A 
ENDBRANCH   5  11
BRANCH   1  18
ATOM     18  O   UNL     1       3.401   5.127  18.054  0.00  0.00    +0.000 OA
BRANCH  18  24
ATOM     19  C   UNL     1       5.520   4.665  16.811  0.00  0.00    +0.000 A 
ATOM     20  C   UNL     1       6.914   4.553  16.933  0.00  0.00    +0.000 A 
ATOM     21  C   UNL     1       7.558   4.865  18.134  0.00  0.00    +0.000 A 
ATOM     22  C   UNL     1       6.823   5.314  19.224  0.00  0.00    +0.000 A 
ATOM     23  C   UNL     1       5.437   5.399  19.129  0.00  0.00    +0.000 A 
ATOM     24  C   UNL     1       4.774   5.033  17.949  0.00  0.00    +0.000 A 
BRANCH  19  26
ATOM     25  C   UNL     1       5.584   4.390  14.434  0.00  0.00    +0.000 C 
ATOM     26  O   UNL     1       4.839   4.415  15.649  0.00  0.00    +0.000 OA
ENDBRANCH  19  26
ENDBRANCH  18  24
ENDBRANCH   1  18
TORSDOF 4
ENDMDL
MODEL 6
REMARK VINA RESULT:      -7.7      1.926      2.996
REMARK  Name = 
REMARK  6 active torsions:
REMARK  status: ('A' for Active; 'I' for Inactive)
REMARK    1  A    between atoms: C_1  and  O_2
REMARK    2  A    between atoms: O_2  and  C_3
REMARK    3  A    between atoms: C_8  and  O_9
REMARK    4  A    between atoms: O_9  and  C_10
REMARK    5  A    between atoms: C_14  and  C_15
REMARK    6  A    between atoms: C_18  and  C_19
REMARK                            x       y       z     vdW  Elec       q    Type
REMARK                         _______ _______ _______ _____ _____    ______ ____
ROOT
ATOM      1  C   UNL     1       2.414   6.713  18.911  0.00  0.00    +0.000 A 
ATOM      2  C   UNL     1       2.298   8.040  18.520  0.00  0.00    +0.000 A 
ATOM      3  N   UNL     1       2.970   8.524  17.392  0.00  0.00    +0.000 N 
ATOM      4  N   UNL     1       1.649   8.971  19.244  0.00  0.00    +0.000 NA
ATOM      5  C   UNL     1       1.136   8.581  20.420  0.00  0.00    +0.000 A 
ATOM      6  N   UNL     1       1.331   7.371  20.958  0.00  0.00    +0.000 NA
ATOM      7  C   UNL     1       1.992   6.479  20.201  0.00  0.00    +0.000 A 
ATOM      8 CL   UNL     1       2.355   5.056  21.108  0.00  0.00    +0.000 Cl
ATOM      9  H   UNL     1       2.842   7.940  16.573  0.00  0.00    +0.000 HD
ATOM     10  H   UNL     1       2.731   9.500  17.250  0.00  0.00    +0.000 HD
ENDROOT
BRANCH   5  11
ATOM     11  C   UNL     1       0.292   9.521  21.181  0.00  0.00    +0.000 A 
ATOM     12  C   UNL     1      -0.038   9.316  22.533  0.00  0.00    +0.000 A 
ATOM     13  C   UNL     1      -0.848  10.222  23.235  0.00  0.00    +0.000 A 
ATOM     14  C   UNL     1      -1.349  11.363  22.601  0.00  0.00    +0.000 A 
ATOM     15  C   UNL     1      -2.239  12.333  23.318  0.00  0.00    +0.000 C 
ATOM     16  C   UNL     1      -1.023  11.593  21.265  0.00  0.00    +0.000 A 
ATOM     17  C   UNL     1      -0.218  10.682  20.569  0.00  0.00    +0.000 A 
ENDBRANCH   5  11
BRANCH   1  18
ATOM     18  O   UNL     1       2.998   5.843  18.034  0.00  0.00    +0.000 OA
BRANCH  18  24
ATOM     19  C   UNL     1       4.183   3.806  18.871  0.00  0.00    +0.000 A 
ATOM     20  C   UNL     1       4.108   2.410  18.988  0.00  0.00    +0.000 A 
ATOM     21  C   UNL     1       2.952   1.718  18.615  0.00  0.00    +0.000 A 
ATOM     22  C   UNL     1       1.846   2.412  18.140  0.00  0.00    +0.000 A 
ATOM     23  C   UNL     1       1.916   3.794  17.987  0.00  0.00    +0.000 A 
ATOM     24  C   UNL     1       3.091   4.492  18.302  0.00  0.00    +0.000 A 
BRANCH  19  26
ATOM     25  C   UNL     1       6.332   4.704  18.319  0.00  0.00    +0.000 C 
ATOM     26  O   UNL     1       5.272   4.542  19.259  0.00  0.00    +0.000 OA
ENDBRANCH  19  26
ENDBRANCH  18  24
ENDBRANCH   1  18
TORSDOF 4
ENDMDL
MODEL 7
REMARK VINA RESULT:      -7.6      0.931      2.238
REMARK  Name = 
REMARK  6 active torsions:
REMARK  status: ('A' for Active; 'I' for Inactive)
REMARK    1  A    between atoms: C_1  and  O_2
REMARK    2  A    between atoms: O_2  and  C_3
REMARK    3  A    between atoms: C_8  and  O_9
REMARK    4  A    between atoms: O_9  and  C_10
REMARK    5  A    between atoms: C_14  and  C_15
REMARK    6  A    between atoms: C_18  and  C_19
REMARK                            x       y       z     vdW  Elec       q    Type
REMARK                         _______ _______ _______ _____ _____    ______ ____
ROOT
ATOM      1  C   UNL     1       3.206   5.519  19.715  0.00  0.00    +0.000 A 
ATOM      2  C   UNL     1       2.253   5.353  20.713  0.00  0.00    +0.000 A 
ATOM      3  N   UNL     1       1.999   4.094  21.269  0.00  0.00    +0.000 N 
ATOM      4  N   UNL     1       1.434   6.339  21.124  0.00  0.00    +0.000 NA
ATOM      5  C   UNL     1       1.532   7.518  20.493  0.00  0.00    +0.000 A 
ATOM      6  N   UNL     1       2.302   7.730  19.418  0.00  0.00    +0.000 NA
ATOM      7  C   UNL     1       3.095   6.714  19.040  0.00  0.00    +0.000 A 
ATOM      8 CL   UNL     1       3.852   7.058  17.528  0.00  0.00    +0.000 Cl
ATOM      9  H   UNL     1       2.842   3.609  21.553  0.00  0.00    +0.000 HD
ATOM     10  H   UNL     1       1.303   4.185  22.002  0.00  0.00    +0.000 HD
ENDROOT
BRANCH   5  11
ATOM     11  C   UNL     1       0.764   8.669  21.000  0.00  0.00    +0.000 A 
ATOM     12  C   UNL     1       0.307   9.702  20.163  0.00  0.00    +0.000 A 
ATOM     13  C   UNL     1      -0.417  10.791  20.670  0.00  0.00    +0.000 A 
ATOM     14  C   UNL     1      -0.708  10.875  22.035  0.00  0.00    +0.000 A 
ATOM     15  C   UNL     1      -1.456  12.040  22.609  0.00  0.00    +0.000 C 
ATOM     16  C   UNL     1      -0.276   9.855  22.882  0.00  0.00    +0.000 A 
ATOM     17  C   UNL     1       0.450   8.773  22.369  0.00  0.00    +0.000 A 
ENDBRANCH   5  11
BRANCH   1  18
ATOM     18  O   UNL     1       4.052   4.475  19.469  0.00  0.00    +0.000 OA
BRANCH  18  24
ATOM     19  C   UNL     1       4.322   3.924  17.045  0.00  0.00    +0.000 A 
ATOM     20  C   UNL     1       5.243   3.839  15.990  0.00  0.00    +0.000 A 
ATOM     21  C   UNL     1       6.564   4.264  16.153  0.00  0.00    +0.000 A 
ATOM     22  C   UNL     1       6.980   4.802  17.364  0.00  0.00    +0.000 A 
ATOM     23  C   UNL     1       6.087   4.864  18.430  0.00  0.00    +0.000 A 
ATOM     24  C   UNL     1       4.776   4.385  18.297  0.00  0.00    +0.000 A 
BRANCH  19  26
ATOM     25  C   UNL     1       2.596   2.346  17.554  0.00  0.00    +0.000 C 
ATOM     26  O   UNL     1       3.004   3.563  16.933  0.00  0.00    +0.000 OA
ENDBRANCH  19  26
ENDBRANCH  18  24
ENDBRANCH   1  18
TORSDOF 4
ENDMDL
MODEL 8
REMARK VINA RESULT:      -7.6      1.866      2.366
REMARK  Name = 
REMARK  6 active torsions:
REMARK  status: ('A' for Active; 'I' for Inactive)
REMARK    1  A    between atoms: C_1  and  O_2
REMARK    2  A    between atoms: O_2  and  C_3
REMARK    3  A    between atoms: C_8  and  O_9
REMARK    4  A    between atoms: O_9  and  C_10
REMARK    5  A    between atoms: C_14  and  C_15
REMARK    6  A    between atoms: C_18  and  C_19
REMARK                            x       y       z     vdW  Elec       q    Type
REMARK                         _______ _______ _______ _____ _____    ______ ____
ROOT
ATOM      1  C   UNL     1       4.503   4.581  17.909  0.00  0.00    +0.000 A 
ATOM      2  C   UNL     1       4.935   5.379  18.961  0.00  0.00    +0.000 A 
ATOM      3  N   UNL     1       6.192   5.187  19.547  0.00  0.00    +0.000 N 
ATOM      4  N   UNL     1       4.153   6.292  19.565  0.00  0.00    +0.000 NA
ATOM      5  C   UNL     1       2.884   6.386  19.142  0.00  0.00    +0.000 A 
ATOM      6  N   UNL     1       2.329   5.556  18.250  0.00  0.00    +0.000 NA
ATOM      7  C   UNL     1       3.147   4.656  17.680  0.00  0.00    +0.000 A 
ATOM      8 CL   UNL     1       2.250   3.529  16.730  0.00  0.00    +0.000 Cl
ATOM      9  H   UNL     1       6.941   5.127  18.867  0.00  0.00    +0.000 HD
ATOM     10  H   UNL     1       6.337   5.887  20.267  0.00  0.00    +0.000 HD
ENDROOT
BRANCH   5  11
ATOM     11  C   UNL     1       2.030   7.467  19.669  0.00  0.00    +0.000 A 
ATOM     12  C   UNL     1       1.461   7.423  20.954  0.00  0.00    +0.000 A 
ATOM     13  C   UNL     1       0.646   8.460  21.431  0.00  0.00    +0.000 A 
ATOM     14  C   UNL     1       0.379   9.576  20.632  0.00  0.00    +0.000 A 
ATOM     15  C   UNL     1      -0.509  10.688  21.104  0.00  0.00    +0.000 C 
ATOM     16  C   UNL     1       0.945   9.647  19.359  0.00  0.00    +0.000 A 
ATOM     17  C   UNL     1       1.754   8.605  18.888  0.00  0.00    +0.000 A 
ENDBRANCH   5  11
BRANCH   1  18
ATOM     18  O   UNL     1       5.427   3.774  17.306  0.00  0.00    +0.000 OA
BRANCH  18  24
ATOM     19  C   UNL     1       7.074   5.014  15.891  0.00  0.00    +0.000 A 
ATOM     20  C   UNL     1       7.474   5.278  14.573  0.00  0.00    +0.000 A 
ATOM     21  C   UNL     1       6.883   4.613  13.495  0.00  0.00    +0.000 A 
ATOM     22  C   UNL     1       5.900   3.658  13.718  0.00  0.00    +0.000 A 
ATOM     23  C   UNL     1       5.469   3.407  15.018  0.00  0.00    +0.000 A 
ATOM     24  C   UNL     1       6.012   4.111  16.103  0.00  0.00    +0.000 A 
BRANCH  19  26
ATOM     25  C   UNL     1       7.511   7.016  17.128  0.00  0.00    +0.000 C 
ATOM     26  O   UNL     1       7.644   5.603  16.990  0.00  0.00    +0.000 OA
ENDBRANCH  19  26
ENDBRANCH  18  24
ENDBRANCH   1  18
TORSDOF 4
ENDMDL
MODEL 9
REMARK VINA RESULT:      -7.5      3.594      8.427
REMARK  Name = 
REMARK  6 active torsions:
REMARK  status: ('A' for Active; 'I' for Inactive)
REMARK    1  A    between atoms: C_1  and  O_2
REMARK    2  A    between atoms: O_2  and  C_3
REMARK    3  A    between atoms: C_8  and  O_9
REMARK    4  A    between atoms: O_9  and  C_10
REMARK    5  A    between atoms: C_14  and  C_15
REMARK    6  A    between atoms: C_18  and  C_19
REMARK                            x       y       z     vdW  Elec       q    Type
REMARK                         _______ _______ _______ _____ _____    ______ ____
ROOT
ATOM      1  C   UNL     1       0.940   9.991  20.192  0.00  0.00    +0.000 A 
ATOM      2  C   UNL     1       1.482   9.476  19.021  0.00  0.00    +0.000 A 
ATOM      3  N   UNL     1       1.467  10.215  17.832  0.00  0.00    +0.000 N 
ATOM      4  N   UNL     1       1.940   8.216  18.909  0.00  0.00    +0.000 NA
ATOM      5  C   UNL     1       1.814   7.423  19.982  0.00  0.00    +0.000 A 
ATOM      6  N   UNL     1       1.164   7.773  21.100  0.00  0.00    +0.000 NA
ATOM      7  C   UNL     1       0.718   9.038  21.162  0.00  0.00    +0.000 A 
ATOM      8 CL   UNL     1      -0.279   9.268  22.551  0.00  0.00    +0.000 Cl
ATOM      9  H   UNL     1       1.806  11.162  17.949  0.00  0.00    +0.000 HD
ATOM     10  H   UNL     1       1.939   9.688  17.103  0.00  0.00    +0.000 HD
ENDROOT
BRANCH   5  11
ATOM     11  C   UNL     1       2.429   6.083  19.961  0.00  0.00    +0.000 A 
ATOM     12  C   UNL     1       1.886   4.990  20.659  0.00  0.00    +0.000 A 
ATOM     13  C   UNL     1       2.493   3.726  20.628  0.00  0.00    +0.000 A 
ATOM     14  C   UNL     1       3.664   3.519  19.892  0.00  0.00    +0.000 A 
ATOM     15  C   UNL     1       4.350   2.187  19.862  0.00  0.00    +0.000 C 
ATOM     16  C   UNL     1       4.212   4.586  19.180  0.00  0.00    +0.000 A 
ATOM     17  C   UNL     1       3.604   5.847  19.220  0.00  0.00    +0.000 A 
ENDBRANCH   5  11
BRANCH   1  18
ATOM     18  O   UNL     1       0.618  11.318  20.211  0.00  0.00    +0.000 OA
BRANCH  18  24
ATOM     19  C   UNL     1      -1.672  11.663  19.267  0.00  0.00    +0.000 A 
ATOM     20  C   UNL     1      -2.931  12.233  19.508  0.00  0.00    +0.000 A 
ATOM     21  C   UNL     1      -3.235  12.811  20.744  0.00  0.00    +0.000 A 
ATOM     22  C   UNL     1      -2.293  12.808  21.766  0.00  0.00    +0.000 A 
ATOM     23  C   UNL     1      -1.029  12.276  21.532  0.00  0.00    +0.000 A 
ATOM     24  C   UNL     1      -0.692  11.748  20.277  0.00  0.00    +0.000 A 
BRANCH  19  26
ATOM     25  C   UNL     1      -2.193  10.020  17.607  0.00  0.00    +0.000 C 
ATOM     26  O   UNL     1      -1.331  11.047  18.092  0.00  0.00    +0.000 OA
ENDBRANCH  19  26
ENDBRANCH  18  24
ENDBRANCH   1  18
TORSDOF 4
ENDMDL
