MODEL 1
REMARK VINA RESULT:      -7.6      0.000      0.000
REMARK  Name = 
REMARK  9 active torsions:
REMARK  status: ('A' for Active; 'I' for Inactive)
REMARK    1  A    between atoms: C_1  and  O_2
REMARK    2  A    between atoms: O_2  and  C_3
REMARK    3  A    between atoms: C_3  and  C_5
REMARK    4  A    between atoms: C_6  and  N_7
REMARK    5  A    between atoms: N_7  and  N_8
REMARK    6  A    between atoms: N_7  and  S_16
REMARK    7  A    between atoms: C_9  and  C_10
REMARK    8  A    between atoms: S_16  and  C_19
REMARK    9  A    between atoms: C_22  and  C_23
REMARK                            x       y       z     vdW  Elec       q    Type
REMARK                         _______ _______ _______ _____ _____    ______ ____
ROOT
ATOM      1  N   UNL     1       4.240   4.047  17.296  0.00  0.00    +0.000 N 
ENDROOT
BRANCH   1   2
ATOM      2  S   UNL     1       4.890   5.004  18.604  0.00  0.00    +0.000 S 
ATOM      3  O   UNL     1       4.767   4.230  19.845  0.00  0.00    +0.000 OA
ATOM      4  O   UNL     1       6.163   5.580  18.239  0.00  0.00    +0.000 OA
BRANCH   2   5
ATOM      5  C   UNL     1       3.712   6.338  18.699  0.00  0.00    +0.000 A 
ATOM      6  C   UNL     1       3.591   7.258  17.654  0.00  0.00    +0.000 A 
ATOM      7  C   UNL     1       2.667   8.305  17.745  0.00  0.00    +0.000 A 
ATOM      8  C   UNL     1       1.853   8.440  18.877  0.00  0.00    +0.000 A 
ATOM      9  C   UNL     1       0.891   9.588  19.011  0.00  0.00    +0.000 C 
ATOM     10  C   UNL     1       1.958   7.490  19.902  0.00  0.00    +0.000 A 
ATOM     11  C   UNL     1       2.879   6.437  19.817  0.00  0.00    +0.000 A 
ENDBRANCH   2   5
ENDBRANCH   1   2
BRANCH   1  13
ATOM     12  C   UNL     1       2.481   2.600  18.109  0.00  0.00    +0.000 C 
ATOM     13  C   UNL     1       3.736   2.763  17.667  0.00  0.00    +0.000 C 
BRANCH  12  14
ATOM     14  C   UNL     1       1.342   3.540  18.247  0.00  0.00    +0.000 C 
ATOM     15  O   UNL     1       0.877   4.134  17.279  0.00  0.00    +0.000 OA
BRANCH  14  17
ATOM     16  C   UNL     1       1.472   2.691  20.456  0.00  0.00    +0.000 C 
ATOM     17  O   UNL     1       0.908   3.605  19.519  0.00  0.00    +0.000 OA
ENDBRANCH  14  17
ENDBRANCH  12  14
ENDBRANCH   1  13
BRANCH   1  18
ATOM     18  N   UNL     1       4.672   4.393  15.945  0.00  0.00    +0.000 NA
ATOM     19  C   UNL     1       5.754   3.819  15.531  0.00  0.00    +0.000 C 
BRANCH  19  20
ATOM     20  C   UNL     1       6.384   4.079  14.223  0.00  0.00    +0.000 C 
ATOM     21  C   UNL     1       7.409   4.951  14.233  0.00  0.00    +0.000 C 
ATOM     22  C   UNL     1       8.077   5.431  12.982  0.00  0.00    +0.000 C 
ATOM     23  C   UNL     1       7.380   4.972  11.700  0.00  0.00    +0.000 C 
ATOM     24  C   UNL     1       6.829   3.552  11.824  0.00  0.00    +0.000 C 
ATOM     25  C   UNL     1       5.831   3.453  12.981  0.00  0.00    +0.000 C 
ENDBRANCH  19  20
ENDBRANCH   1  18
TORSDOF 7
ENDMDL
MODEL 2
REMARK VINA RESULT:      -7.6      0.754      1.216
REMARK  Name = 
REMARK  9 active torsions:
REMARK  status: ('A' for Active; 'I' for Inactive)
REMARK    1  A    between atoms: C_1  and  O_2
REMARK    2  A    between atoms: O_2  and  C_3
REMARK    3  A    between atoms: C_3  and  C_5
REMARK    4  A    between atoms: C_6  and  N_7
REMARK    5  A    between atoms: N_7  and  N_8
REMARK    6  A    between atoms: N_7  and  S_16
REMARK    7  A    between atoms: C_9  and  C_10
REMARK    8  A    between atoms: S_16  and  C_19
REMARK    9  A    between atoms: C_22  and  C_23
REMARK                            x       y       z     vdW  Elec       q    Type
REMARK                         _______ _______ _______ _____ _____    ______ ____
ROOT
ATOM      1  N   UNL     1       4.693   3.552  17.720  0.00  0.00    +0.000 N 
ENDROOT
BRANCH   1   2
ATOM      2  S   UNL     1       4.808   4.413  19.235  0.00  0.00    +0.000 S 
ATOM      3  O   UNL     1       4.100   3.636  20.259  0.00  0.00    +0.000 OA
ATOM      4  O   UNL     1       6.162   4.855  19.476  0.00  0.00    +0.000 OA
BRANCH   2   5
ATOM      5  C   UNL     1       3.826   5.863  18.905  0.00  0.00    +0.000 A 
ATOM      6  C   UNL     1       2.856   6.288  19.817  0.00  0.00    +0.000 A 
ATOM      7  C   UNL     1       2.086   7.424  19.541  0.00  0.00    +0.000 A 
ATOM      8  C   UNL     1       2.281   8.146  18.356  0.00  0.00    +0.000 A 
ATOM      9  C   UNL     1       1.428   9.339  18.023  0.00  0.00    +0.000 C 
ATOM     10  C   UNL     1       3.281   7.731  17.468  0.00  0.00    +0.000 A 
ATOM     11  C   UNL     1       4.058   6.596  17.738  0.00  0.00    +0.000 A 
ENDBRANCH   2   5
ENDBRANCH   1   2
BRANCH   1  13
ATOM     12  C   UNL     1       2.745   2.134  17.921  0.00  0.00    +0.000 C 
ATOM     13  C   UNL     1       4.072   2.268  17.788  0.00  0.00    +0.000 C 
BRANCH  12  14
ATOM     14  C   UNL     1       1.639   3.122  17.940  0.00  0.00    +0.000 C 
ATOM     15  O   UNL     1       1.614   4.075  17.165  0.00  0.00    +0.000 OA
BRANCH  14  17
ATOM     16  C   UNL     1       0.750   3.504  20.102  0.00  0.00    +0.000 C 
ATOM     17  O   UNL     1       0.712   2.806  18.861  0.00  0.00    +0.000 OA
ENDBRANCH  14  17
ENDBRANCH  12  14
ENDBRANCH   1  13
BRANCH   1  18
ATOM     18  N   UNL     1       5.610   3.958  16.658  0.00  0.00    +0.000 NA
ATOM     19  C   UNL     1       5.215   3.728  15.449  0.00  0.00    +0.000 C 
BRANCH  19  20
ATOM     20  C   UNL     1       6.019   4.010  14.244  0.00  0.00    +0.000 C 
ATOM     21  C   UNL     1       7.053   4.851  14.417  0.00  0.00    +0.000 C 
ATOM     22  C   UNL     1       7.892   5.350  13.281  0.00  0.00    +0.000 C 
ATOM     23  C   UNL     1       7.359   4.949  11.904  0.00  0.00    +0.000 C 
ATOM     24  C   UNL     1       6.763   3.542  11.907  0.00  0.00    +0.000 C 
ATOM     25  C   UNL     1       5.619   3.436  12.920  0.00  0.00    +0.000 C 
ENDBRANCH  19  20
ENDBRANCH   1  18
TORSDOF 7
ENDMDL
MODEL 3
REMARK VINA RESULT:      -7.4      0.414      1.450
REMARK  Name = 
REMARK  9 active torsions:
REMARK  status: ('A' for Active; 'I' for Inactive)
REMARK    1  A    between atoms: C_1  and  O_2
REMARK    2  A    between atoms: O_2  and  C_3
REMARK    3  A    between atoms: C_3  and  C_5
REMARK    4  A    between atoms: C_6  and  N_7
REMARK    5  A    between atoms: N_7  and  N_8
REMARK    6  A    between atoms: N_7  and  S_16
REMARK    7  A    between atoms: C_9  and  C_10
REMARK    8  A    between atoms: S_16  and  C_19
REMARK    9  A    between atoms: C_22  and  C_23
REMARK                            x       y       z     vdW  Elec       q    Type
REMARK                         _______ _______ _______ _____ _____    ______ ____
ROOT
ATOM      1  N   UNL     1       4.200   4.025  17.564  0.00  0.00    +0.000 N 
ENDROOT
BRANCH   1   2
ATOM      2  S   UNL     1       4.826   5.100  18.790  0.00  0.00    +0.000 S 
ATOM      3  O   UNL     1       4.676   4.445  20.095  0.00  0.00    +0.000 OA
ATOM      4  O   UNL     1       6.107   5.639  18.399  0.00  0.00    +0.000 OA
BRANCH   2   5
ATOM      5  C   UNL     1       3.648   6.437  18.736  0.00  0.00    +0.000 A 
ATOM      6  C   UNL     1       2.720   6.611  19.767  0.00  0.00    +0.000 A 
ATOM      7  C   UNL     1       1.796   7.660  19.707  0.00  0.00    +0.000 A 
ATOM      8  C   UNL     1       1.793   8.546  18.621  0.00  0.00    +0.000 A 
ATOM      9  C   UNL     1       0.774   9.647  18.519  0.00  0.00    +0.000 C 
ATOM     10  C   UNL     1       2.751   8.383  17.613  0.00  0.00    +0.000 A 
ATOM     11  C   UNL     1       3.682   7.336  17.666  0.00  0.00    +0.000 A 
ENDBRANCH   2   5
ENDBRANCH   1   2
BRANCH   1  13
ATOM     12  C   UNL     1       2.580   2.446  18.418  0.00  0.00    +0.000 C 
ATOM     13  C   UNL     1       3.830   2.723  18.020  0.00  0.00    +0.000 C 
BRANCH  12  14
ATOM     14  C   UNL     1       1.334   3.248  18.424  0.00  0.00    +0.000 C 
ATOM     15  O   UNL     1       1.030   3.971  17.479  0.00  0.00    +0.000 OA
BRANCH  14  17
ATOM     16  C   UNL     1       1.289   3.211  20.793  0.00  0.00    +0.000 C 
ATOM     17  O   UNL     1       0.621   3.043  19.546  0.00  0.00    +0.000 OA
ENDBRANCH  14  17
ENDBRANCH  12  14
ENDBRANCH   1  13
BRANCH   1  18
ATOM     18  N   UNL     1       4.535   4.337  16.178  0.00  0.00    +0.000 NA
ATOM     19  C   UNL     1       5.620   3.802  15.722  0.00  0.00    +0.000 C 
BRANCH  19  20
ATOM     20  C   UNL     1       6.159   4.040  14.369  0.00  0.00    +0.000 C 
ATOM     21  C   UNL     1       5.494   3.447  13.363  0.00  0.00    +0.000 C 
ATOM     22  C   UNL     1       5.976   3.472  11.945  0.00  0.00    +0.000 C 
ATOM     23  C   UNL     1       7.368   4.085  11.782  0.00  0.00    +0.000 C 
ATOM     24  C   UNL     1       7.590   5.264  12.729  0.00  0.00    +0.000 C 
ATOM     25  C   UNL     1       7.418   4.832  14.188  0.00  0.00    +0.000 C 
ENDBRANCH  19  20
ENDBRANCH   1  18
TORSDOF 7
ENDMDL
MODEL 4
REMARK VINA RESULT:      -7.2      1.491      6.177
REMARK  Name = 
REMARK  9 active torsions:
REMARK  status: ('A' for Active; 'I' for Inactive)
REMARK    1  A    between atoms: C_1  and  O_2
REMARK    2  A    between atoms: O_2  and  C_3
REMARK    3  A    between atoms: C_3  and  C_5
REMARK    4  A    between atoms: C_6  and  N_7
REMARK    5  A    between atoms: N_7  and  N_8
REMARK    6  A    between atoms: N_7  and  S_16
REMARK    7  A    between atoms: C_9  and  C_10
REMARK    8  A    between atoms: S_16  and  C_19
REMARK    9  A    between atoms: C_22  and  C_23
REMARK                            x       y       z     vdW  Elec       q    Type
REMARK                         _______ _______ _______ _____ _____    ______ ____
ROOT
ATOM      1  N   UNL     1       3.319   4.745  18.503  0.00  0.00    +0.000 N 
ENDROOT
BRANCH   1   2
ATOM      2  S   UNL     1       4.998   4.407  18.846  0.00  0.00    +0.000 S 
ATOM      3  O   UNL     1       5.527   5.498  19.672  0.00  0.00    +0.000 OA
ATOM      4  O   UNL     1       5.173   3.036  19.267  0.00  0.00    +0.000 OA
BRANCH   2   5
ATOM      5  C   UNL     1       5.737   4.566  17.232  0.00  0.00    +0.000 A 
ATOM      6  C   UNL     1       6.716   5.533  16.989  0.00  0.00    +0.000 A 
ATOM      7  C   UNL     1       7.283   5.653  15.715  0.00  0.00    +0.000 A 
ATOM      8  C   UNL     1       6.880   4.805  14.674  0.00  0.00    +0.000 A 
ATOM      9  C   UNL     1       7.443   4.954  13.288  0.00  0.00    +0.000 C 
ATOM     10  C   UNL     1       5.924   3.815  14.940  0.00  0.00    +0.000 A 
ATOM     11  C   UNL     1       5.354   3.688  16.214  0.00  0.00    +0.000 A 
ENDBRANCH   2   5
ENDBRANCH   1   2
BRANCH   1  13
ATOM     12  C   UNL     1       1.617   3.056  18.813  0.00  0.00    +0.000 C 
ATOM     13  C   UNL     1       2.550   3.632  18.043  0.00  0.00    +0.000 C 
BRANCH  12  14
ATOM     14  C   UNL     1       1.085   3.390  20.156  0.00  0.00    +0.000 C 
ATOM     15  O   UNL     1       0.428   4.409  20.352  0.00  0.00    +0.000 OA
BRANCH  14  17
ATOM     16  C   UNL     1       2.677   2.497  21.666  0.00  0.00    +0.000 C 
ATOM     17  O   UNL     1       1.390   2.440  21.058  0.00  0.00    +0.000 OA
ENDBRANCH  14  17
ENDBRANCH  12  14
ENDBRANCH   1  13
BRANCH   1  18
ATOM     18  N   UNL     1       2.963   6.139  18.256  0.00  0.00    +0.000 NA
ATOM     19  C   UNL     1       2.388   6.759  19.234  0.00  0.00    +0.000 C 
BRANCH  19  20
ATOM     20  C   UNL     1       1.899   8.150  19.163  0.00  0.00    +0.000 C 
ATOM     21  C   UNL     1       2.190   8.813  18.031  0.00  0.00    +0.000 C 
ATOM     22  C   UNL     1       1.889  10.268  17.843  0.00  0.00    +0.000 C 
ATOM     23  C   UNL     1       1.380  10.957  19.110  0.00  0.00    +0.000 C 
ATOM     24  C   UNL     1       0.468  10.046  19.931  0.00  0.00    +0.000 C 
ATOM     25  C   UNL     1       1.200   8.764  20.337  0.00  0.00    +0.000 C 
ENDBRANCH  19  20
ENDBRANCH   1  18
TORSDOF 7
ENDMDL
MODEL 5
REMARK VINA RESULT:      -7.1      2.894      5.840
REMARK  Name = 
REMARK  9 active torsions:
REMARK  status: ('A' for Active; 'I' for Inactive)
REMARK    1  A    between atoms: C_1  and  O_2
REMARK    2  A    between atoms: O_2  and  C_3
REMARK    3  A    between atoms: C_3  and  C_5
REMARK    4  A    between atoms: C_6  and  N_7
REMARK    5  A    between atoms: N_7  and  N_8
REMARK    6  A    between atoms: N_7  and  S_16
REMARK    7  A    between atoms: C_9  and  C_10
REMARK    8  A    between atoms: S_16  and  C_19
REMARK    9  A    between atoms: C_22  and  C_23
REMARK                            x       y       z     vdW  Elec       q    Type
REMARK                         _______ _______ _______ _____ _____    ______ ____
ROOT
ATOM      1  N   UNL     1       4.407   4.513  17.729  0.00  0.00    +0.000 N 
ENDROOT
BRANCH   1   2
ATOM      2  S   UNL     1       5.592   4.816  16.482  0.00  0.00    +0.000 S 
ATOM      3  O   UNL     1       6.458   3.636  16.375  0.00  0.00    +0.000 OA
ATOM      4  O   UNL     1       4.967   5.359  15.298  0.00  0.00    +0.000 OA
BRANCH   2   5
ATOM      5  C   UNL     1       6.565   6.117  17.214  0.00  0.00    +0.000 A 
ATOM      6  C   UNL     1       6.394   7.446  16.815  0.00  0.00    +0.000 A 
ATOM      7  C   UNL     1       7.170   8.456  17.393  0.00  0.00    +0.000 A 
ATOM      8  C   UNL     1       8.120   8.150  18.376  0.00  0.00    +0.000 A 
ATOM      9  C   UNL     1       8.997   9.218  18.970  0.00  0.00    +0.000 C 
ATOM     10  C   UNL     1       8.257   6.820  18.794  0.00  0.00    +0.000 A 
ATOM     11  C   UNL     1       7.481   5.802  18.221  0.00  0.00    +0.000 A 
ENDBRANCH   2   5
ENDBRANCH   1   2
BRANCH   1  13
ATOM     12  C   UNL     1       3.576   2.431  18.635  0.00  0.00    +0.000 C 
ATOM     13  C   UNL     1       3.689   3.284  17.608  0.00  0.00    +0.000 C 
BRANCH  12  14
ATOM     14  C   UNL     1       4.011   2.510  20.051  0.00  0.00    +0.000 C 
ATOM     15  O   UNL     1       5.037   1.961  20.440  0.00  0.00    +0.000 OA
BRANCH  14  17
ATOM     16  C   UNL     1       2.074   2.604  21.412  0.00  0.00    +0.000 C 
ATOM     17  O   UNL     1       3.169   3.262  20.783  0.00  0.00    +0.000 OA
ENDBRANCH  14  17
ENDBRANCH  12  14
ENDBRANCH   1  13
BRANCH   1  18
ATOM     18  N   UNL     1       3.920   5.671  18.473  0.00  0.00    +0.000 NA
ATOM     19  C   UNL     1       2.848   6.230  18.015  0.00  0.00    +0.000 C 
BRANCH  19  20
ATOM     20  C   UNL     1       2.233   7.442  18.589  0.00  0.00    +0.000 C 
ATOM     21  C   UNL     1       1.970   8.431  17.717  0.00  0.00    +0.000 C 
ATOM     22  C   UNL     1       1.471   9.777  18.143  0.00  0.00    +0.000 C 
ATOM     23  C   UNL     1       1.451   9.971  19.661  0.00  0.00    +0.000 C 
ATOM     24  C   UNL     1       1.049   8.693  20.397  0.00  0.00    +0.000 C 
ATOM     25  C   UNL     1       2.010   7.548  20.066  0.00  0.00    +0.000 C 
ENDBRANCH  19  20
ENDBRANCH   1  18
TORSDOF 7
ENDMDL
MODEL 6
REMARK VINA RESULT:      -7.0      1.605      6.324
REMARK  Name = 
REMARK  9 active torsions:
REMARK  status: ('A' for Active; 'I' for Inactive)
REMARK    1  A    between atoms: C_1  and  O_2
REMARK    2  A    between atoms: O_2  and  C_3
REMARK    3  A    between atoms: C_3  and  C_5
REMARK    4  A    between atoms: C_6  and  N_7
REMARK    5  A    between atoms: N_7  and  N_8
REMARK    6  A    between atoms: N_7  and  S_16
REMARK    7  A    between atoms: C_9  and  C_10
REMARK    8  A    between atoms: S_16  and  C_19
REMARK    9  A    between atoms: C_22  and  C_23
REMARK                            x       y       z     vdW  Elec       q    Type
REMARK                         _______ _______ _______ _____ _____    ______ ____
ROOT
ATOM      1  N   UNL     1       3.144   5.049  18.733  0.00  0.00    +0.000 N 
ENDROOT
BRANCH   1   2
ATOM      2  S   UNL     1       4.844   4.687  18.910  0.00  0.00    +0.000 S 
ATOM      3  O   UNL     1       5.487   5.820  19.585  0.00  0.00    +0.000 OA
ATOM      4  O   UNL     1       5.036   3.347  19.412  0.00  0.00    +0.000 OA
BRANCH   2   5
ATOM      5  C   UNL     1       5.397   4.704  17.215  0.00  0.00    +0.000 A 
ATOM      6  C   UNL     1       5.775   3.518  16.578  0.00  0.00    +0.000 A 
ATOM      7  C   UNL     1       6.214   3.547  15.250  0.00  0.00    +0.000 A 
ATOM      8  C   UNL     1       6.276   4.757  14.546  0.00  0.00    +0.000 A 
ATOM      9  C   UNL     1       6.793   4.810  13.134  0.00  0.00    +0.000 C 
ATOM     10  C   UNL     1       5.859   5.932  15.184  0.00  0.00    +0.000 A 
ATOM     11  C   UNL     1       5.416   5.912  16.513  0.00  0.00    +0.000 A 
ENDBRANCH   2   5
ENDBRANCH   1   2
BRANCH   1  13
ATOM     12  C   UNL     1       1.938   3.170  17.806  0.00  0.00    +0.000 C 
ATOM     13  C   UNL     1       2.484   4.384  17.655  0.00  0.00    +0.000 C 
BRANCH  12  14
ATOM     14  C   UNL     1       1.776   2.288  18.987  0.00  0.00    +0.000 C 
ATOM     15  O   UNL     1       2.432   1.258  19.115  0.00  0.00    +0.000 OA
BRANCH  14  17
ATOM     16  C   UNL     1       1.302   2.997  21.197  0.00  0.00    +0.000 C 
ATOM     17  O   UNL     1       0.877   2.786  19.854  0.00  0.00    +0.000 OA
ENDBRANCH  14  17
ENDBRANCH  12  14
ENDBRANCH   1  13
BRANCH   1  18
ATOM     18  N   UNL     1       2.665   6.286  19.343  0.00  0.00    +0.000 NA
ATOM     19  C   UNL     1       2.270   7.206  18.525  0.00  0.00    +0.000 C 
BRANCH  19  20
ATOM     20  C   UNL     1       1.807   8.544  18.940  0.00  0.00    +0.000 C 
ATOM     21  C   UNL     1       1.407   8.652  20.219  0.00  0.00    +0.000 C 
ATOM     22  C   UNL     1       0.785   9.896  20.772  0.00  0.00    +0.000 C 
ATOM     23  C   UNL     1       0.497  10.961  19.712  0.00  0.00    +0.000 C 
ATOM     24  C   UNL     1       1.587  11.013  18.642  0.00  0.00    +0.000 C 
ATOM     25  C   UNL     1       1.730   9.658  17.943  0.00  0.00    +0.000 C 
ENDBRANCH  19  20
ENDBRANCH   1  18
TORSDOF 7
ENDMDL
MODEL 7
REMARK VINA RESULT:      -7.0      1.876      3.765
REMARK  Name = 
REMARK  9 active torsions:
REMARK  status: ('A' for Active; 'I' for Inactive)
REMARK    1  A    between atoms: C_1  and  O_2
REMARK    2  A    between atoms: O_2  and  C_3
REMARK    3  A    between atoms: C_3  and  C_5
REMARK    4  A    between atoms: C_6  and  N_7
REMARK    5  A    between atoms: N_7  and  N_8
REMARK    6  A    between atoms: N_7  and  S_16
REMARK    7  A    between atoms: C_9  and  C_10
REMARK    8  A    between atoms: S_16  and  C_19
REMARK    9  A    between atoms: C_22  and  C_23
REMARK                            x       y       z     vdW  Elec       q    Type
REMARK                         _______ _______ _______ _____ _____    ______ ____
ROOT
ATOM      1  N   UNL     1       4.795   3.885  17.976  0.00  0.00    +0.000 N 
ENDROOT
BRANCH   1   2
ATOM      2  S   UNL     1       3.066   3.642  18.022  0.00  0.00    +0.000 S 
ATOM      3  O   UNL     1       2.557   3.703  16.647  0.00  0.00    +0.000 OA
ATOM      4  O   UNL     1       2.726   2.520  18.866  0.00  0.00    +0.000 OA
BRANCH   2   5
ATOM      5  C   UNL     1       2.514   5.119  18.853  0.00  0.00    +0.000 A 
ATOM      6  C   UNL     1       2.558   6.358  18.208  0.00  0.00    +0.000 A 
ATOM      7  C   UNL     1       2.129   7.510  18.875  0.00  0.00    +0.000 A 
ATOM      8  C   UNL     1       1.647   7.435  20.189  0.00  0.00    +0.000 A 
ATOM      9  C   UNL     1       1.229   8.672  20.936  0.00  0.00    +0.000 C 
ATOM     10  C   UNL     1       1.574   6.183  20.811  0.00  0.00    +0.000 A 
ATOM     11  C   UNL     1       2.000   5.023  20.149  0.00  0.00    +0.000 A 
ENDBRANCH   2   5
ENDBRANCH   1   2
BRANCH   1  13
ATOM     12  C   UNL     1       6.573   5.223  18.924  0.00  0.00    +0.000 C 
ATOM     13  C   UNL     1       5.321   4.747  18.986  0.00  0.00    +0.000 C 
BRANCH  12  14
ATOM     14  C   UNL     1       7.633   5.109  17.894  0.00  0.00    +0.000 C 
ATOM     15  O   UNL     1       8.348   4.113  17.814  0.00  0.00    +0.000 OA
BRANCH  14  17
ATOM     16  C   UNL     1       7.706   7.470  17.715  0.00  0.00    +0.000 C 
ATOM     17  O   UNL     1       7.661   6.189  17.093  0.00  0.00    +0.000 OA
ENDBRANCH  14  17
ENDBRANCH  12  14
ENDBRANCH   1  13
BRANCH   1  18
ATOM     18  N   UNL     1       5.468   3.610  16.709  0.00  0.00    +0.000 NA
ATOM     19  C   UNL     1       5.240   4.449  15.752  0.00  0.00    +0.000 C 
BRANCH  19  20
ATOM     20  C   UNL     1       5.777   4.315  14.384  0.00  0.00    +0.000 C 
ATOM     21  C   UNL     1       4.976   3.691  13.502  0.00  0.00    +0.000 C 
ATOM     22  C   UNL     1       5.411   3.351  12.111  0.00  0.00    +0.000 C 
ATOM     23  C   UNL     1       6.893   3.627  11.847  0.00  0.00    +0.000 C 
ATOM     24  C   UNL     1       7.376   4.892  12.556  0.00  0.00    +0.000 C 
ATOM     25  C   UNL     1       7.163   4.785  14.068  0.00  0.00    +0.000 C 
ENDBRANCH  19  20
ENDBRANCH   1  18
TORSDOF 7
ENDMDL
MODEL 8
REMARK VINA RESULT:      -6.9      1.531      6.183
REMARK  Name = 
REMARK  9 active torsions:
REMARK  status: ('A' for Active; 'I' for Inactive)
REMARK    1  A    between atoms: C_1  and  O_2
REMARK    2  A    between atoms: O_2  and  C_3
REMARK    3  A    between atoms: C_3  and  C_5
REMARK    4  A    between atoms: C_6  and  N_7
REMARK    5  A    between atoms: N_7  and  N_8
REMARK    6  A    between atoms: N_7  and  S_16
REMARK    7  A    between atoms: C_9  and  C_10
REMARK    8  A    between atoms: S_16  and  C_19
REMARK    9  A    between atoms: C_22  and  C_23
REMARK                            x       y       z     vdW  Elec       q    Type
REMARK                         _______ _______ _______ _____ _____    ______ ____
ROOT
ATOM      1  N   UNL     1       3.503   4.769  18.740  0.00  0.00    +0.000 N 
ENDROOT
BRANCH   1   2
ATOM      2  S   UNL     1       5.215   4.479  18.928  0.00  0.00    +0.000 S 
ATOM      3  O   UNL     1       5.807   5.642  19.600  0.00  0.00    +0.000 OA
ATOM      4  O   UNL     1       5.461   3.151  19.440  0.00  0.00    +0.000 OA
BRANCH   2   5
ATOM      5  C   UNL     1       5.777   4.509  17.237  0.00  0.00    +0.000 A 
ATOM      6  C   UNL     1       7.049   4.990  16.917  0.00  0.00    +0.000 A 
ATOM      7  C   UNL     1       7.474   5.015  15.584  0.00  0.00    +0.000 A 
ATOM      8  C   UNL     1       6.635   4.556  14.560  0.00  0.00    +0.000 A 
ATOM      9  C   UNL     1       7.058   4.623  13.119  0.00  0.00    +0.000 C 
ATOM     10  C   UNL     1       5.376   4.042  14.898  0.00  0.00    +0.000 A 
ATOM     11  C   UNL     1       4.944   4.011  16.231  0.00  0.00    +0.000 A 
ENDBRANCH   2   5
ENDBRANCH   1   2
BRANCH   1  13
ATOM     12  C   UNL     1       1.748   3.228  19.365  0.00  0.00    +0.000 C 
ATOM     13  C   UNL     1       2.706   3.607  18.508  0.00  0.00    +0.000 C 
BRANCH  12  14
ATOM     14  C   UNL     1       1.213   3.848  20.601  0.00  0.00    +0.000 C 
ATOM     15  O   UNL     1       0.292   4.659  20.567  0.00  0.00    +0.000 OA
BRANCH  14  17
ATOM     16  C   UNL     1       2.686   2.248  21.540  0.00  0.00    +0.000 C 
ATOM     17  O   UNL     1       1.837   3.381  21.697  0.00  0.00    +0.000 OA
ENDBRANCH  14  17
ENDBRANCH  12  14
ENDBRANCH   1  13
BRANCH   1  18
ATOM     18  N   UNL     1       3.099   6.122  18.369  0.00  0.00    +0.000 NA
ATOM     19  C   UNL     1       2.548   6.825  19.303  0.00  0.00    +0.000 C 
BRANCH  19  20
ATOM     20  C   UNL     1       2.019   8.189  19.114  0.00  0.00    +0.000 C 
ATOM     21  C   UNL     1       1.339   8.702  20.155  0.00  0.00    +0.000 C 
ATOM     22  C   UNL     1       0.622  10.014  20.089  0.00  0.00    +0.000 C 
ATOM     23  C   UNL     1       0.597  10.630  18.688  0.00  0.00    +0.000 C 
ATOM     24  C   UNL     1       1.902  10.386  17.932  0.00  0.00    +0.000 C 
ATOM     25  C   UNL     1       2.184   8.887  17.798  0.00  0.00    +0.000 C 
ENDBRANCH  19  20
ENDBRANCH   1  18
TORSDOF 7
ENDMDL
MODEL 9
REMARK VINA RESULT:      -6.9      2.574      6.626
REMARK  Name = 
REMARK  9 active torsions:
REMARK  status: ('A' for Active; 'I' for Inactive)
REMARK    1  A    between atoms: C_1  and  O_2
REMARK    2  A    between atoms: O_2  and  C_3
REMARK    3  A    between atoms: C_3  and  C_5
REMARK    4  A    between atoms: C_6  and  N_7
REMARK    5  A    between atoms: N_7  and  N_8
REMARK    6  A    between atoms: N_7  and  S_16
REMARK    7  A    between atoms: C_9  and  C_10
REMARK    8  A    between atoms: S_16  and  C_19
REMARK    9  A    between atoms: C_22  and  C_23
REMARK                            x       y       z     vdW  Elec       q    Type
REMARK                         _______ _______ _______ _____ _____    ______ ____
ROOT
ATOM      1  N   UNL     1       4.383   4.842  17.631  0.00  0.00    +0.000 N 
ENDROOT
BRANCH   1   2
ATOM      2  S   UNL     1       3.549   3.329  17.373  0.00  0.00    +0.000 S 
ATOM      3  O   UNL     1       2.463   3.560  16.414  0.00  0.00    +0.000 OA
ATOM      4  O   UNL     1       4.488   2.254  17.151  0.00  0.00    +0.000 OA
BRANCH   2   5
ATOM      5  C   UNL     1       2.795   3.055  18.965  0.00  0.00    +0.000 A 
ATOM      6  C   UNL     1       3.556   2.597  20.044  0.00  0.00    +0.000 A 
ATOM      7  C   UNL     1       2.949   2.378  21.286  0.00  0.00    +0.000 A 
ATOM      8  C   UNL     1       1.579   2.619  21.461  0.00  0.00    +0.000 A 
ATOM      9  C   UNL     1       0.903   2.341  22.776  0.00  0.00    +0.000 C 
ATOM     10  C   UNL     1       0.836   3.113  20.382  0.00  0.00    +0.000 A 
ATOM     11  C   UNL     1       1.437   3.336  19.136  0.00  0.00    +0.000 A 
ENDBRANCH   2   5
ENDBRANCH   1   2
BRANCH   1  13
ATOM     12  C   UNL     1       6.761   5.251  17.787  0.00  0.00    +0.000 C 
ATOM     13  C   UNL     1       5.635   4.745  18.310  0.00  0.00    +0.000 C 
BRANCH  12  14
ATOM     14  C   UNL     1       7.023   6.043  16.561  0.00  0.00    +0.000 C 
ATOM     15  O   UNL     1       7.370   5.508  15.512  0.00  0.00    +0.000 OA
BRANCH  14  17
ATOM     16  C   UNL     1       7.721   8.058  17.593  0.00  0.00    +0.000 C 
ATOM     17  O   UNL     1       6.801   7.354  16.764  0.00  0.00    +0.000 OA
ENDBRANCH  14  17
ENDBRANCH  12  14
ENDBRANCH   1  13
BRANCH   1  18
ATOM     18  N   UNL     1       3.576   6.058  17.579  0.00  0.00    +0.000 NA
ATOM     19  C   UNL     1       3.261   6.578  18.720  0.00  0.00    +0.000 C 
BRANCH  19  20
ATOM     20  C   UNL     1       2.406   7.770  18.882  0.00  0.00    +0.000 C 
ATOM     21  C   UNL     1       1.812   7.903  20.081  0.00  0.00    +0.000 C 
ATOM     22  C   UNL     1       0.810   8.975  20.376  0.00  0.00    +0.000 C 
ATOM     23  C   UNL     1       0.407   9.792  19.146  0.00  0.00    +0.000 C 
ATOM     24  C   UNL     1       1.586  10.029  18.203  0.00  0.00    +0.000 C 
ATOM     25  C   UNL     1       2.181   8.700  17.730  0.00  0.00    +0.000 C 
ENDBRANCH  19  20
ENDBRANCH   1  18
TORSDOF 7
ENDMDL
