MODEL 1
REMARK VINA RESULT:      -8.9      0.000      0.000
REMARK  Name = 
REMARK  4 active torsions:
REMARK  status: ('A' for Active; 'I' for Inactive)
REMARK    1  A    between atoms: C_1  and  C_2
REMARK    2  A    between atoms: N_4  and  C_5
REMARK    3  A    between atoms: C_5  and  C_6
REMARK    4  A    between atoms: N_8  and  C_9
REMARK                            x       y       z     vdW  Elec       q    Type
REMARK                         _______ _______ _______ _____ _____    ______ ____
ROOT
ATOM      1  C   UNL     1       6.535   4.795  14.136  0.00  0.00    +0.000 C 
ATOM      2  C   UNL     1       5.336   4.405  14.972  0.00  0.00    +0.000 C 
ATOM      3  N   UNL     1       5.844   4.476  16.308  0.00  0.00    +0.000 N 
ATOM      4  C   UNL     1       7.230   4.476  16.279  0.00  0.00    +0.000 C 
ATOM      5  O   UNL     1       8.015   4.406  17.209  0.00  0.00    +0.000 OA
ATOM      6  O   UNL     1       7.664   4.510  14.977  0.00  0.00    +0.000 OA
ENDROOT
BRANCH   3   7
ATOM      7  C   UNL     1       5.021   4.452  17.459  0.00  0.00    +0.000 A 
ATOM      8  C   UNL     1       5.087   5.462  18.419  0.00  0.00    +0.000 A 
ATOM      9  C   UNL     1       4.224   5.464  19.518  0.00  0.00    +0.000 A 
ATOM     10  C   UNL     1       3.286   4.440  19.707  0.00  0.00    +0.000 A 
ATOM     11  C   UNL     1       3.255   3.375  18.792  0.00  0.00    +0.000 A 
ATOM     12  C   UNL     1       4.098   3.414  17.661  0.00  0.00    +0.000 A 
ATOM     13  C   UNL     1       2.389   2.157  19.022  0.00  0.00    +0.000 C 
ATOM     14  C   UNL     1       0.884   2.441  19.067  0.00  0.00    +0.000 C 
ATOM     15  N   UNL     1       0.408   3.018  20.325  0.00  0.00    +0.000 NA
ATOM     16  C   UNL     1       0.873   4.392  20.528  0.00  0.00    +0.000 C 
ATOM     17  C   UNL     1       2.360   4.510  20.897  0.00  0.00    +0.000 C 
ATOM     18  H   UNL     1       0.716   2.438  21.106  0.00  0.00    +0.000 HD
ENDBRANCH   3   7
BRANCH   1  19
ATOM     19  C   UNL     1       6.638   3.982  12.850  0.00  0.00    +0.000 C 
BRANCH  19  23
ATOM     20  C   UNL     1       3.621   2.981  10.795  0.00  0.00    +0.000 C 
ATOM     21  C   UNL     1       4.948   2.817  11.486  0.00  0.00    +0.000 C 
ATOM     22  O   UNL     1       5.582   1.770  11.468  0.00  0.00    +0.000 OA
ATOM     23  N   UNL     1       5.384   3.957  12.118  0.00  0.00    +0.000 N 
ATOM     24  H   UNL     1       4.713   4.692  12.311  0.00  0.00    +0.000 HD
ENDBRANCH  19  23
ENDBRANCH   1  19
TORSDOF 3
ENDMDL
MODEL 2
REMARK VINA RESULT:      -8.2      1.008      1.054
REMARK  Name = 
REMARK  4 active torsions:
REMARK  status: ('A' for Active; 'I' for Inactive)
REMARK    1  A    between atoms: C_1  and  C_2
REMARK    2  A    between atoms: N_4  and  C_5
REMARK    3  A    between atoms: C_5  and  C_6
REMARK    4  A    between atoms: N_8  and  C_9
REMARK                            x       y       z     vdW  Elec       q    Type
REMARK                         _______ _______ _______ _____ _____    ______ ____
ROOT
ATOM      1  C   UNL     1       7.059   5.185  14.855  0.00  0.00    +0.000 C 
ATOM      2  C   UNL     1       5.681   5.005  15.454  0.00  0.00    +0.000 C 
ATOM      3  N   UNL     1       5.953   4.912  16.855  0.00  0.00    +0.000 N 
ATOM      4  C   UNL     1       7.297   4.635  17.050  0.00  0.00    +0.000 C 
ATOM      5  O   UNL     1       7.881   4.366  18.086  0.00  0.00    +0.000 OA
ATOM      6  O   UNL     1       7.949   4.641  15.842  0.00  0.00    +0.000 OA
ENDROOT
BRANCH   3   7
ATOM      7  C   UNL     1       4.953   4.999  17.853  0.00  0.00    +0.000 A 
ATOM      8  C   UNL     1       4.299   6.203  18.119  0.00  0.00    +0.000 A 
ATOM      9  C   UNL     1       3.266   6.265  19.059  0.00  0.00    +0.000 A 
ATOM     10  C   UNL     1       2.874   5.131  19.783  0.00  0.00    +0.000 A 
ATOM     11  C   UNL     1       3.571   3.928  19.584  0.00  0.00    +0.000 A 
ATOM     12  C   UNL     1       4.576   3.870  18.596  0.00  0.00    +0.000 A 
ATOM     13  C   UNL     1       3.316   2.713  20.446  0.00  0.00    +0.000 C 
ATOM     14  C   UNL     1       1.894   2.151  20.356  0.00  0.00    +0.000 C 
ATOM     15  N   UNL     1       0.891   2.899  21.115  0.00  0.00    +0.000 NA
ATOM     16  C   UNL     1       0.617   4.219  20.540  0.00  0.00    +0.000 C 
ATOM     17  C   UNL     1       1.734   5.251  20.765  0.00  0.00    +0.000 C 
ATOM     18  H   UNL     1       1.203   3.009  22.079  0.00  0.00    +0.000 HD
ENDBRANCH   3   7
BRANCH   1  19
ATOM     19  C   UNL     1       7.227   4.428  13.542  0.00  0.00    +0.000 C 
BRANCH  19  23
ATOM     20  C   UNL     1       4.397   3.078  11.422  0.00  0.00    +0.000 C 
ATOM     21  C   UNL     1       5.784   3.157  12.001  0.00  0.00    +0.000 C 
ATOM     22  O   UNL     1       6.674   2.370  11.705  0.00  0.00    +0.000 OA
ATOM     23  N   UNL     1       5.957   4.204  12.874  0.00  0.00    +0.000 N 
ATOM     24  H   UNL     1       5.135   4.651  13.266  0.00  0.00    +0.000 HD
ENDBRANCH  19  23
ENDBRANCH   1  19
TORSDOF 3
ENDMDL
MODEL 3
REMARK VINA RESULT:      -7.9      4.262      5.651
REMARK  Name = 
REMARK  4 active torsions:
REMARK  status: ('A' for Active; 'I' for Inactive)
REMARK    1  A    between atoms: C_1  and  C_2
REMARK    2  A    between atoms: N_4  and  C_5
REMARK    3  A    between atoms: C_5  and  C_6
REMARK    4  A    between atoms: N_8  and  C_9
REMARK                            x       y       z     vdW  Elec       q    Type
REMARK                         _______ _______ _______ _____ _____    ______ ____
ROOT
ATOM      1  C   UNL     1       5.070   4.347  18.473  0.00  0.00    +0.000 C 
ATOM      2  C   UNL     1       4.724   5.763  18.877  0.00  0.00    +0.000 C 
ATOM      3  N   UNL     1       3.298   5.787  18.757  0.00  0.00    +0.000 N 
ATOM      4  C   UNL     1       2.878   4.714  17.988  0.00  0.00    +0.000 C 
ATOM      5  O   UNL     1       1.762   4.464  17.567  0.00  0.00    +0.000 OA
ATOM      6  O   UNL     1       3.954   3.920  17.677  0.00  0.00    +0.000 OA
ENDROOT
BRANCH   3   7
ATOM      7  C   UNL     1       2.488   6.823  19.279  0.00  0.00    +0.000 A 
ATOM      8  C   UNL     1       1.919   6.727  20.550  0.00  0.00    +0.000 A 
ATOM      9  C   UNL     1       1.176   7.783  21.084  0.00  0.00    +0.000 A 
ATOM     10  C   UNL     1       0.954   8.958  20.353  0.00  0.00    +0.000 A 
ATOM     11  C   UNL     1       1.455   9.044  19.044  0.00  0.00    +0.000 A 
ATOM     12  C   UNL     1       2.245   7.990  18.539  0.00  0.00    +0.000 A 
ATOM     13  C   UNL     1       1.114  10.206  18.140  0.00  0.00    +0.000 C 
ATOM     14  C   UNL     1       1.598  11.571  18.641  0.00  0.00    +0.000 C 
ATOM     15  N   UNL     1       0.780  12.158  19.703  0.00  0.00    +0.000 NA
ATOM     16  C   UNL     1       0.895  11.430  20.971  0.00  0.00    +0.000 C 
ATOM     17  C   UNL     1       0.168  10.077  20.992  0.00  0.00    +0.000 C 
ATOM     18  H   UNL     1      -0.197  12.177  19.412  0.00  0.00    +0.000 HD
ENDBRANCH   3   7
BRANCH   1  19
ATOM     19  C   UNL     1       6.348   4.273  17.644  0.00  0.00    +0.000 C 
BRANCH  19  23
ATOM     20  C   UNL     1       6.315   3.969  13.871  0.00  0.00    +0.000 C 
ATOM     21  C   UNL     1       6.700   4.521  15.217  0.00  0.00    +0.000 C 
ATOM     22  O   UNL     1       7.475   5.459  15.354  0.00  0.00    +0.000 OA
ATOM     23  N   UNL     1       6.085   3.885  16.269  0.00  0.00    +0.000 N 
ATOM     24  H   UNL     1       5.668   2.975  16.110  0.00  0.00    +0.000 HD
ENDBRANCH  19  23
ENDBRANCH   1  19
TORSDOF 3
ENDMDL
MODEL 4
REMARK VINA RESULT:      -7.9      1.193      1.193
REMARK  Name = 
REMARK  4 active torsions:
REMARK  status: ('A' for Active; 'I' for Inactive)
REMARK    1  A    between atoms: C_1  and  C_2
REMARK    2  A    between atoms: N_4  and  C_5
REMARK    3  A    between atoms: C_5  and  C_6
REMARK    4  A    between atoms: N_8  and  C_9
REMARK                            x       y       z     vdW  Elec       q    Type
REMARK                         _______ _______ _______ _____ _____    ______ ____
ROOT
ATOM      1  C   UNL     1       6.447   4.793  13.769  0.00  0.00    +0.000 C 
ATOM      2  C   UNL     1       5.643   4.012  14.786  0.00  0.00    +0.000 C 
ATOM      3  N   UNL     1       5.857   4.749  15.993  0.00  0.00    +0.000 N 
ATOM      4  C   UNL     1       6.955   5.580  15.843  0.00  0.00    +0.000 C 
ATOM      5  O   UNL     1       7.517   6.266  16.680  0.00  0.00    +0.000 OA
ATOM      6  O   UNL     1       7.420   5.501  14.554  0.00  0.00    +0.000 OA
ENDROOT
BRANCH   3   7
ATOM      7  C   UNL     1       5.096   4.556  17.171  0.00  0.00    +0.000 A 
ATOM      8  C   UNL     1       5.302   5.343  18.304  0.00  0.00    +0.000 A 
ATOM      9  C   UNL     1       4.501   5.190  19.439  0.00  0.00    +0.000 A 
ATOM     10  C   UNL     1       3.486   4.225  19.486  0.00  0.00    +0.000 A 
ATOM     11  C   UNL     1       3.312   3.373  18.385  0.00  0.00    +0.000 A 
ATOM     12  C   UNL     1       4.095   3.573  17.228  0.00  0.00    +0.000 A 
ATOM     13  C   UNL     1       2.353   2.204  18.429  0.00  0.00    +0.000 C 
ATOM     14  C   UNL     1       0.884   2.589  18.633  0.00  0.00    +0.000 C 
ATOM     15  N   UNL     1       0.528   2.935  20.010  0.00  0.00    +0.000 NA
ATOM     16  C   UNL     1       1.125   4.200  20.447  0.00  0.00    +0.000 C 
ATOM     17  C   UNL     1       2.633   4.124  20.728  0.00  0.00    +0.000 C 
ATOM     18  H   UNL     1       0.823   2.187  20.638  0.00  0.00    +0.000 HD
ENDBRANCH   3   7
BRANCH   1  19
ATOM     19  C   UNL     1       7.159   3.887  12.769  0.00  0.00    +0.000 C 
BRANCH  19  23
ATOM     20  C   UNL     1       5.778   0.757  11.150  0.00  0.00    +0.000 C 
ATOM     21  C   UNL     1       6.765   1.860  11.425  0.00  0.00    +0.000 C 
ATOM     22  O   UNL     1       7.842   1.947  10.850  0.00  0.00    +0.000 OA
ATOM     23  N   UNL     1       6.332   2.764  12.365  0.00  0.00    +0.000 N 
ATOM     24  H   UNL     1       5.566   2.501  12.975  0.00  0.00    +0.000 HD
ENDBRANCH  19  23
ENDBRANCH   1  19
TORSDOF 3
ENDMDL
MODEL 5
REMARK VINA RESULT:      -7.8      1.591      2.303
REMARK  Name = 
REMARK  4 active torsions:
REMARK  status: ('A' for Active; 'I' for Inactive)
REMARK    1  A    between atoms: C_1  and  C_2
REMARK    2  A    between atoms: N_4  and  C_5
REMARK    3  A    between atoms: C_5  and  C_6
REMARK    4  A    between atoms: N_8  and  C_9
REMARK                            x       y       z     vdW  Elec       q    Type
REMARK                         _______ _______ _______ _____ _____    ______ ____
ROOT
ATOM      1  C   UNL     1       6.859   4.925  13.684  0.00  0.00    +0.000 C 
ATOM      2  C   UNL     1       5.555   4.414  14.255  0.00  0.00    +0.000 C 
ATOM      3  N   UNL     1       5.751   4.549  15.666  0.00  0.00    +0.000 N 
ATOM      4  C   UNL     1       7.102   4.698  15.935  0.00  0.00    +0.000 C 
ATOM      5  O   UNL     1       7.671   4.720  17.013  0.00  0.00    +0.000 OA
ATOM      6  O   UNL     1       7.802   4.769  14.756  0.00  0.00    +0.000 OA
ENDROOT
BRANCH   3   7
ATOM      7  C   UNL     1       4.706   4.444  16.614  0.00  0.00    +0.000 A 
ATOM      8  C   UNL     1       4.273   3.202  17.080  0.00  0.00    +0.000 A 
ATOM      9  C   UNL     1       3.286   3.110  18.065  0.00  0.00    +0.000 A 
ATOM     10  C   UNL     1       2.679   4.258  18.595  0.00  0.00    +0.000 A 
ATOM     11  C   UNL     1       3.047   5.513  18.084  0.00  0.00    +0.000 A 
ATOM     12  C   UNL     1       4.081   5.591  17.126  0.00  0.00    +0.000 A 
ATOM     13  C   UNL     1       2.320   6.776  18.485  0.00  0.00    +0.000 C 
ATOM     14  C   UNL     1       2.408   7.120  19.975  0.00  0.00    +0.000 C 
ATOM     15  N   UNL     1       1.523   6.336  20.838  0.00  0.00    +0.000 NA
ATOM     16  C   UNL     1       1.929   4.932  20.936  0.00  0.00    +0.000 C 
ATOM     17  C   UNL     1       1.639   4.099  19.677  0.00  0.00    +0.000 C 
ATOM     18  H   UNL     1       0.568   6.388  20.485  0.00  0.00    +0.000 HD
ENDBRANCH   3   7
BRANCH   1  19
ATOM     19  C   UNL     1       7.322   4.118  12.475  0.00  0.00    +0.000 C 
BRANCH  19  23
ATOM     20  C   UNL     1       5.877   0.831  11.275  0.00  0.00    +0.000 C 
ATOM     21  C   UNL     1       6.865   1.963  11.370  0.00  0.00    +0.000 C 
ATOM     22  O   UNL     1       7.900   1.999  10.718  0.00  0.00    +0.000 OA
ATOM     23  N   UNL     1       6.484   2.954  12.243  0.00  0.00    +0.000 N 
ATOM     24  H   UNL     1       5.765   2.748  12.928  0.00  0.00    +0.000 HD
ENDBRANCH  19  23
ENDBRANCH   1  19
TORSDOF 3
ENDMDL
MODEL 6
REMARK VINA RESULT:      -7.8      4.049      5.317
REMARK  Name = 
REMARK  4 active torsions:
REMARK  status: ('A' for Active; 'I' for Inactive)
REMARK    1  A    between atoms: C_1  and  C_2
REMARK    2  A    between atoms: N_4  and  C_5
REMARK    3  A    between atoms: C_5  and  C_6
REMARK    4  A    between atoms: N_8  and  C_9
REMARK                            x       y       z     vdW  Elec       q    Type
REMARK                         _______ _______ _______ _____ _____    ______ ____
ROOT
ATOM      1  C   UNL     1       5.047   4.382  18.339  0.00  0.00    +0.000 C 
ATOM      2  C   UNL     1       4.838   5.879  18.412  0.00  0.00    +0.000 C 
ATOM      3  N   UNL     1       3.414   6.004  18.345  0.00  0.00    +0.000 N 
ATOM      4  C   UNL     1       2.866   4.825  17.866  0.00  0.00    +0.000 C 
ATOM      5  O   UNL     1       1.711   4.587  17.558  0.00  0.00    +0.000 OA
ATOM      6  O   UNL     1       3.856   3.887  17.707  0.00  0.00    +0.000 OA
ENDROOT
BRANCH   3   7
ATOM      7  C   UNL     1       2.721   7.201  18.641  0.00  0.00    +0.000 A 
ATOM      8  C   UNL     1       2.487   8.164  17.659  0.00  0.00    +0.000 A 
ATOM      9  C   UNL     1       1.743   9.313  17.944  0.00  0.00    +0.000 A 
ATOM     10  C   UNL     1       1.234   9.548  19.229  0.00  0.00    +0.000 A 
ATOM     11  C   UNL     1       1.523   8.628  20.248  0.00  0.00    +0.000 A 
ATOM     12  C   UNL     1       2.231   7.449  19.933  0.00  0.00    +0.000 A 
ATOM     13  C   UNL     1       1.151   8.898  21.689  0.00  0.00    +0.000 C 
ATOM     14  C   UNL     1      -0.353   9.035  21.947  0.00  0.00    +0.000 C 
ATOM     15  N   UNL     1      -0.925  10.324  21.557  0.00  0.00    +0.000 NA
ATOM     16  C   UNL     1      -0.958  10.511  20.104  0.00  0.00    +0.000 C 
ATOM     17  C   UNL     1       0.414  10.792  19.471  0.00  0.00    +0.000 C 
ATOM     18  H   UNL     1      -0.389  11.080  21.983  0.00  0.00    +0.000 HD
ENDBRANCH   3   7
BRANCH   1  19
ATOM     19  C   UNL     1       6.264   4.005  17.501  0.00  0.00    +0.000 C 
BRANCH  19  23
ATOM     20  C   UNL     1       6.027   3.916  13.724  0.00  0.00    +0.000 C 
ATOM     21  C   UNL     1       6.513   4.366  15.075  0.00  0.00    +0.000 C 
ATOM     22  O   UNL     1       7.355   5.243  15.222  0.00  0.00    +0.000 OA
ATOM     23  N   UNL     1       5.909   3.712  16.123  0.00  0.00    +0.000 N 
ATOM     24  H   UNL     1       5.425   2.841  15.937  0.00  0.00    +0.000 HD
ENDBRANCH  19  23
ENDBRANCH   1  19
TORSDOF 3
ENDMDL
MODEL 7
REMARK VINA RESULT:      -7.8      3.046      3.660
REMARK  Name = 
REMARK  4 active torsions:
REMARK  status: ('A' for Active; 'I' for Inactive)
REMARK    1  A    between atoms: C_1  and  C_2
REMARK    2  A    between atoms: N_4  and  C_5
REMARK    3  A    between atoms: C_5  and  C_6
REMARK    4  A    between atoms: N_8  and  C_9
REMARK                            x       y       z     vdW  Elec       q    Type
REMARK                         _______ _______ _______ _____ _____    ______ ____
ROOT
ATOM      1  C   UNL     1       6.332   5.392  15.092  0.00  0.00    +0.000 C 
ATOM      2  C   UNL     1       5.109   5.143  15.947  0.00  0.00    +0.000 C 
ATOM      3  N   UNL     1       5.237   6.127  16.978  0.00  0.00    +0.000 N 
ATOM      4  C   UNL     1       6.538   6.603  17.008  0.00  0.00    +0.000 C 
ATOM      5  O   UNL     1       7.062   7.351  17.815  0.00  0.00    +0.000 OA
ATOM      6  O   UNL     1       7.254   6.051  15.974  0.00  0.00    +0.000 OA
ENDROOT
BRANCH   3   7
ATOM      7  C   UNL     1       4.193   6.461  17.873  0.00  0.00    +0.000 A 
ATOM      8  C   UNL     1       3.973   5.725  19.038  0.00  0.00    +0.000 A 
ATOM      9  C   UNL     1       2.982   6.103  19.948  0.00  0.00    +0.000 A 
ATOM     10  C   UNL     1       2.160   7.213  19.707  0.00  0.00    +0.000 A 
ATOM     11  C   UNL     1       2.315   7.921  18.505  0.00  0.00    +0.000 A 
ATOM     12  C   UNL     1       3.353   7.557  17.621  0.00  0.00    +0.000 A 
ATOM     13  C   UNL     1       1.358   9.020  18.103  0.00  0.00    +0.000 C 
ATOM     14  C   UNL     1       1.328  10.221  19.054  0.00  0.00    +0.000 C 
ATOM     15  N   UNL     1       0.566  10.008  20.285  0.00  0.00    +0.000 NA
ATOM     16  C   UNL     1       1.214   9.057  21.192  0.00  0.00    +0.000 C 
ATOM     17  C   UNL     1       1.125   7.591  20.740  0.00  0.00    +0.000 C 
ATOM     18  H   UNL     1      -0.369   9.673  20.055  0.00  0.00    +0.000 HD
ENDBRANCH   3   7
BRANCH   1  19
ATOM     19  C   UNL     1       6.955   4.098  14.577  0.00  0.00    +0.000 C 
BRANCH  19  23
ATOM     20  C   UNL     1       5.250   2.614  11.541  0.00  0.00    +0.000 C 
ATOM     21  C   UNL     1       6.258   3.423  12.312  0.00  0.00    +0.000 C 
ATOM     22  O   UNL     1       7.150   4.064  11.771  0.00  0.00    +0.000 OA
ATOM     23  N   UNL     1       6.068   3.388  13.672  0.00  0.00    +0.000 N 
ATOM     24  H   UNL     1       5.489   2.653  14.063  0.00  0.00    +0.000 HD
ENDBRANCH  19  23
ENDBRANCH   1  19
TORSDOF 3
ENDMDL
MODEL 8
REMARK VINA RESULT:      -7.7      3.270      5.665
REMARK  Name = 
REMARK  4 active torsions:
REMARK  status: ('A' for Active; 'I' for Inactive)
REMARK    1  A    between atoms: C_1  and  C_2
REMARK    2  A    between atoms: N_4  and  C_5
REMARK    3  A    between atoms: C_5  and  C_6
REMARK    4  A    between atoms: N_8  and  C_9
REMARK                            x       y       z     vdW  Elec       q    Type
REMARK                         _______ _______ _______ _____ _____    ______ ____
ROOT
ATOM      1  C   UNL     1       7.695   7.226  17.617  0.00  0.00    +0.000 C 
ATOM      2  C   UNL     1       6.280   7.030  18.116  0.00  0.00    +0.000 C 
ATOM      3  N   UNL     1       5.824   5.914  17.345  0.00  0.00    +0.000 N 
ATOM      4  C   UNL     1       6.653   5.736  16.249  0.00  0.00    +0.000 C 
ATOM      5  O   UNL     1       6.523   4.975  15.306  0.00  0.00    +0.000 OA
ATOM      6  O   UNL     1       7.700   6.621  16.314  0.00  0.00    +0.000 OA
ENDROOT
BRANCH   3   7
ATOM      7  C   UNL     1       4.643   5.192  17.640  0.00  0.00    +0.000 A 
ATOM      8  C   UNL     1       4.116   4.266  16.739  0.00  0.00    +0.000 A 
ATOM      9  C   UNL     1       2.988   3.509  17.067  0.00  0.00    +0.000 A 
ATOM     10  C   UNL     1       2.334   3.675  18.296  0.00  0.00    +0.000 A 
ATOM     11  C   UNL     1       2.804   4.655  19.184  0.00  0.00    +0.000 A 
ATOM     12  C   UNL     1       3.973   5.375  18.860  0.00  0.00    +0.000 A 
ATOM     13  C   UNL     1       2.053   5.004  20.448  0.00  0.00    +0.000 C 
ATOM     14  C   UNL     1       1.920   3.855  21.453  0.00  0.00    +0.000 C 
ATOM     15  N   UNL     1       0.895   2.865  21.118  0.00  0.00    +0.000 NA
ATOM     16  C   UNL     1       1.250   2.061  19.944  0.00  0.00    +0.000 C 
ATOM     17  C   UNL     1       1.137   2.809  18.607  0.00  0.00    +0.000 C 
ATOM     18  H   UNL     1       0.007   3.335  20.949  0.00  0.00    +0.000 HD
ENDBRANCH   3   7
BRANCH   1  19
ATOM     19  C   UNL     1       8.072   8.699  17.498  0.00  0.00    +0.000 C 
BRANCH  19  23
ATOM     20  C   UNL     1       9.626  10.869  20.182  0.00  0.00    +0.000 C 
ATOM     21  C   UNL     1       9.147  10.489  18.807  0.00  0.00    +0.000 C 
ATOM     22  O   UNL     1       9.250  11.231  17.839  0.00  0.00    +0.000 OA
ATOM     23  N   UNL     1       8.602   9.229  18.742  0.00  0.00    +0.000 N 
ATOM     24  H   UNL     1       8.316   8.779  19.605  0.00  0.00    +0.000 HD
ENDBRANCH  19  23
ENDBRANCH   1  19
TORSDOF 3
ENDMDL
MODEL 9
REMARK VINA RESULT:      -7.6      4.229      6.470
REMARK  Name = 
REMARK  4 active torsions:
REMARK  status: ('A' for Active; 'I' for Inactive)
REMARK    1  A    between atoms: C_1  and  C_2
REMARK    2  A    between atoms: N_4  and  C_5
REMARK    3  A    between atoms: C_5  and  C_6
REMARK    4  A    between atoms: N_8  and  C_9
REMARK                            x       y       z     vdW  Elec       q    Type
REMARK                         _______ _______ _______ _____ _____    ______ ____
ROOT
ATOM      1  C   UNL     1       2.891   3.699  17.423  0.00  0.00    +0.000 C 
ATOM      2  C   UNL     1       1.991   4.697  18.117  0.00  0.00    +0.000 C 
ATOM      3  N   UNL     1       2.832   5.848  18.244  0.00  0.00    +0.000 N 
ATOM      4  C   UNL     1       4.156   5.478  18.064  0.00  0.00    +0.000 C 
ATOM      5  O   UNL     1       5.165   6.146  18.214  0.00  0.00    +0.000 OA
ATOM      6  O   UNL     1       4.221   4.150  17.723  0.00  0.00    +0.000 OA
ENDROOT
BRANCH   3   7
ATOM      7  C   UNL     1       2.352   7.131  18.597  0.00  0.00    +0.000 A 
ATOM      8  C   UNL     1       2.236   8.147  17.647  0.00  0.00    +0.000 A 
ATOM      9  C   UNL     1       1.698   9.391  17.990  0.00  0.00    +0.000 A 
ATOM     10  C   UNL     1       1.286   9.667  19.302  0.00  0.00    +0.000 A 
ATOM     11  C   UNL     1       1.465   8.684  20.287  0.00  0.00    +0.000 A 
ATOM     12  C   UNL     1       1.962   7.417  19.915  0.00  0.00    +0.000 A 
ATOM     13  C   UNL     1       1.201   8.969  21.748  0.00  0.00    +0.000 C 
ATOM     14  C   UNL     1      -0.250   9.335  22.077  0.00  0.00    +0.000 C 
ATOM     15  N   UNL     1      -0.625  10.710  21.741  0.00  0.00    +0.000 NA
ATOM     16  C   UNL     1      -0.686  10.941  20.295  0.00  0.00    +0.000 C 
ATOM     17  C   UNL     1       0.686  11.018  19.608  0.00  0.00    +0.000 C 
ATOM     18  H   UNL     1       0.042  11.358  22.159  0.00  0.00    +0.000 HD
ENDBRANCH   3   7
BRANCH   1  19
ATOM     19  C   UNL     1       2.702   2.280  17.951  0.00  0.00    +0.000 C 
BRANCH  19  23
ATOM     20  C   UNL     1       1.731   2.391  21.608  0.00  0.00    +0.000 C 
ATOM     21  C   UNL     1       2.642   2.427  20.410  0.00  0.00    +0.000 C 
ATOM     22  O   UNL     1       3.853   2.578  20.501  0.00  0.00    +0.000 OA
ATOM     23  N   UNL     1       1.986   2.258  19.214  0.00  0.00    +0.000 N 
ATOM     24  H   UNL     1       0.982   2.395  19.188  0.00  0.00    +0.000 HD
ENDBRANCH  19  23
ENDBRANCH   1  19
TORSDOF 3
ENDMDL
