MODEL 1
REMARK VINA RESULT:      -9.0      0.000      0.000
REMARK  Name = 
REMARK  7 active torsions:
REMARK  status: ('A' for Active; 'I' for Inactive)
REMARK    1  A    between atoms: C_1  and  C_2
REMARK    2  A    between atoms: C_2  and  C_4
REMARK    3  A    between atoms: C_6  and  C_7
REMARK    4  A    between atoms: C_10  and  S_11
REMARK    5  A    between atoms: S_11  and  C_12
REMARK    6  A    between atoms: N_17  and  C_18
REMARK    7  A    between atoms: C_25  and  C_26
REMARK                            x       y       z     vdW  Elec       q    Type
REMARK                         _______ _______ _______ _____ _____    ______ ____
ROOT
ATOM      1  C   UNL     1       5.060   5.490  16.443  0.00  0.00    +0.000 A 
ATOM      2  C   UNL     1       4.350   6.664  16.808  0.00  0.00    +0.000 A 
ATOM      3  C   UNL     1       3.455   6.377  17.831  0.00  0.00    +0.000 A 
ATOM      4  N   UNL     1       3.583   4.996  18.101  0.00  0.00    +0.000 N 
ATOM      5  C   UNL     1       4.566   4.475  17.255  0.00  0.00    +0.000 A 
ATOM      6  C   UNL     1       4.952   3.026  17.168  0.00  0.00    +0.000 C 
ENDROOT
BRANCH   4   7
ATOM      7  C   UNL     1       2.838   4.252  19.077  0.00  0.00    +0.000 A 
ATOM      8  C   UNL     1       1.503   3.890  18.831  0.00  0.00    +0.000 A 
ATOM      9  C   UNL     1       0.737   3.300  19.839  0.00  0.00    +0.000 A 
ATOM     10  C   UNL     1       1.322   3.010  21.065  0.00  0.00    +0.000 A 
ATOM     11  F   UNL     1       0.585   2.448  22.031  0.00  0.00    +0.000 F 
ATOM     12  C   UNL     1       2.657   3.306  21.306  0.00  0.00    +0.000 A 
ATOM     13  C   UNL     1       3.412   3.948  20.322  0.00  0.00    +0.000 A 
ENDBRANCH   4   7
BRANCH   3  14
ATOM     14  C   UNL     1       2.595   7.355  18.547  0.00  0.00    +0.000 A 
ATOM     15  C   UNL     1       2.311   7.183  19.914  0.00  0.00    +0.000 A 
ATOM     16  C   UNL     1       1.556   8.127  20.624  0.00  0.00    +0.000 A 
ATOM     17  C   UNL     1       1.104   9.277  19.974  0.00  0.00    +0.000 A 
ATOM     18  C   UNL     1       1.331   9.447  18.610  0.00  0.00    +0.000 A 
ATOM     19  C   UNL     1       2.034   8.468  17.901  0.00  0.00    +0.000 A 
BRANCH  17  20
ATOM     20  S   UNL     1       0.155  10.491  20.861  0.00  0.00    +0.000 S 
ATOM     21  C   UNL     1      -0.398   9.628  22.308  0.00  0.00    +0.000 C 
ATOM     22  O   UNL     1       1.070  11.533  21.286  0.00  0.00    +0.000 OA
ATOM     23  O   UNL     1      -1.005  10.809  20.053  0.00  0.00    +0.000 OA
ENDBRANCH  17  20
ENDBRANCH   3  14
BRANCH   1  25
ATOM     24  C   UNL     1       5.771   4.571  14.156  0.00  0.00    +0.000 C 
ATOM     25  C   UNL     1       6.103   5.338  15.414  0.00  0.00    +0.000 C 
ATOM     26  O   UNL     1       7.226   5.823  15.544  0.00  0.00    +0.000 OA
ENDBRANCH   1  25
TORSDOF 4
ENDMDL
MODEL 2
REMARK VINA RESULT:      -8.9      0.771      1.678
REMARK  Name = 
REMARK  7 active torsions:
REMARK  status: ('A' for Active; 'I' for Inactive)
REMARK    1  A    between atoms: C_1  and  C_2
REMARK    2  A    between atoms: C_2  and  C_4
REMARK    3  A    between atoms: C_6  and  C_7
REMARK    4  A    between atoms: C_10  and  S_11
REMARK    5  A    between atoms: S_11  and  C_12
REMARK    6  A    between atoms: N_17  and  C_18
REMARK    7  A    between atoms: C_25  and  C_26
REMARK                            x       y       z     vdW  Elec       q    Type
REMARK                         _______ _______ _______ _____ _____    ______ ____
ROOT
ATOM      1  C   UNL     1       4.996   5.524  16.494  0.00  0.00    +0.000 A 
ATOM      2  C   UNL     1       4.322   6.743  16.766  0.00  0.00    +0.000 A 
ATOM      3  C   UNL     1       3.411   6.562  17.799  0.00  0.00    +0.000 A 
ATOM      4  N   UNL     1       3.492   5.202  18.171  0.00  0.00    +0.000 N 
ATOM      5  C   UNL     1       4.464   4.588  17.376  0.00  0.00    +0.000 A 
ATOM      6  C   UNL     1       4.803   3.125  17.399  0.00  0.00    +0.000 C 
ENDROOT
BRANCH   4   7
ATOM      7  C   UNL     1       2.717   4.556  19.193  0.00  0.00    +0.000 A 
ATOM      8  C   UNL     1       3.218   4.438  20.500  0.00  0.00    +0.000 A 
ATOM      9  C   UNL     1       2.531   3.680  21.451  0.00  0.00    +0.000 A 
ATOM     10  C   UNL     1       1.315   3.099  21.117  0.00  0.00    +0.000 A 
ATOM     11  F   UNL     1       0.660   2.369  22.029  0.00  0.00    +0.000 F 
ATOM     12  C   UNL     1       0.775   3.253  19.847  0.00  0.00    +0.000 A 
ATOM     13  C   UNL     1       1.485   3.963  18.875  0.00  0.00    +0.000 A 
ENDBRANCH   4   7
BRANCH   3  14
ATOM     14  C   UNL     1       2.579   7.617  18.432  0.00  0.00    +0.000 A 
ATOM     15  C   UNL     1       2.154   8.730  17.685  0.00  0.00    +0.000 A 
ATOM     16  C   UNL     1       1.315   9.704  18.245  0.00  0.00    +0.000 A 
ATOM     17  C   UNL     1       0.864   9.553  19.557  0.00  0.00    +0.000 A 
ATOM     18  C   UNL     1       1.309   8.485  20.333  0.00  0.00    +0.000 A 
ATOM     19  C   UNL     1       2.194   7.554  19.781  0.00  0.00    +0.000 A 
BRANCH  17  20
ATOM     20  S   UNL     1      -0.211  10.772  20.280  0.00  0.00    +0.000 S 
ATOM     21  C   UNL     1       0.798  12.228  20.375  0.00  0.00    +0.000 C 
ATOM     22  O   UNL     1      -1.277  11.029  19.332  0.00  0.00    +0.000 OA
ATOM     23  O   UNL     1      -0.509  10.340  21.631  0.00  0.00    +0.000 OA
ENDBRANCH  17  20
ENDBRANCH   3  14
BRANCH   1  25
ATOM     24  C   UNL     1       5.681   4.448  14.268  0.00  0.00    +0.000 C 
ATOM     25  C   UNL     1       6.040   5.263  15.489  0.00  0.00    +0.000 C 
ATOM     26  O   UNL     1       7.186   5.693  15.609  0.00  0.00    +0.000 OA
ENDBRANCH   1  25
TORSDOF 4
ENDMDL
MODEL 3
REMARK VINA RESULT:      -8.9      0.768      1.334
REMARK  Name = 
REMARK  7 active torsions:
REMARK  status: ('A' for Active; 'I' for Inactive)
REMARK    1  A    between atoms: C_1  and  C_2
REMARK    2  A    between atoms: C_2  and  C_4
REMARK    3  A    between atoms: C_6  and  C_7
REMARK    4  A    between atoms: C_10  and  S_11
REMARK    5  A    between atoms: S_11  and  C_12
REMARK    6  A    between atoms: N_17  and  C_18
REMARK    7  A    between atoms: C_25  and  C_26
REMARK                            x       y       z     vdW  Elec       q    Type
REMARK                         _______ _______ _______ _____ _____    ______ ____
ROOT
ATOM      1  C   UNL     1       5.145   5.419  16.319  0.00  0.00    +0.000 A 
ATOM      2  C   UNL     1       4.469   6.615  16.679  0.00  0.00    +0.000 A 
ATOM      3  C   UNL     1       3.569   6.360  17.705  0.00  0.00    +0.000 A 
ATOM      4  N   UNL     1       3.658   4.978  17.983  0.00  0.00    +0.000 N 
ATOM      5  C   UNL     1       4.624   4.423  17.139  0.00  0.00    +0.000 A 
ATOM      6  C   UNL     1       4.969   2.964  17.061  0.00  0.00    +0.000 C 
ENDROOT
BRANCH   4   7
ATOM      7  C   UNL     1       2.894   4.261  18.966  0.00  0.00    +0.000 A 
ATOM      8  C   UNL     1       1.537   3.975  18.744  0.00  0.00    +0.000 A 
ATOM      9  C   UNL     1       0.761   3.413  19.760  0.00  0.00    +0.000 A 
ATOM     10  C   UNL     1       1.354   3.075  20.970  0.00  0.00    +0.000 A 
ATOM     11  F   UNL     1       0.608   2.541  21.944  0.00  0.00    +0.000 F 
ATOM     12  C   UNL     1       2.708   3.296  21.187  0.00  0.00    +0.000 A 
ATOM     13  C   UNL     1       3.477   3.910  20.194  0.00  0.00    +0.000 A 
ENDBRANCH   4   7
BRANCH   3  14
ATOM     14  C   UNL     1       2.739   7.366  18.416  0.00  0.00    +0.000 A 
ATOM     15  C   UNL     1       2.253   8.496  17.733  0.00  0.00    +0.000 A 
ATOM     16  C   UNL     1       1.415   9.424  18.368  0.00  0.00    +0.000 A 
ATOM     17  C   UNL     1       1.026   9.209  19.691  0.00  0.00    +0.000 A 
ATOM     18  C   UNL     1       1.531   8.123  20.403  0.00  0.00    +0.000 A 
ATOM     19  C   UNL     1       2.414   7.239  19.776  0.00  0.00    +0.000 A 
BRANCH  17  20
ATOM     20  S   UNL     1      -0.046  10.369  20.509  0.00  0.00    +0.000 S 
ATOM     21  C   UNL     1       0.961  11.816  20.705  0.00  0.00    +0.000 C 
ATOM     22  O   UNL     1      -1.119  10.693  19.588  0.00  0.00    +0.000 OA
ATOM     23  O   UNL     1      -0.336   9.837  21.826  0.00  0.00    +0.000 OA
ENDBRANCH  17  20
ENDBRANCH   3  14
BRANCH   1  25
ATOM     24  C   UNL     1       5.838   4.427  14.057  0.00  0.00    +0.000 C 
ATOM     25  C   UNL     1       6.181   5.231  15.289  0.00  0.00    +0.000 C 
ATOM     26  O   UNL     1       7.307   5.714  15.398  0.00  0.00    +0.000 OA
ENDBRANCH   1  25
TORSDOF 4
ENDMDL
MODEL 4
REMARK VINA RESULT:      -8.9      0.757      1.393
REMARK  Name = 
REMARK  7 active torsions:
REMARK  status: ('A' for Active; 'I' for Inactive)
REMARK    1  A    between atoms: C_1  and  C_2
REMARK    2  A    between atoms: C_2  and  C_4
REMARK    3  A    between atoms: C_6  and  C_7
REMARK    4  A    between atoms: C_10  and  S_11
REMARK    5  A    between atoms: S_11  and  C_12
REMARK    6  A    between atoms: N_17  and  C_18
REMARK    7  A    between atoms: C_25  and  C_26
REMARK                            x       y       z     vdW  Elec       q    Type
REMARK                         _______ _______ _______ _____ _____    ______ ____
ROOT
ATOM      1  C   UNL     1       4.967   5.578  16.517  0.00  0.00    +0.000 A 
ATOM      2  C   UNL     1       4.291   6.792  16.804  0.00  0.00    +0.000 A 
ATOM      3  C   UNL     1       3.379   6.595  17.833  0.00  0.00    +0.000 A 
ATOM      4  N   UNL     1       3.461   5.230  18.186  0.00  0.00    +0.000 N 
ATOM      5  C   UNL     1       4.435   4.629  17.383  0.00  0.00    +0.000 A 
ATOM      6  C   UNL     1       4.777   3.166  17.387  0.00  0.00    +0.000 C 
ENDROOT
BRANCH   4   7
ATOM      7  C   UNL     1       2.686   4.568  19.198  0.00  0.00    +0.000 A 
ATOM      8  C   UNL     1       3.153   4.494  20.520  0.00  0.00    +0.000 A 
ATOM      9  C   UNL     1       2.473   3.723  21.466  0.00  0.00    +0.000 A 
ATOM     10  C   UNL     1       1.293   3.083  21.108  0.00  0.00    +0.000 A 
ATOM     11  F   UNL     1       0.644   2.341  22.014  0.00  0.00    +0.000 F 
ATOM     12  C   UNL     1       0.784   3.192  19.821  0.00  0.00    +0.000 A 
ATOM     13  C   UNL     1       1.490   3.916  18.856  0.00  0.00    +0.000 A 
ENDBRANCH   4   7
BRANCH   3  14
ATOM     14  C   UNL     1       2.544   7.639  18.481  0.00  0.00    +0.000 A 
ATOM     15  C   UNL     1       2.170   7.513  19.831  0.00  0.00    +0.000 A 
ATOM     16  C   UNL     1       1.438   8.517  20.480  0.00  0.00    +0.000 A 
ATOM     17  C   UNL     1       1.101   9.681  19.786  0.00  0.00    +0.000 A 
ATOM     18  C   UNL     1       1.418   9.810  18.436  0.00  0.00    +0.000 A 
ATOM     19  C   UNL     1       2.096   8.774  17.786  0.00  0.00    +0.000 A 
BRANCH  17  20
ATOM     20  S   UNL     1       0.182  10.971  20.596  0.00  0.00    +0.000 S 
ATOM     21  C   UNL     1      -0.758  11.712  19.287  0.00  0.00    +0.000 C 
ATOM     22  O   UNL     1      -0.749  10.335  21.509  0.00  0.00    +0.000 OA
ATOM     23  O   UNL     1       1.139  11.948  21.076  0.00  0.00    +0.000 OA
ENDBRANCH  17  20
ENDBRANCH   3  14
BRANCH   1  25
ATOM     24  C   UNL     1       5.657   4.534  14.277  0.00  0.00    +0.000 C 
ATOM     25  C   UNL     1       6.012   5.333  15.509  0.00  0.00    +0.000 C 
ATOM     26  O   UNL     1       7.157   5.764  15.636  0.00  0.00    +0.000 OA
ENDBRANCH   1  25
TORSDOF 4
ENDMDL
MODEL 5
REMARK VINA RESULT:      -8.5      0.992      1.516
REMARK  Name = 
REMARK  7 active torsions:
REMARK  status: ('A' for Active; 'I' for Inactive)
REMARK    1  A    between atoms: C_1  and  C_2
REMARK    2  A    between atoms: C_2  and  C_4
REMARK    3  A    between atoms: C_6  and  C_7
REMARK    4  A    between atoms: C_10  and  S_11
REMARK    5  A    between atoms: S_11  and  C_12
REMARK    6  A    between atoms: N_17  and  C_18
REMARK    7  A    between atoms: C_25  and  C_26
REMARK                            x       y       z     vdW  Elec       q    Type
REMARK                         _______ _______ _______ _____ _____    ______ ____
ROOT
ATOM      1  C   UNL     1       4.801   5.030  16.324  0.00  0.00    +0.000 A 
ATOM      2  C   UNL     1       4.219   6.256  16.741  0.00  0.00    +0.000 A 
ATOM      3  C   UNL     1       3.400   6.041  17.843  0.00  0.00    +0.000 A 
ATOM      4  N   UNL     1       3.445   4.655  18.112  0.00  0.00    +0.000 N 
ATOM      5  C   UNL     1       4.306   4.057  17.187  0.00  0.00    +0.000 A 
ATOM      6  C   UNL     1       4.571   2.583  17.078  0.00  0.00    +0.000 C 
ENDROOT
BRANCH   4   7
ATOM      7  C   UNL     1       2.736   3.971  19.158  0.00  0.00    +0.000 A 
ATOM      8  C   UNL     1       1.347   3.784  19.072  0.00  0.00    +0.000 A 
ATOM      9  C   UNL     1       0.640   3.255  20.154  0.00  0.00    +0.000 A 
ATOM     10  C   UNL     1       1.328   2.852  21.292  0.00  0.00    +0.000 A 
ATOM     11  F   UNL     1       0.648   2.350  22.330  0.00  0.00    +0.000 F 
ATOM     12  C   UNL     1       2.709   2.976  21.372  0.00  0.00    +0.000 A 
ATOM     13  C   UNL     1       3.414   3.556  20.315  0.00  0.00    +0.000 A 
ENDBRANCH   4   7
BRANCH   3  14
ATOM     14  C   UNL     1       2.685   7.083  18.624  0.00  0.00    +0.000 A 
ATOM     15  C   UNL     1       2.269   8.274  18.003  0.00  0.00    +0.000 A 
ATOM     16  C   UNL     1       1.537   9.242  18.705  0.00  0.00    +0.000 A 
ATOM     17  C   UNL     1       1.184   9.008  20.035  0.00  0.00    +0.000 A 
ATOM     18  C   UNL     1       1.625   7.858  20.686  0.00  0.00    +0.000 A 
ATOM     19  C   UNL     1       2.406   6.930  19.991  0.00  0.00    +0.000 A 
BRANCH  17  20
ATOM     20  S   UNL     1       0.245  10.219  20.939  0.00  0.00    +0.000 S 
ATOM     21  C   UNL     1      -0.896  10.857  19.740  0.00  0.00    +0.000 C 
ATOM     22  O   UNL     1      -0.519   9.512  21.949  0.00  0.00    +0.000 OA
ATOM     23  O   UNL     1       1.155  11.285  21.309  0.00  0.00    +0.000 OA
ENDBRANCH  17  20
ENDBRANCH   3  14
BRANCH   1  25
ATOM     24  C   UNL     1       7.203   5.068  15.422  0.00  0.00    +0.000 C 
ATOM     25  C   UNL     1       5.732   4.796  15.208  0.00  0.00    +0.000 C 
ATOM     26  O   UNL     1       5.351   4.381  14.114  0.00  0.00    +0.000 OA
ENDBRANCH   1  25
TORSDOF 4
ENDMDL
MODEL 6
REMARK VINA RESULT:      -7.7      3.867      5.792
REMARK  Name = 
REMARK  7 active torsions:
REMARK  status: ('A' for Active; 'I' for Inactive)
REMARK    1  A    between atoms: C_1  and  C_2
REMARK    2  A    between atoms: C_2  and  C_4
REMARK    3  A    between atoms: C_6  and  C_7
REMARK    4  A    between atoms: C_10  and  S_11
REMARK    5  A    between atoms: S_11  and  C_12
REMARK    6  A    between atoms: N_17  and  C_18
REMARK    7  A    between atoms: C_25  and  C_26
REMARK                            x       y       z     vdW  Elec       q    Type
REMARK                         _______ _______ _______ _____ _____    ______ ____
ROOT
ATOM      1  C   UNL     1       5.814   3.794  13.582  0.00  0.00    +0.000 A 
ATOM      2  C   UNL     1       4.817   3.484  14.543  0.00  0.00    +0.000 A 
ATOM      3  C   UNL     1       5.100   4.124  15.743  0.00  0.00    +0.000 A 
ATOM      4  N   UNL     1       6.307   4.830  15.546  0.00  0.00    +0.000 N 
ATOM      5  C   UNL     1       6.723   4.625  14.228  0.00  0.00    +0.000 A 
ATOM      6  C   UNL     1       8.004   5.139  13.635  0.00  0.00    +0.000 C 
ENDROOT
BRANCH   4   7
ATOM      7  C   UNL     1       6.992   5.626  16.526  0.00  0.00    +0.000 A 
ATOM      8  C   UNL     1       7.547   5.029  17.669  0.00  0.00    +0.000 A 
ATOM      9  C   UNL     1       8.079   5.820  18.690  0.00  0.00    +0.000 A 
ATOM     10  C   UNL     1       8.116   7.200  18.538  0.00  0.00    +0.000 A 
ATOM     11  F   UNL     1       8.622   7.958  19.519  0.00  0.00    +0.000 F 
ATOM     12  C   UNL     1       7.625   7.806  17.389  0.00  0.00    +0.000 A 
ATOM     13  C   UNL     1       7.042   7.023  16.389  0.00  0.00    +0.000 A 
ENDBRANCH   4   7
BRANCH   3  14
ATOM     14  C   UNL     1       4.250   4.123  16.962  0.00  0.00    +0.000 A 
ATOM     15  C   UNL     1       3.676   5.320  17.428  0.00  0.00    +0.000 A 
ATOM     16  C   UNL     1       2.820   5.331  18.537  0.00  0.00    +0.000 A 
ATOM     17  C   UNL     1       2.501   4.130  19.174  0.00  0.00    +0.000 A 
ATOM     18  C   UNL     1       3.093   2.939  18.762  0.00  0.00    +0.000 A 
ATOM     19  C   UNL     1       3.993   2.951  17.691  0.00  0.00    +0.000 A 
BRANCH  17  20
ATOM     20  S   UNL     1       1.406   4.123  20.576  0.00  0.00    +0.000 S 
ATOM     21  C   UNL     1       2.316   3.249  21.823  0.00  0.00    +0.000 C 
ATOM     22  O   UNL     1       1.255   5.497  21.015  0.00  0.00    +0.000 OA
ATOM     23  O   UNL     1       0.249   3.328  20.219  0.00  0.00    +0.000 OA
ENDBRANCH  17  20
ENDBRANCH   3  14
BRANCH   1  25
ATOM     24  C   UNL     1       4.638   3.243  11.369  0.00  0.00    +0.000 C 
ATOM     25  C   UNL     1       5.907   3.338  12.184  0.00  0.00    +0.000 C 
ATOM     26  O   UNL     1       6.981   3.044  11.662  0.00  0.00    +0.000 OA
ENDBRANCH   1  25
TORSDOF 4
ENDMDL
MODEL 7
REMARK VINA RESULT:      -7.6      3.910      5.751
REMARK  Name = 
REMARK  7 active torsions:
REMARK  status: ('A' for Active; 'I' for Inactive)
REMARK    1  A    between atoms: C_1  and  C_2
REMARK    2  A    between atoms: C_2  and  C_4
REMARK    3  A    between atoms: C_6  and  C_7
REMARK    4  A    between atoms: C_10  and  S_11
REMARK    5  A    between atoms: S_11  and  C_12
REMARK    6  A    between atoms: N_17  and  C_18
REMARK    7  A    between atoms: C_25  and  C_26
REMARK                            x       y       z     vdW  Elec       q    Type
REMARK                         _______ _______ _______ _____ _____    ______ ____
ROOT
ATOM      1  C   UNL     1       6.050   3.924  13.666  0.00  0.00    +0.000 A 
ATOM      2  C   UNL     1       5.000   3.569  14.553  0.00  0.00    +0.000 A 
ATOM      3  C   UNL     1       5.158   4.231  15.764  0.00  0.00    +0.000 A 
ATOM      4  N   UNL     1       6.339   4.998  15.650  0.00  0.00    +0.000 N 
ATOM      5  C   UNL     1       6.864   4.807  14.369  0.00  0.00    +0.000 A 
ATOM      6  C   UNL     1       8.157   5.383  13.869  0.00  0.00    +0.000 C 
ENDROOT
BRANCH   4   7
ATOM      7  C   UNL     1       6.906   5.836  16.670  0.00  0.00    +0.000 A 
ATOM      8  C   UNL     1       6.958   7.230  16.500  0.00  0.00    +0.000 A 
ATOM      9  C   UNL     1       7.643   8.026  17.421  0.00  0.00    +0.000 A 
ATOM     10  C   UNL     1       8.214   7.440  18.543  0.00  0.00    +0.000 A 
ATOM     11  F   UNL     1       8.874   8.204  19.422  0.00  0.00    +0.000 F 
ATOM     12  C   UNL     1       8.122   6.071  18.759  0.00  0.00    +0.000 A 
ATOM     13  C   UNL     1       7.487   5.263  17.812  0.00  0.00    +0.000 A 
ENDBRANCH   4   7
BRANCH   3  14
ATOM     14  C   UNL     1       4.220   4.194  16.915  0.00  0.00    +0.000 A 
ATOM     15  C   UNL     1       3.849   2.965  17.489  0.00  0.00    +0.000 A 
ATOM     16  C   UNL     1       3.017   2.911  18.616  0.00  0.00    +0.000 A 
ATOM     17  C   UNL     1       2.573   4.097  19.203  0.00  0.00    +0.000 A 
ATOM     18  C   UNL     1       2.887   5.325  18.625  0.00  0.00    +0.000 A 
ATOM     19  C   UNL     1       3.668   5.362  17.466  0.00  0.00    +0.000 A 
BRANCH  17  20
ATOM     20  S   UNL     1       1.526   4.048  20.640  0.00  0.00    +0.000 S 
ATOM     21  C   UNL     1       2.408   3.010  21.775  0.00  0.00    +0.000 C 
ATOM     22  O   UNL     1       1.490   5.387  21.196  0.00  0.00    +0.000 OA
ATOM     23  O   UNL     1       0.303   3.369  20.262  0.00  0.00    +0.000 OA
ENDBRANCH  17  20
ENDBRANCH   3  14
BRANCH   1  25
ATOM     24  C   UNL     1       5.125   2.815  11.545  0.00  0.00    +0.000 C 
ATOM     25  C   UNL     1       6.271   3.465  12.284  0.00  0.00    +0.000 C 
ATOM     26  O   UNL     1       7.353   3.602  11.715  0.00  0.00    +0.000 OA
ENDBRANCH   1  25
TORSDOF 4
ENDMDL
MODEL 8
REMARK VINA RESULT:      -7.3      4.102      5.892
REMARK  Name = 
REMARK  7 active torsions:
REMARK  status: ('A' for Active; 'I' for Inactive)
REMARK    1  A    between atoms: C_1  and  C_2
REMARK    2  A    between atoms: C_2  and  C_4
REMARK    3  A    between atoms: C_6  and  C_7
REMARK    4  A    between atoms: C_10  and  S_11
REMARK    5  A    between atoms: S_11  and  C_12
REMARK    6  A    between atoms: N_17  and  C_18
REMARK    7  A    between atoms: C_25  and  C_26
REMARK                            x       y       z     vdW  Elec       q    Type
REMARK                         _______ _______ _______ _____ _____    ______ ____
ROOT
ATOM      1  C   UNL     1       5.895   3.854  13.742  0.00  0.00    +0.000 A 
ATOM      2  C   UNL     1       4.934   3.450  14.705  0.00  0.00    +0.000 A 
ATOM      3  C   UNL     1       5.150   4.123  15.901  0.00  0.00    +0.000 A 
ATOM      4  N   UNL     1       6.279   4.947  15.700  0.00  0.00    +0.000 N 
ATOM      5  C   UNL     1       6.714   4.778  14.382  0.00  0.00    +0.000 A 
ATOM      6  C   UNL     1       7.936   5.416  13.786  0.00  0.00    +0.000 C 
ENDROOT
BRANCH   4   7
ATOM      7  C   UNL     1       6.879   5.815  16.674  0.00  0.00    +0.000 A 
ATOM      8  C   UNL     1       6.907   7.205  16.469  0.00  0.00    +0.000 A 
ATOM      9  C   UNL     1       7.621   8.030  17.341  0.00  0.00    +0.000 A 
ATOM     10  C   UNL     1       8.248   7.478  18.450  0.00  0.00    +0.000 A 
ATOM     11  F   UNL     1       8.935   8.270  19.282  0.00  0.00    +0.000 F 
ATOM     12  C   UNL     1       8.182   6.113  18.701  0.00  0.00    +0.000 A 
ATOM     13  C   UNL     1       7.517   5.275  17.802  0.00  0.00    +0.000 A 
ENDBRANCH   4   7
BRANCH   3  14
ATOM     14  C   UNL     1       4.305   4.043  17.120  0.00  0.00    +0.000 A 
ATOM     15  C   UNL     1       3.700   5.201  17.642  0.00  0.00    +0.000 A 
ATOM     16  C   UNL     1       2.847   5.138  18.752  0.00  0.00    +0.000 A 
ATOM     17  C   UNL     1       2.563   3.901  19.334  0.00  0.00    +0.000 A 
ATOM     18  C   UNL     1       3.186   2.746  18.866  0.00  0.00    +0.000 A 
ATOM     19  C   UNL     1       4.082   2.832  17.796  0.00  0.00    +0.000 A 
BRANCH  17  20
ATOM     20  S   UNL     1       1.473   3.800  20.736  0.00  0.00    +0.000 S 
ATOM     21  C   UNL     1       1.012   5.485  21.041  0.00  0.00    +0.000 C 
ATOM     22  O   UNL     1       0.286   3.082  20.314  0.00  0.00    +0.000 OA
ATOM     23  O   UNL     1       2.258   3.335  21.862  0.00  0.00    +0.000 OA
ENDBRANCH  17  20
ENDBRANCH   3  14
BRANCH   1  25
ATOM     24  C   UNL     1       4.786   3.243  11.510  0.00  0.00    +0.000 C 
ATOM     25  C   UNL     1       6.033   3.402  12.347  0.00  0.00    +0.000 C 
ATOM     26  O   UNL     1       7.130   3.160  11.844  0.00  0.00    +0.000 OA
ENDBRANCH   1  25
TORSDOF 4
ENDMDL
MODEL 9
REMARK VINA RESULT:      -7.2      1.575      2.082
REMARK  Name = 
REMARK  7 active torsions:
REMARK  status: ('A' for Active; 'I' for Inactive)
REMARK    1  A    between atoms: C_1  and  C_2
REMARK    2  A    between atoms: C_2  and  C_4
REMARK    3  A    between atoms: C_6  and  C_7
REMARK    4  A    between atoms: C_10  and  S_11
REMARK    5  A    between atoms: S_11  and  C_12
REMARK    6  A    between atoms: N_17  and  C_18
REMARK    7  A    between atoms: C_25  and  C_26
REMARK                            x       y       z     vdW  Elec       q    Type
REMARK                         _______ _______ _______ _____ _____    ______ ____
ROOT
ATOM      1  C   UNL     1       5.665   6.648  17.486  0.00  0.00    +0.000 A 
ATOM      2  C   UNL     1       4.777   7.750  17.594  0.00  0.00    +0.000 A 
ATOM      3  C   UNL     1       3.559   7.329  18.113  0.00  0.00    +0.000 A 
ATOM      4  N   UNL     1       3.669   5.935  18.313  0.00  0.00    +0.000 N 
ATOM      5  C   UNL     1       4.955   5.538  17.936  0.00  0.00    +0.000 A 
ATOM      6  C   UNL     1       5.455   4.122  17.921  0.00  0.00    +0.000 C 
ENDROOT
BRANCH   4   7
ATOM      7  C   UNL     1       2.642   5.068  18.822  0.00  0.00    +0.000 A 
ATOM      8  C   UNL     1       2.485   4.886  20.206  0.00  0.00    +0.000 A 
ATOM      9  C   UNL     1       1.588   3.932  20.692  0.00  0.00    +0.000 A 
ATOM     10  C   UNL     1       0.804   3.210  19.801  0.00  0.00    +0.000 A 
ATOM     11  F   UNL     1      -0.051   2.292  20.269  0.00  0.00    +0.000 F 
ATOM     12  C   UNL     1       0.904   3.418  18.432  0.00  0.00    +0.000 A 
ATOM     13  C   UNL     1       1.839   4.331  17.937  0.00  0.00    +0.000 A 
ENDBRANCH   4   7
BRANCH   3  14
ATOM     14  C   UNL     1       2.404   8.196  18.458  0.00  0.00    +0.000 A 
ATOM     15  C   UNL     1       1.971   8.303  19.793  0.00  0.00    +0.000 A 
ATOM     16  C   UNL     1       0.924   9.165  20.150  0.00  0.00    +0.000 A 
ATOM     17  C   UNL     1       0.320   9.958  19.173  0.00  0.00    +0.000 A 
ATOM     18  C   UNL     1       0.698   9.835  17.837  0.00  0.00    +0.000 A 
ATOM     19  C   UNL     1       1.702   8.927  17.486  0.00  0.00    +0.000 A 
BRANCH  17  20
ATOM     20  S   UNL     1      -1.001  11.066  19.610  0.00  0.00    +0.000 S 
ATOM     21  C   UNL     1      -2.354  10.539  18.591  0.00  0.00    +0.000 C 
ATOM     22  O   UNL     1      -1.353  10.798  20.991  0.00  0.00    +0.000 OA
ATOM     23  O   UNL     1      -0.608  12.396  19.189  0.00  0.00    +0.000 OA
ENDBRANCH  17  20
ENDBRANCH   3  14
BRANCH   1  25
ATOM     24  C   UNL     1       8.075   7.502  17.697  0.00  0.00    +0.000 C 
ATOM     25  C   UNL     1       7.053   6.639  16.995  0.00  0.00    +0.000 C 
ATOM     26  O   UNL     1       7.404   5.948  16.040  0.00  0.00    +0.000 OA
ENDBRANCH   1  25
TORSDOF 4
ENDMDL
