MODEL 1
REMARK VINA RESULT:      -7.7      0.000      0.000
REMARK  Name = 
REMARK  12 active torsions:
REMARK  status: ('A' for Active; 'I' for Inactive)
REMARK    1  A    between atoms: C_1  and  O_2
REMARK    2  A    between atoms: O_2  and  C_3
REMARK    3  A    between atoms: C_9  and  C_10
REMARK    4  A    between atoms: C_10  and  C_11
REMARK    5  A    between atoms: C_11  and  O_13
REMARK    6  A    between atoms: O_13  and  C_14
REMARK    7  A    between atoms: C_14  and  C_15
REMARK    8  A    between atoms: C_14  and  C_17
REMARK    9  A    between atoms: C_15  and  O_16
REMARK   10  A    between atoms: C_17  and  O_18
REMARK   11  A    between atoms: C_19  and  C_20
REMARK   12  A    between atoms: C_22  and  C_24
REMARK                            x       y       z     vdW  Elec       q    Type
REMARK                         _______ _______ _______ _____ _____    ______ ____
ROOT
ATOM      1  C   UNL     1       3.096   3.317  20.500  0.00  0.00    +0.000 A 
ATOM      2  C   UNL     1       2.106   4.253  20.756  0.00  0.00    +0.000 A 
ATOM      3  C   UNL     1       1.980   5.398  19.966  0.00  0.00    +0.000 A 
ATOM      4  C   UNL     1       2.920   5.644  18.945  0.00  0.00    +0.000 A 
ATOM      5  C   UNL     1       3.880   4.679  18.623  0.00  0.00    +0.000 A 
ATOM      6  C   UNL     1       3.964   3.512  19.419  0.00  0.00    +0.000 A 
ATOM      7  C   UNL     1       4.562   5.121  17.449  0.00  0.00    +0.000 A 
ATOM      8  C   UNL     1       4.069   6.386  17.145  0.00  0.00    +0.000 A 
ATOM      9  C   UNL     1       4.494   7.318  16.056  0.00  0.00    +0.000 C 
ATOM     10  N   UNL     1       3.094   6.738  18.088  0.00  0.00    +0.000 N 
ATOM     11  C   UNL     1       2.396   7.982  18.141  0.00  0.00    +0.000 C 
ATOM     12  O   UNL     1       2.327   8.649  17.108  0.00  0.00    +0.000 OA
ENDROOT
BRANCH  11  13
ATOM     13  C   UNL     1       1.729   8.544  19.344  0.00  0.00    +0.000 A 
ATOM     14  C   UNL     1       2.024   8.073  20.629  0.00  0.00    +0.000 A 
ATOM     15  C   UNL     1       1.288   8.531  21.725  0.00  0.00    +0.000 A 
ATOM     16  C   UNL     1       0.308   9.508  21.545  0.00  0.00    +0.000 A 
ATOM     17 CL   UNL     1      -0.634  10.029  22.886  0.00  0.00    +0.000 Cl
ATOM     18  C   UNL     1       0.077  10.050  20.282  0.00  0.00    +0.000 A 
ATOM     19  C   UNL     1       0.789   9.571  19.179  0.00  0.00    +0.000 A 
ENDBRANCH  11  13
BRANCH   1  21
ATOM     20  C   UNL     1       4.582   1.562  21.096  0.00  0.00    +0.000 C 
ATOM     21  O   UNL     1       3.297   2.165  21.212  0.00  0.00    +0.000 OA
ENDBRANCH   1  21
BRANCH   7  22
ATOM     22  C   UNL     1       5.582   4.331  16.670  0.00  0.00    +0.000 C 
BRANCH  22  23
ATOM     23  C   UNL     1       6.975   4.931  16.677  0.00  0.00    +0.000 C 
ATOM     24  O   UNL     1       7.478   5.616  15.801  0.00  0.00    +0.000 OA
BRANCH  23  25
ATOM     25  O   UNL     1       7.634   4.528  17.812  0.00  0.00    +0.000 OA
BRANCH  25  26
ATOM     26  C   UNL     1       8.065   5.598  18.696  0.00  0.00    +0.000 C 
BRANCH  26  27
ATOM     27  C   UNL     1       7.764   6.989  18.120  0.00  0.00    +0.000 C 
BRANCH  27  28
ATOM     28  O   UNL     1       8.555   7.995  18.750  0.00  0.00    +0.000 OA
ATOM     29  H   UNL     1       8.125   8.192  19.606  0.00  0.00    +0.000 HD
ENDBRANCH  27  28
ENDBRANCH  26  27
BRANCH  26  30
ATOM     30  C   UNL     1       7.339   5.408  20.037  0.00  0.00    +0.000 C 
BRANCH  30  31
ATOM     31  O   UNL     1       8.283   5.256  21.098  0.00  0.00    +0.000 OA
ATOM     32  H   UNL     1       8.334   4.300  21.280  0.00  0.00    +0.000 HD
ENDBRANCH  30  31
ENDBRANCH  26  30
ENDBRANCH  25  26
ENDBRANCH  23  25
ENDBRANCH  22  23
ENDBRANCH   7  22
TORSDOF 10
ENDMDL
MODEL 2
REMARK VINA RESULT:      -7.5      5.871     10.762
REMARK  Name = 
REMARK  12 active torsions:
REMARK  status: ('A' for Active; 'I' for Inactive)
REMARK    1  A    between atoms: C_1  and  O_2
REMARK    2  A    between atoms: O_2  and  C_3
REMARK    3  A    between atoms: C_9  and  C_10
REMARK    4  A    between atoms: C_10  and  C_11
REMARK    5  A    between atoms: C_11  and  O_13
REMARK    6  A    between atoms: O_13  and  C_14
REMARK    7  A    between atoms: C_14  and  C_15
REMARK    8  A    between atoms: C_14  and  C_17
REMARK    9  A    between atoms: C_15  and  O_16
REMARK   10  A    between atoms: C_17  and  O_18
REMARK   11  A    between atoms: C_19  and  C_20
REMARK   12  A    between atoms: C_22  and  C_24
REMARK                            x       y       z     vdW  Elec       q    Type
REMARK                         _______ _______ _______ _____ _____    ______ ____
ROOT
ATOM      1  C   UNL     1      -3.237  10.883  16.917  0.00  0.00    +0.000 A 
ATOM      2  C   UNL     1      -2.378   9.802  17.039  0.00  0.00    +0.000 A 
ATOM      3  C   UNL     1      -1.596   9.633  18.184  0.00  0.00    +0.000 A 
ATOM      4  C   UNL     1      -1.620  10.618  19.193  0.00  0.00    +0.000 A 
ATOM      5  C   UNL     1      -2.531  11.676  19.124  0.00  0.00    +0.000 A 
ATOM      6  C   UNL     1      -3.337  11.805  17.967  0.00  0.00    +0.000 A 
ATOM      7  C   UNL     1      -2.453  12.397  20.354  0.00  0.00    +0.000 A 
ATOM      8  C   UNL     1      -1.429  11.820  21.097  0.00  0.00    +0.000 A 
ATOM      9  C   UNL     1      -0.890  12.238  22.429  0.00  0.00    +0.000 C 
ATOM     10  N   UNL     1      -0.877  10.756  20.372  0.00  0.00    +0.000 N 
ATOM     11  C   UNL     1       0.230   9.953  20.781  0.00  0.00    +0.000 C 
ATOM     12  O   UNL     1       0.489   9.898  21.984  0.00  0.00    +0.000 OA
ENDROOT
BRANCH  11  13
ATOM     13  C   UNL     1       1.100   9.159  19.875  0.00  0.00    +0.000 A 
ATOM     14  C   UNL     1       1.526   7.869  20.218  0.00  0.00    +0.000 A 
ATOM     15  C   UNL     1       2.445   7.201  19.405  0.00  0.00    +0.000 A 
ATOM     16  C   UNL     1       2.883   7.791  18.219  0.00  0.00    +0.000 A 
ATOM     17 CL   UNL     1       4.056   6.990  17.250  0.00  0.00    +0.000 Cl
ATOM     18  C   UNL     1       2.388   9.033  17.825  0.00  0.00    +0.000 A 
ATOM     19  C   UNL     1       1.493   9.718  18.651  0.00  0.00    +0.000 A 
ENDBRANCH  11  13
BRANCH   1  21
ATOM     20  C   UNL     1      -3.789  10.377  14.663  0.00  0.00    +0.000 C 
ATOM     21  O   UNL     1      -4.046  11.133  15.841  0.00  0.00    +0.000 OA
ENDBRANCH   1  21
BRANCH   7  22
ATOM     22  C   UNL     1      -3.352  13.531  20.771  0.00  0.00    +0.000 C 
BRANCH  22  23
ATOM     23  C   UNL     1      -4.771  13.114  21.107  0.00  0.00    +0.000 C 
ATOM     24  O   UNL     1      -5.787  13.443  20.515  0.00  0.00    +0.000 OA
BRANCH  23  25
ATOM     25  O   UNL     1      -4.758  12.345  22.244  0.00  0.00    +0.000 OA
BRANCH  25  26
ATOM     26  C   UNL     1      -5.208  13.013  23.454  0.00  0.00    +0.000 C 
BRANCH  26  27
ATOM     27  C   UNL     1      -6.646  12.630  23.833  0.00  0.00    +0.000 C 
BRANCH  27  28
ATOM     28  O   UNL     1      -7.282  13.670  24.574  0.00  0.00    +0.000 OA
ATOM     29  H   UNL     1      -7.148  13.460  25.520  0.00  0.00    +0.000 HD
ENDBRANCH  27  28
ENDBRANCH  26  27
BRANCH  26  30
ATOM     30  C   UNL     1      -4.239  12.628  24.582  0.00  0.00    +0.000 C 
BRANCH  30  31
ATOM     31  O   UNL     1      -3.789  13.794  25.274  0.00  0.00    +0.000 OA
ATOM     32  H   UNL     1      -3.743  14.504  24.608  0.00  0.00    +0.000 HD
ENDBRANCH  30  31
ENDBRANCH  26  30
ENDBRANCH  25  26
ENDBRANCH  23  25
ENDBRANCH  22  23
ENDBRANCH   7  22
TORSDOF 10
ENDMDL
MODEL 3
REMARK VINA RESULT:      -7.5      5.762     10.730
REMARK  Name = 
REMARK  12 active torsions:
REMARK  status: ('A' for Active; 'I' for Inactive)
REMARK    1  A    between atoms: C_1  and  O_2
REMARK    2  A    between atoms: O_2  and  C_3
REMARK    3  A    between atoms: C_9  and  C_10
REMARK    4  A    between atoms: C_10  and  C_11
REMARK    5  A    between atoms: C_11  and  O_13
REMARK    6  A    between atoms: O_13  and  C_14
REMARK    7  A    between atoms: C_14  and  C_15
REMARK    8  A    between atoms: C_14  and  C_17
REMARK    9  A    between atoms: C_15  and  O_16
REMARK   10  A    between atoms: C_17  and  O_18
REMARK   11  A    between atoms: C_19  and  C_20
REMARK   12  A    between atoms: C_22  and  C_24
REMARK                            x       y       z     vdW  Elec       q    Type
REMARK                         _______ _______ _______ _____ _____    ______ ____
ROOT
ATOM      1  C   UNL     1      -2.650  10.870  16.572  0.00  0.00    +0.000 A 
ATOM      2  C   UNL     1      -1.832   9.762  16.727  0.00  0.00    +0.000 A 
ATOM      3  C   UNL     1      -1.185   9.512  17.939  0.00  0.00    +0.000 A 
ATOM      4  C   UNL     1      -1.301  10.441  18.993  0.00  0.00    +0.000 A 
ATOM      5  C   UNL     1      -2.178  11.524  18.884  0.00  0.00    +0.000 A 
ATOM      6  C   UNL     1      -2.847  11.736  17.656  0.00  0.00    +0.000 A 
ATOM      7  C   UNL     1      -2.222  12.176  20.154  0.00  0.00    +0.000 A 
ATOM      8  C   UNL     1      -1.298  11.533  20.971  0.00  0.00    +0.000 A 
ATOM      9  C   UNL     1      -0.902  11.865  22.375  0.00  0.00    +0.000 C 
ATOM     10  N   UNL     1      -0.690  10.496  20.252  0.00  0.00    +0.000 N 
ATOM     11  C   UNL     1       0.349   9.644  20.734  0.00  0.00    +0.000 C 
ATOM     12  O   UNL     1       0.472   9.518  21.953  0.00  0.00    +0.000 OA
ENDROOT
BRANCH  11  13
ATOM     13  C   UNL     1       1.297   8.877  19.885  0.00  0.00    +0.000 A 
ATOM     14  C   UNL     1       1.773   9.394  18.674  0.00  0.00    +0.000 A 
ATOM     15  C   UNL     1       2.561   8.597  17.839  0.00  0.00    +0.000 A 
ATOM     16  C   UNL     1       2.928   7.314  18.246  0.00  0.00    +0.000 A 
ATOM     17 CL   UNL     1       3.851   6.317  17.192  0.00  0.00    +0.000 Cl
ATOM     18  C   UNL     1       2.537   6.831  19.493  0.00  0.00    +0.000 A 
ATOM     19  C   UNL     1       1.723   7.613  20.317  0.00  0.00    +0.000 A 
ENDBRANCH  11  13
BRANCH   1  21
ATOM     20  C   UNL     1      -3.565  10.143  14.504  0.00  0.00    +0.000 C 
ATOM     21  O   UNL     1      -3.330  11.199  15.430  0.00  0.00    +0.000 OA
ENDBRANCH   1  21
BRANCH   7  22
ATOM     22  C   UNL     1      -3.138  13.310  20.534  0.00  0.00    +0.000 C 
BRANCH  22  23
ATOM     23  C   UNL     1      -4.575  12.894  20.788  0.00  0.00    +0.000 C 
ATOM     24  O   UNL     1      -5.484  12.880  19.973  0.00  0.00    +0.000 OA
BRANCH  23  25
ATOM     25  O   UNL     1      -4.728  12.590  22.118  0.00  0.00    +0.000 OA
BRANCH  25  26
ATOM     26  C   UNL     1      -5.819  13.274  22.791  0.00  0.00    +0.000 C 
BRANCH  26  27
ATOM     27  C   UNL     1      -6.272  12.543  24.064  0.00  0.00    +0.000 C 
BRANCH  27  28
ATOM     28  O   UNL     1      -5.161  12.201  24.890  0.00  0.00    +0.000 OA
ATOM     29  H   UNL     1      -5.458  11.469  25.467  0.00  0.00    +0.000 HD
ENDBRANCH  27  28
ENDBRANCH  26  27
BRANCH  26  30
ATOM     30  C   UNL     1      -5.332  14.690  23.136  0.00  0.00    +0.000 C 
BRANCH  30  31
ATOM     31  O   UNL     1      -5.862  15.108  24.395  0.00  0.00    +0.000 OA
ATOM     32  H   UNL     1      -5.166  15.645  24.817  0.00  0.00    +0.000 HD
ENDBRANCH  30  31
ENDBRANCH  26  30
ENDBRANCH  25  26
ENDBRANCH  23  25
ENDBRANCH  22  23
ENDBRANCH   7  22
TORSDOF 10
ENDMDL
MODEL 4
REMARK VINA RESULT:      -7.4      0.903      1.264
REMARK  Name = 
REMARK  12 active torsions:
REMARK  status: ('A' for Active; 'I' for Inactive)
REMARK    1  A    between atoms: C_1  and  O_2
REMARK    2  A    between atoms: O_2  and  C_3
REMARK    3  A    between atoms: C_9  and  C_10
REMARK    4  A    between atoms: C_10  and  C_11
REMARK    5  A    between atoms: C_11  and  O_13
REMARK    6  A    between atoms: O_13  and  C_14
REMARK    7  A    between atoms: C_14  and  C_15
REMARK    8  A    between atoms: C_14  and  C_17
REMARK    9  A    between atoms: C_15  and  O_16
REMARK   10  A    between atoms: C_17  and  O_18
REMARK   11  A    between atoms: C_19  and  C_20
REMARK   12  A    between atoms: C_22  and  C_24
REMARK                            x       y       z     vdW  Elec       q    Type
REMARK                         _______ _______ _______ _____ _____    ______ ____
ROOT
ATOM      1  C   UNL     1       2.149   3.152  19.776  0.00  0.00    +0.000 A 
ATOM      2  C   UNL     1       1.259   4.184  20.032  0.00  0.00    +0.000 A 
ATOM      3  C   UNL     1       1.387   5.418  19.390  0.00  0.00    +0.000 A 
ATOM      4  C   UNL     1       2.482   5.643  18.531  0.00  0.00    +0.000 A 
ATOM      5  C   UNL     1       3.348   4.596  18.203  0.00  0.00    +0.000 A 
ATOM      6  C   UNL     1       3.175   3.345  18.842  0.00  0.00    +0.000 A 
ATOM      7  C   UNL     1       4.234   5.068  17.187  0.00  0.00    +0.000 A 
ATOM      8  C   UNL     1       3.950   6.416  16.996  0.00  0.00    +0.000 A 
ATOM      9  C   UNL     1       4.634   7.398  16.098  0.00  0.00    +0.000 C 
ATOM     10  N   UNL     1       2.907   6.793  17.853  0.00  0.00    +0.000 N 
ATOM     11  C   UNL     1       2.371   8.109  17.986  0.00  0.00    +0.000 C 
ATOM     12  O   UNL     1       2.528   8.893  17.049  0.00  0.00    +0.000 OA
ENDROOT
BRANCH  11  13
ATOM     13  C   UNL     1       1.621   8.618  19.163  0.00  0.00    +0.000 A 
ATOM     14  C   UNL     1       0.639   9.609  19.030  0.00  0.00    +0.000 A 
ATOM     15  C   UNL     1       0.044  10.157  20.170  0.00  0.00    +0.000 A 
ATOM     16  C   UNL     1       0.380   9.668  21.432  0.00  0.00    +0.000 A 
ATOM     17 CL   UNL     1      -0.313  10.383  22.835  0.00  0.00    +0.000 Cl
ATOM     18  C   UNL     1       1.285   8.616  21.564  0.00  0.00    +0.000 A 
ATOM     19  C   UNL     1       1.905   8.087  20.429  0.00  0.00    +0.000 A 
ENDBRANCH  11  13
BRANCH   1  21
ATOM     20  C   UNL     1       2.133   1.863  21.770  0.00  0.00    +0.000 C 
ATOM     21  O   UNL     1       2.105   1.909  20.348  0.00  0.00    +0.000 OA
ENDBRANCH   1  21
BRANCH   7  22
ATOM     22  C   UNL     1       5.244   4.237  16.440  0.00  0.00    +0.000 C 
BRANCH  22  23
ATOM     23  C   UNL     1       6.683   4.480  16.853  0.00  0.00    +0.000 C 
ATOM     24  O   UNL     1       7.671   4.383  16.143  0.00  0.00    +0.000 OA
BRANCH  23  25
ATOM     25  O   UNL     1       6.725   4.768  18.195  0.00  0.00    +0.000 OA
BRANCH  25  26
ATOM     26  C   UNL     1       7.768   5.695  18.600  0.00  0.00    +0.000 C 
BRANCH  26  27
ATOM     27  C   UNL     1       7.524   7.117  18.073  0.00  0.00    +0.000 C 
BRANCH  27  28
ATOM     28  O   UNL     1       7.959   7.251  16.721  0.00  0.00    +0.000 OA
ATOM     29  H   UNL     1       8.877   6.914  16.689  0.00  0.00    +0.000 HD
ENDBRANCH  27  28
ENDBRANCH  26  27
BRANCH  26  30
ATOM     30  C   UNL     1       7.812   5.697  20.136  0.00  0.00    +0.000 C 
BRANCH  30  31
ATOM     31  O   UNL     1       8.976   5.014  20.603  0.00  0.00    +0.000 OA
ATOM     32  H   UNL     1       9.726   5.615  20.442  0.00  0.00    +0.000 HD
ENDBRANCH  30  31
ENDBRANCH  26  30
ENDBRANCH  25  26
ENDBRANCH  23  25
ENDBRANCH  22  23
ENDBRANCH   7  22
TORSDOF 10
ENDMDL
MODEL 5
REMARK VINA RESULT:      -7.3      5.767     10.861
REMARK  Name = 
REMARK  12 active torsions:
REMARK  status: ('A' for Active; 'I' for Inactive)
REMARK    1  A    between atoms: C_1  and  O_2
REMARK    2  A    between atoms: O_2  and  C_3
REMARK    3  A    between atoms: C_9  and  C_10
REMARK    4  A    between atoms: C_10  and  C_11
REMARK    5  A    between atoms: C_11  and  O_13
REMARK    6  A    between atoms: O_13  and  C_14
REMARK    7  A    between atoms: C_14  and  C_15
REMARK    8  A    between atoms: C_14  and  C_17
REMARK    9  A    between atoms: C_15  and  O_16
REMARK   10  A    between atoms: C_17  and  O_18
REMARK   11  A    between atoms: C_19  and  C_20
REMARK   12  A    between atoms: C_22  and  C_24
REMARK                            x       y       z     vdW  Elec       q    Type
REMARK                         _______ _______ _______ _____ _____    ______ ____
ROOT
ATOM      1  C   UNL     1      -2.827  10.904  16.678  0.00  0.00    +0.000 A 
ATOM      2  C   UNL     1      -1.987   9.812  16.829  0.00  0.00    +0.000 A 
ATOM      3  C   UNL     1      -1.305   9.593  18.028  0.00  0.00    +0.000 A 
ATOM      4  C   UNL     1      -1.410  10.537  19.070  0.00  0.00    +0.000 A 
ATOM      5  C   UNL     1      -2.307  11.605  18.965  0.00  0.00    +0.000 A 
ATOM      6  C   UNL     1      -3.012  11.785  17.751  0.00  0.00    +0.000 A 
ATOM      7  C   UNL     1      -2.330  12.277  20.225  0.00  0.00    +0.000 A 
ATOM      8  C   UNL     1      -1.375  11.663  21.029  0.00  0.00    +0.000 A 
ATOM      9  C   UNL     1      -0.950  12.025  22.417  0.00  0.00    +0.000 C 
ATOM     10  N   UNL     1      -0.769  10.624  20.312  0.00  0.00    +0.000 N 
ATOM     11  C   UNL     1       0.296   9.797  20.781  0.00  0.00    +0.000 C 
ATOM     12  O   UNL     1       0.452   9.693  21.998  0.00  0.00    +0.000 OA
ENDROOT
BRANCH  11  13
ATOM     13  C   UNL     1       1.235   9.032  19.921  0.00  0.00    +0.000 A 
ATOM     14  C   UNL     1       1.688   9.545  18.699  0.00  0.00    +0.000 A 
ATOM     15  C   UNL     1       2.468   8.749  17.855  0.00  0.00    +0.000 A 
ATOM     16  C   UNL     1       2.849   7.471  18.263  0.00  0.00    +0.000 A 
ATOM     17 CL   UNL     1       3.762   6.473  17.199  0.00  0.00    +0.000 Cl
ATOM     18  C   UNL     1       2.482   6.991  19.519  0.00  0.00    +0.000 A 
ATOM     19  C   UNL     1       1.676   7.773  20.352  0.00  0.00    +0.000 A 
ENDBRANCH  11  13
BRANCH   1  21
ATOM     20  C   UNL     1      -3.538  10.222  14.516  0.00  0.00    +0.000 C 
ATOM     21  O   UNL     1      -3.541  11.203  15.548  0.00  0.00    +0.000 OA
ENDBRANCH   1  21
BRANCH   7  22
ATOM     22  C   UNL     1      -3.256  13.401  20.610  0.00  0.00    +0.000 C 
BRANCH  22  23
ATOM     23  C   UNL     1      -4.453  12.971  21.436  0.00  0.00    +0.000 C 
ATOM     24  O   UNL     1      -4.633  13.183  22.625  0.00  0.00    +0.000 OA
BRANCH  23  25
ATOM     25  O   UNL     1      -5.301  12.229  20.650  0.00  0.00    +0.000 OA
BRANCH  25  26
ATOM     26  C   UNL     1      -6.714  12.361  20.962  0.00  0.00    +0.000 C 
BRANCH  26  27
ATOM     27  C   UNL     1      -7.306  13.682  20.447  0.00  0.00    +0.000 C 
BRANCH  27  28
ATOM     28  O   UNL     1      -7.781  14.492  21.521  0.00  0.00    +0.000 OA
ATOM     29  H   UNL     1      -7.827  15.407  21.180  0.00  0.00    +0.000 HD
ENDBRANCH  27  28
ENDBRANCH  26  27
BRANCH  26  30
ATOM     30  C   UNL     1      -7.441  11.167  20.325  0.00  0.00    +0.000 C 
BRANCH  30  31
ATOM     31  O   UNL     1      -7.403  10.036  21.196  0.00  0.00    +0.000 OA
ATOM     32  H   UNL     1      -7.635  10.368  22.082  0.00  0.00    +0.000 HD
ENDBRANCH  30  31
ENDBRANCH  26  30
ENDBRANCH  25  26
ENDBRANCH  23  25
ENDBRANCH  22  23
ENDBRANCH   7  22
TORSDOF 10
ENDMDL
MODEL 6
REMARK VINA RESULT:      -7.2      5.936     10.896
REMARK  Name = 
REMARK  12 active torsions:
REMARK  status: ('A' for Active; 'I' for Inactive)
REMARK    1  A    between atoms: C_1  and  O_2
REMARK    2  A    between atoms: O_2  and  C_3
REMARK    3  A    between atoms: C_9  and  C_10
REMARK    4  A    between atoms: C_10  and  C_11
REMARK    5  A    between atoms: C_11  and  O_13
REMARK    6  A    between atoms: O_13  and  C_14
REMARK    7  A    between atoms: C_14  and  C_15
REMARK    8  A    between atoms: C_14  and  C_17
REMARK    9  A    between atoms: C_15  and  O_16
REMARK   10  A    between atoms: C_17  and  O_18
REMARK   11  A    between atoms: C_19  and  C_20
REMARK   12  A    between atoms: C_22  and  C_24
REMARK                            x       y       z     vdW  Elec       q    Type
REMARK                         _______ _______ _______ _____ _____    ______ ____
ROOT
ATOM      1  C   UNL     1      -3.608  11.025  17.532  0.00  0.00    +0.000 A 
ATOM      2  C   UNL     1      -2.781   9.929  17.725  0.00  0.00    +0.000 A 
ATOM      3  C   UNL     1      -1.806   9.934  18.725  0.00  0.00    +0.000 A 
ATOM      4  C   UNL     1      -1.607  11.098  19.495  0.00  0.00    +0.000 A 
ATOM      5  C   UNL     1      -2.475  12.185  19.366  0.00  0.00    +0.000 A 
ATOM      6  C   UNL     1      -3.477  12.141  18.367  0.00  0.00    +0.000 A 
ATOM      7  C   UNL     1      -2.144  13.129  20.386  0.00  0.00    +0.000 A 
ATOM      8  C   UNL     1      -1.021  12.637  21.043  0.00  0.00    +0.000 A 
ATOM      9  C   UNL     1      -0.229  13.270  22.143  0.00  0.00    +0.000 C 
ATOM     10  N   UNL     1      -0.653  11.412  20.471  0.00  0.00    +0.000 N 
ATOM     11  C   UNL     1       0.481  10.627  20.839  0.00  0.00    +0.000 C 
ATOM     12  O   UNL     1       0.957  10.793  21.963  0.00  0.00    +0.000 OA
ENDROOT
BRANCH  11  13
ATOM     13  C   UNL     1       1.138   9.606  19.982  0.00  0.00    +0.000 A 
ATOM     14  C   UNL     1       1.399   8.314  20.455  0.00  0.00    +0.000 A 
ATOM     15  C   UNL     1       2.131   7.420  19.669  0.00  0.00    +0.000 A 
ATOM     16  C   UNL     1       2.541   7.793  18.389  0.00  0.00    +0.000 A 
ATOM     17 CL   UNL     1       3.489   6.711  17.447  0.00  0.00    +0.000 Cl
ATOM     18  C   UNL     1       2.200   9.044  17.876  0.00  0.00    +0.000 A 
ATOM     19  C   UNL     1       1.495   9.952  18.671  0.00  0.00    +0.000 A 
ENDBRANCH  11  13
BRANCH   1  21
ATOM     20  C   UNL     1      -5.693  11.965  16.892  0.00  0.00    +0.000 C 
ATOM     21  O   UNL     1      -4.593  11.115  16.585  0.00  0.00    +0.000 OA
ENDBRANCH   1  21
BRANCH   7  22
ATOM     22  C   UNL     1      -2.907  14.387  20.707  0.00  0.00    +0.000 C 
BRANCH  22  23
ATOM     23  C   UNL     1      -4.312  14.150  21.226  0.00  0.00    +0.000 C 
ATOM     24  O   UNL     1      -5.326  14.032  20.557  0.00  0.00    +0.000 OA
BRANCH  23  25
ATOM     25  O   UNL     1      -4.293  14.154  22.599  0.00  0.00    +0.000 OA
BRANCH  25  26
ATOM     26  C   UNL     1      -4.845  12.968  23.233  0.00  0.00    +0.000 C 
BRANCH  26  27
ATOM     27  C   UNL     1      -3.937  12.424  24.346  0.00  0.00    +0.000 C 
BRANCH  27  28
ATOM     28  O   UNL     1      -4.585  12.473  25.616  0.00  0.00    +0.000 OA
ATOM     29  H   UNL     1      -5.262  13.177  25.557  0.00  0.00    +0.000 HD
ENDBRANCH  27  28
ENDBRANCH  26  27
BRANCH  26  30
ATOM     30  C   UNL     1      -6.219  13.347  23.805  0.00  0.00    +0.000 C 
BRANCH  30  31
ATOM     31  O   UNL     1      -6.191  14.673  24.337  0.00  0.00    +0.000 OA
ATOM     32  H   UNL     1      -5.251  14.890  24.475  0.00  0.00    +0.000 HD
ENDBRANCH  30  31
ENDBRANCH  26  30
ENDBRANCH  25  26
ENDBRANCH  23  25
ENDBRANCH  22  23
ENDBRANCH   7  22
TORSDOF 10
ENDMDL
MODEL 7
REMARK VINA RESULT:      -7.2      5.606     10.772
REMARK  Name = 
REMARK  12 active torsions:
REMARK  status: ('A' for Active; 'I' for Inactive)
REMARK    1  A    between atoms: C_1  and  O_2
REMARK    2  A    between atoms: O_2  and  C_3
REMARK    3  A    between atoms: C_9  and  C_10
REMARK    4  A    between atoms: C_10  and  C_11
REMARK    5  A    between atoms: C_11  and  O_13
REMARK    6  A    between atoms: O_13  and  C_14
REMARK    7  A    between atoms: C_14  and  C_15
REMARK    8  A    between atoms: C_14  and  C_17
REMARK    9  A    between atoms: C_15  and  O_16
REMARK   10  A    between atoms: C_17  and  O_18
REMARK   11  A    between atoms: C_19  and  C_20
REMARK   12  A    between atoms: C_22  and  C_24
REMARK                            x       y       z     vdW  Elec       q    Type
REMARK                         _______ _______ _______ _____ _____    ______ ____
ROOT
ATOM      1  C   UNL     1      -2.939  10.857  16.752  0.00  0.00    +0.000 A 
ATOM      2  C   UNL     1      -2.133   9.738  16.889  0.00  0.00    +0.000 A 
ATOM      3  C   UNL     1      -1.385   9.530  18.049  0.00  0.00    +0.000 A 
ATOM      4  C   UNL     1      -1.386  10.511  19.062  0.00  0.00    +0.000 A 
ATOM      5  C   UNL     1      -2.247  11.609  18.977  0.00  0.00    +0.000 A 
ATOM      6  C   UNL     1      -3.020  11.779  17.804  0.00  0.00    +0.000 A 
ATOM      7  C   UNL     1      -2.163  12.322  20.212  0.00  0.00    +0.000 A 
ATOM      8  C   UNL     1      -1.182  11.697  20.975  0.00  0.00    +0.000 A 
ATOM      9  C   UNL     1      -0.655  12.085  22.320  0.00  0.00    +0.000 C 
ATOM     10  N   UNL     1      -0.664  10.611  20.257  0.00  0.00    +0.000 N 
ATOM     11  C   UNL     1       0.396   9.757  20.687  0.00  0.00    +0.000 C 
ATOM     12  O   UNL     1       0.626   9.687  21.895  0.00  0.00    +0.000 OA
ENDROOT
BRANCH  11  13
ATOM     13  C   UNL     1       1.248   8.927  19.797  0.00  0.00    +0.000 A 
ATOM     14  C   UNL     1       1.654   7.639  20.169  0.00  0.00    +0.000 A 
ATOM     15  C   UNL     1       2.559   6.936  19.369  0.00  0.00    +0.000 A 
ATOM     16  C   UNL     1       3.001   7.491  18.168  0.00  0.00    +0.000 A 
ATOM     17 CL   UNL     1       4.157   6.647  17.213  0.00  0.00    +0.000 Cl
ATOM     18  C   UNL     1       2.526   8.731  17.746  0.00  0.00    +0.000 A 
ATOM     19  C   UNL     1       1.646   9.450  18.559  0.00  0.00    +0.000 A 
ENDBRANCH  11  13
BRANCH   1  21
ATOM     20  C   UNL     1      -3.563  10.294  14.530  0.00  0.00    +0.000 C 
ATOM     21  O   UNL     1      -3.711  11.148  15.660  0.00  0.00    +0.000 OA
ENDBRANCH   1  21
BRANCH   7  22
ATOM     22  C   UNL     1      -3.018  13.496  20.614  0.00  0.00    +0.000 C 
BRANCH  22  23
ATOM     23  C   UNL     1      -4.234  13.128  21.442  0.00  0.00    +0.000 C 
ATOM     24  O   UNL     1      -4.266  12.358  22.389  0.00  0.00    +0.000 OA
BRANCH  23  25
ATOM     25  O   UNL     1      -5.341  13.750  20.919  0.00  0.00    +0.000 OA
BRANCH  25  26
ATOM     26  C   UNL     1      -5.760  13.279  19.609  0.00  0.00    +0.000 C 
BRANCH  26  27
ATOM     27  C   UNL     1      -6.303  11.843  19.650  0.00  0.00    +0.000 C 
BRANCH  27  28
ATOM     28  O   UNL     1      -7.642  11.807  20.139  0.00  0.00    +0.000 OA
ATOM     29  H   UNL     1      -7.606  12.095  21.073  0.00  0.00    +0.000 HD
ENDBRANCH  27  28
ENDBRANCH  26  27
BRANCH  26  30
ATOM     30  C   UNL     1      -6.841  14.242  19.097  0.00  0.00    +0.000 C 
BRANCH  30  31
ATOM     31  O   UNL     1      -6.310  15.095  18.081  0.00  0.00    +0.000 OA
ATOM     32  H   UNL     1      -6.716  15.969  18.221  0.00  0.00    +0.000 HD
ENDBRANCH  30  31
ENDBRANCH  26  30
ENDBRANCH  25  26
ENDBRANCH  23  25
ENDBRANCH  22  23
ENDBRANCH   7  22
TORSDOF 10
ENDMDL
MODEL 8
REMARK VINA RESULT:      -7.2      5.911     11.022
REMARK  Name = 
REMARK  12 active torsions:
REMARK  status: ('A' for Active; 'I' for Inactive)
REMARK    1  A    between atoms: C_1  and  O_2
REMARK    2  A    between atoms: O_2  and  C_3
REMARK    3  A    between atoms: C_9  and  C_10
REMARK    4  A    between atoms: C_10  and  C_11
REMARK    5  A    between atoms: C_11  and  O_13
REMARK    6  A    between atoms: O_13  and  C_14
REMARK    7  A    between atoms: C_14  and  C_15
REMARK    8  A    between atoms: C_14  and  C_17
REMARK    9  A    between atoms: C_15  and  O_16
REMARK   10  A    between atoms: C_17  and  O_18
REMARK   11  A    between atoms: C_19  and  C_20
REMARK   12  A    between atoms: C_22  and  C_24
REMARK                            x       y       z     vdW  Elec       q    Type
REMARK                         _______ _______ _______ _____ _____    ______ ____
ROOT
ATOM      1  C   UNL     1      -2.901  10.874  16.657  0.00  0.00    +0.000 A 
ATOM      2  C   UNL     1      -2.056   9.788  16.824  0.00  0.00    +0.000 A 
ATOM      3  C   UNL     1      -1.362   9.597  18.021  0.00  0.00    +0.000 A 
ATOM      4  C   UNL     1      -1.459  10.564  19.042  0.00  0.00    +0.000 A 
ATOM      5  C   UNL     1      -2.360  11.626  18.923  0.00  0.00    +0.000 A 
ATOM      6  C   UNL     1      -3.077  11.778  17.712  0.00  0.00    +0.000 A 
ATOM      7  C   UNL     1      -2.372  12.326  20.168  0.00  0.00    +0.000 A 
ATOM      8  C   UNL     1      -1.407  11.733  20.976  0.00  0.00    +0.000 A 
ATOM      9  C   UNL     1      -0.969  12.126  22.350  0.00  0.00    +0.000 C 
ATOM     10  N   UNL     1      -0.806  10.680  20.275  0.00  0.00    +0.000 N 
ATOM     11  C   UNL     1       0.266   9.866  20.752  0.00  0.00    +0.000 C 
ATOM     12  O   UNL     1       0.435   9.790  21.970  0.00  0.00    +0.000 OA
ENDROOT
BRANCH  11  13
ATOM     13  C   UNL     1       1.199   9.084  19.900  0.00  0.00    +0.000 A 
ATOM     14  C   UNL     1       1.649   9.577  18.668  0.00  0.00    +0.000 A 
ATOM     15  C   UNL     1       2.422   8.765  17.833  0.00  0.00    +0.000 A 
ATOM     16  C   UNL     1       2.800   7.492  18.259  0.00  0.00    +0.000 A 
ATOM     17 CL   UNL     1       3.704   6.475  17.207  0.00  0.00    +0.000 Cl
ATOM     18  C   UNL     1       2.436   7.033  19.524  0.00  0.00    +0.000 A 
ATOM     19  C   UNL     1       1.637   7.830  20.348  0.00  0.00    +0.000 A 
ENDBRANCH  11  13
BRANCH   1  21
ATOM     20  C   UNL     1      -3.542  10.193  14.473  0.00  0.00    +0.000 C 
ATOM     21  O   UNL     1      -3.627  11.145  15.528  0.00  0.00    +0.000 OA
ENDBRANCH   1  21
BRANCH   7  22
ATOM     22  C   UNL     1      -3.297  13.457  20.536  0.00  0.00    +0.000 C 
BRANCH  22  23
ATOM     23  C   UNL     1      -4.620  13.014  21.132  0.00  0.00    +0.000 C 
ATOM     24  O   UNL     1      -4.782  12.412  22.182  0.00  0.00    +0.000 OA
BRANCH  23  25
ATOM     25  O   UNL     1      -5.635  13.335  20.265  0.00  0.00    +0.000 OA
BRANCH  25  26
ATOM     26  C   UNL     1      -6.575  14.332  20.750  0.00  0.00    +0.000 C 
BRANCH  26  27
ATOM     27  C   UNL     1      -6.837  15.440  19.719  0.00  0.00    +0.000 C 
BRANCH  27  28
ATOM     28  O   UNL     1      -5.647  15.781  19.010  0.00  0.00    +0.000 OA
ATOM     29  H   UNL     1      -5.336  16.631  19.380  0.00  0.00    +0.000 HD
ENDBRANCH  27  28
ENDBRANCH  26  27
BRANCH  26  30
ATOM     30  C   UNL     1      -7.884  13.604  21.093  0.00  0.00    +0.000 C 
BRANCH  30  31
ATOM     31  O   UNL     1      -7.865  13.153  22.448  0.00  0.00    +0.000 OA
ATOM     32  H   UNL     1      -8.783  13.217  22.768  0.00  0.00    +0.000 HD
ENDBRANCH  30  31
ENDBRANCH  26  30
ENDBRANCH  25  26
ENDBRANCH  23  25
ENDBRANCH  22  23
ENDBRANCH   7  22
TORSDOF 10
ENDMDL
MODEL 9
REMARK VINA RESULT:      -7.1      5.590     10.527
REMARK  Name = 
REMARK  12 active torsions:
REMARK  status: ('A' for Active; 'I' for Inactive)
REMARK    1  A    between atoms: C_1  and  O_2
REMARK    2  A    between atoms: O_2  and  C_3
REMARK    3  A    between atoms: C_9  and  C_10
REMARK    4  A    between atoms: C_10  and  C_11
REMARK    5  A    between atoms: C_11  and  O_13
REMARK    6  A    between atoms: O_13  and  C_14
REMARK    7  A    between atoms: C_14  and  C_15
REMARK    8  A    between atoms: C_14  and  C_17
REMARK    9  A    between atoms: C_15  and  O_16
REMARK   10  A    between atoms: C_17  and  O_18
REMARK   11  A    between atoms: C_19  and  C_20
REMARK   12  A    between atoms: C_22  and  C_24
REMARK                            x       y       z     vdW  Elec       q    Type
REMARK                         _______ _______ _______ _____ _____    ______ ____
ROOT
ATOM      1  C   UNL     1      -3.341  10.834  17.271  0.00  0.00    +0.000 A 
ATOM      2  C   UNL     1      -2.555   9.718  17.515  0.00  0.00    +0.000 A 
ATOM      3  C   UNL     1      -1.614   9.715  18.548  0.00  0.00    +0.000 A 
ATOM      4  C   UNL     1      -1.404  10.889  19.299  0.00  0.00    +0.000 A 
ATOM      5  C   UNL     1      -2.234  12.000  19.119  0.00  0.00    +0.000 A 
ATOM      6  C   UNL     1      -3.203  11.964  18.088  0.00  0.00    +0.000 A 
ATOM      7  C   UNL     1      -1.907  12.955  20.129  0.00  0.00    +0.000 A 
ATOM      8  C   UNL     1      -0.822  12.443  20.834  0.00  0.00    +0.000 A 
ATOM      9  C   UNL     1      -0.048  13.076  21.946  0.00  0.00    +0.000 C 
ATOM     10  N   UNL     1      -0.474  11.196  20.300  0.00  0.00    +0.000 N 
ATOM     11  C   UNL     1       0.622  10.384  20.722  0.00  0.00    +0.000 C 
ATOM     12  O   UNL     1       1.066  10.561  21.858  0.00  0.00    +0.000 OA
ENDROOT
BRANCH  11  13
ATOM     13  C   UNL     1       1.275   9.326  19.909  0.00  0.00    +0.000 A 
ATOM     14  C   UNL     1       1.515   8.049  20.430  0.00  0.00    +0.000 A 
ATOM     15  C   UNL     1       2.244   7.118  19.685  0.00  0.00    +0.000 A 
ATOM     16  C   UNL     1       2.671   7.440  18.397  0.00  0.00    +0.000 A 
ATOM     17 CL   UNL     1       3.615   6.314  17.504  0.00  0.00    +0.000 Cl
ATOM     18  C   UNL     1       2.352   8.676  17.836  0.00  0.00    +0.000 A 
ATOM     19  C   UNL     1       1.650   9.620  18.590  0.00  0.00    +0.000 A 
ENDBRANCH  11  13
BRANCH   1  21
ATOM     20  C   UNL     1      -3.879  10.600  14.970  0.00  0.00    +0.000 C 
ATOM     21  O   UNL     1      -4.291  10.934  16.291  0.00  0.00    +0.000 OA
ENDBRANCH   1  21
BRANCH   7  22
ATOM     22  C   UNL     1      -2.641  14.242  20.398  0.00  0.00    +0.000 C 
BRANCH  22  23
ATOM     23  C   UNL     1      -3.147  14.388  21.821  0.00  0.00    +0.000 C 
ATOM     24  O   UNL     1      -2.938  15.324  22.576  0.00  0.00    +0.000 OA
BRANCH  23  25
ATOM     25  O   UNL     1      -3.837  13.254  22.173  0.00  0.00    +0.000 OA
BRANCH  25  26
ATOM     26  C   UNL     1      -4.796  13.419  23.252  0.00  0.00    +0.000 C 
BRANCH  26  27
ATOM     27  C   UNL     1      -6.154  12.778  22.931  0.00  0.00    +0.000 C 
BRANCH  27  28
ATOM     28  O   UNL     1      -6.112  12.060  21.699  0.00  0.00    +0.000 OA
ATOM     29  H   UNL     1      -5.238  12.242  21.300  0.00  0.00    +0.000 HD
ENDBRANCH  27  28
ENDBRANCH  26  27
BRANCH  26  30
ATOM     30  C   UNL     1      -4.190  12.780  24.510  0.00  0.00    +0.000 C 
BRANCH  30  31
ATOM     31  O   UNL     1      -5.007  11.701  24.966  0.00  0.00    +0.000 OA
ATOM     32  H   UNL     1      -4.407  10.945  25.105  0.00  0.00    +0.000 HD
ENDBRANCH  30  31
ENDBRANCH  26  30
ENDBRANCH  25  26
ENDBRANCH  23  25
ENDBRANCH  22  23
ENDBRANCH   7  22
TORSDOF 10
ENDMDL
