MODEL 1
REMARK VINA RESULT:      -6.9      0.000      0.000
REMARK  Name = 
REMARK  9 active torsions:
REMARK  status: ('A' for Active; 'I' for Inactive)
REMARK    1  A    between atoms: C_1  and  C_2
REMARK    2  A    between atoms: C_5  and  C_6
REMARK    3  A    between atoms: C_7  and  O_8
REMARK    4  A    between atoms: O_8  and  C_9
REMARK    5  A    between atoms: C_9  and  C_10
REMARK    6  A    between atoms: C_10  and  O_11
REMARK    7  A    between atoms: C_10  and  C_12
REMARK    8  A    between atoms: C_12  and  N_13
REMARK    9  A    between atoms: C_18  and  C_19
REMARK                            x       y       z     vdW  Elec       q    Type
REMARK                         _______ _______ _______ _____ _____    ______ ____
ROOT
ATOM      1  C   UNL     1       3.044   6.702  18.603  0.00  0.00    +0.000 C 
ENDROOT
BRANCH   1   2
ATOM      2  O   UNL     1       2.203   7.532  19.367  0.00  0.00    +0.000 OA
ATOM      3  H   UNL     1       1.991   7.055  20.211  0.00  0.00    +0.000 HD
ENDBRANCH   1   2
BRANCH   1   4
ATOM      4  C   UNL     1       3.759   7.500  17.491  0.00  0.00    +0.000 C 
BRANCH   4   5
ATOM      5  O   UNL     1       5.123   7.263  17.489  0.00  0.00    +0.000 OA
BRANCH   5  12
ATOM      6  C   UNL     1       5.427   4.127  13.698  0.00  0.00    +0.000 C 
ATOM      7  C   UNL     1       5.930   4.630  15.018  0.00  0.00    +0.000 A 
ATOM      8  C   UNL     1       7.030   4.034  15.646  0.00  0.00    +0.000 A 
ATOM      9  C   UNL     1       7.478   4.511  16.878  0.00  0.00    +0.000 A 
ATOM     10  C   UNL     1       6.841   5.598  17.498  0.00  0.00    +0.000 A 
ATOM     11  C   UNL     1       7.334   6.098  18.828  0.00  0.00    +0.000 C 
ATOM     12  C   UNL     1       5.734   6.210  16.877  0.00  0.00    +0.000 A 
ATOM     13  C   UNL     1       5.286   5.712  15.634  0.00  0.00    +0.000 A 
ENDBRANCH   5  12
ENDBRANCH   4   5
ENDBRANCH   1   4
BRANCH   1  14
ATOM     14  C   UNL     1       2.265   5.480  18.053  0.00  0.00    +0.000 C 
BRANCH  14  15
ATOM     15  N   UNL     1       2.701   4.238  18.725  0.00  0.00    +0.000 NA
ATOM     16  C   UNL     1       3.147   4.352  20.139  0.00  0.00    +0.000 C 
ATOM     17  C   UNL     1       2.023   4.074  21.144  0.00  0.00    +0.000 C 
ATOM     18  C   UNL     1       1.403   2.707  20.871  0.00  0.00    +0.000 C 
ATOM     19  C   UNL     1       0.834   2.718  19.451  0.00  0.00    +0.000 C 
ATOM     20  C   UNL     1       1.926   3.014  18.400  0.00  0.00    +0.000 C 
ATOM     21  C   UNL     1       2.901   1.848  18.213  0.00  0.00    +0.000 C 
ENDBRANCH  14  15
ENDBRANCH   1  14
TORSDOF 6
ENDMDL
MODEL 2
REMARK VINA RESULT:      -6.8      0.861      1.291
REMARK  Name = 
REMARK  9 active torsions:
REMARK  status: ('A' for Active; 'I' for Inactive)
REMARK    1  A    between atoms: C_1  and  C_2
REMARK    2  A    between atoms: C_5  and  C_6
REMARK    3  A    between atoms: C_7  and  O_8
REMARK    4  A    between atoms: O_8  and  C_9
REMARK    5  A    between atoms: C_9  and  C_10
REMARK    6  A    between atoms: C_10  and  O_11
REMARK    7  A    between atoms: C_10  and  C_12
REMARK    8  A    between atoms: C_12  and  N_13
REMARK    9  A    between atoms: C_18  and  C_19
REMARK                            x       y       z     vdW  Elec       q    Type
REMARK                         _______ _______ _______ _____ _____    ______ ____
ROOT
ATOM      1  C   UNL     1       3.216   6.232  18.600  0.00  0.00    +0.000 C 
ENDROOT
BRANCH   1   2
ATOM      2  O   UNL     1       2.843   6.723  19.864  0.00  0.00    +0.000 OA
ATOM      3  H   UNL     1       3.655   7.093  20.298  0.00  0.00    +0.000 HD
ENDBRANCH   1   2
BRANCH   1   4
ATOM      4  C   UNL     1       3.754   7.363  17.695  0.00  0.00    +0.000 C 
BRANCH   4   5
ATOM      5  O   UNL     1       5.117   7.246  17.486  0.00  0.00    +0.000 OA
BRANCH   5  12
ATOM      6  C   UNL     1       5.438   4.144  13.669  0.00  0.00    +0.000 C 
ATOM      7  C   UNL     1       5.932   4.631  14.998  0.00  0.00    +0.000 A 
ATOM      8  C   UNL     1       7.022   4.022  15.631  0.00  0.00    +0.000 A 
ATOM      9  C   UNL     1       7.460   4.484  16.872  0.00  0.00    +0.000 A 
ATOM     10  C   UNL     1       6.824   5.569  17.496  0.00  0.00    +0.000 A 
ATOM     11  C   UNL     1       7.307   6.053  18.836  0.00  0.00    +0.000 C 
ATOM     12  C   UNL     1       5.728   6.194  16.870  0.00  0.00    +0.000 A 
ATOM     13  C   UNL     1       5.289   5.711  15.618  0.00  0.00    +0.000 A 
ENDBRANCH   5  12
ENDBRANCH   4   5
ENDBRANCH   1   4
BRANCH   1  14
ATOM     14  C   UNL     1       2.052   5.448  17.943  0.00  0.00    +0.000 C 
BRANCH  14  15
ATOM     15  N   UNL     1       2.210   3.995  18.166  0.00  0.00    +0.000 NA
ATOM     16  C   UNL     1       3.561   3.416  17.939  0.00  0.00    +0.000 C 
ATOM     17  C   UNL     1       4.401   3.339  19.219  0.00  0.00    +0.000 C 
ATOM     18  C   UNL     1       3.646   2.565  20.295  0.00  0.00    +0.000 C 
ATOM     19  C   UNL     1       2.337   3.304  20.581  0.00  0.00    +0.000 C 
ATOM     20  C   UNL     1       1.461   3.426  19.315  0.00  0.00    +0.000 C 
ATOM     21  C   UNL     1       0.845   2.091  18.889  0.00  0.00    +0.000 C 
ENDBRANCH  14  15
ENDBRANCH   1  14
TORSDOF 6
ENDMDL
MODEL 3
REMARK VINA RESULT:      -6.7      2.239      5.577
REMARK  Name = 
REMARK  9 active torsions:
REMARK  status: ('A' for Active; 'I' for Inactive)
REMARK    1  A    between atoms: C_1  and  C_2
REMARK    2  A    between atoms: C_5  and  C_6
REMARK    3  A    between atoms: C_7  and  O_8
REMARK    4  A    between atoms: O_8  and  C_9
REMARK    5  A    between atoms: C_9  and  C_10
REMARK    6  A    between atoms: C_10  and  O_11
REMARK    7  A    between atoms: C_10  and  C_12
REMARK    8  A    between atoms: C_12  and  N_13
REMARK    9  A    between atoms: C_18  and  C_19
REMARK                            x       y       z     vdW  Elec       q    Type
REMARK                         _______ _______ _______ _____ _____    ______ ____
ROOT
ATOM      1  C   UNL     1       3.617   2.337  18.510  0.00  0.00    +0.000 C 
ENDROOT
BRANCH   1   2
ATOM      2  O   UNL     1       3.509   0.935  18.542  0.00  0.00    +0.000 OA
ATOM      3  H   UNL     1       4.388   0.556  18.280  0.00  0.00    +0.000 HD
ENDBRANCH   1   2
BRANCH   1   4
ATOM      4  C   UNL     1       2.693   2.946  17.432  0.00  0.00    +0.000 C 
BRANCH   4   5
ATOM      5  O   UNL     1       1.657   3.670  17.998  0.00  0.00    +0.000 OA
BRANCH   5  12
ATOM      6  C   UNL     1       2.647   8.497  17.834  0.00  0.00    +0.000 C 
ATOM      7  C   UNL     1       2.276   7.267  18.607  0.00  0.00    +0.000 A 
ATOM      8  C   UNL     1       2.064   7.320  19.990  0.00  0.00    +0.000 A 
ATOM      9  C   UNL     1       1.728   6.164  20.694  0.00  0.00    +0.000 A 
ATOM     10  C   UNL     1       1.589   4.937  20.026  0.00  0.00    +0.000 A 
ATOM     11  C   UNL     1       1.229   3.697  20.801  0.00  0.00    +0.000 C 
ATOM     12  C   UNL     1       1.795   4.867  18.635  0.00  0.00    +0.000 A 
ATOM     13  C   UNL     1       2.143   6.044  17.936  0.00  0.00    +0.000 A 
ENDBRANCH   5  12
ENDBRANCH   4   5
ENDBRANCH   1   4
BRANCH   1  14
ATOM     14  C   UNL     1       5.094   2.775  18.343  0.00  0.00    +0.000 C 
BRANCH  14  15
ATOM     15  N   UNL     1       5.178   4.219  18.034  0.00  0.00    +0.000 NA
ATOM     16  C   UNL     1       5.375   5.148  19.177  0.00  0.00    +0.000 C 
ATOM     17  C   UNL     1       6.849   5.484  19.427  0.00  0.00    +0.000 C 
ATOM     18  C   UNL     1       7.483   6.037  18.154  0.00  0.00    +0.000 C 
ATOM     19  C   UNL     1       7.376   4.967  17.066  0.00  0.00    +0.000 C 
ATOM     20  C   UNL     1       5.907   4.578  16.790  0.00  0.00    +0.000 C 
ATOM     21  C   UNL     1       5.128   5.677  16.063  0.00  0.00    +0.000 C 
ENDBRANCH  14  15
ENDBRANCH   1  14
TORSDOF 6
ENDMDL
MODEL 4
REMARK VINA RESULT:      -6.5      2.915      6.554
REMARK  Name = 
REMARK  9 active torsions:
REMARK  status: ('A' for Active; 'I' for Inactive)
REMARK    1  A    between atoms: C_1  and  C_2
REMARK    2  A    between atoms: C_5  and  C_6
REMARK    3  A    between atoms: C_7  and  O_8
REMARK    4  A    between atoms: O_8  and  C_9
REMARK    5  A    between atoms: C_9  and  C_10
REMARK    6  A    between atoms: C_10  and  O_11
REMARK    7  A    between atoms: C_10  and  C_12
REMARK    8  A    between atoms: C_12  and  N_13
REMARK    9  A    between atoms: C_18  and  C_19
REMARK                            x       y       z     vdW  Elec       q    Type
REMARK                         _______ _______ _______ _____ _____    ______ ____
ROOT
ATOM      1  C   UNL     1       3.335   4.782  20.027  0.00  0.00    +0.000 C 
ENDROOT
BRANCH   1   2
ATOM      2  O   UNL     1       2.670   3.812  20.798  0.00  0.00    +0.000 OA
ATOM      3  H   UNL     1       3.182   3.689  21.639  0.00  0.00    +0.000 HD
ENDBRANCH   1   2
BRANCH   1   4
ATOM      4  C   UNL     1       2.339   5.796  19.422  0.00  0.00    +0.000 C 
BRANCH   4   5
ATOM      5  O   UNL     1       2.657   7.096  19.774  0.00  0.00    +0.000 OA
BRANCH   5  12
ATOM      6  C   UNL     1      -0.443   9.308  22.904  0.00  0.00    +0.000 C 
ATOM      7  C   UNL     1       0.202   9.217  21.553  0.00  0.00    +0.000 A 
ATOM      8  C   UNL     1      -0.109  10.133  20.541  0.00  0.00    +0.000 A 
ATOM      9  C   UNL     1       0.494  10.026  19.289  0.00  0.00    +0.000 A 
ATOM     10  C   UNL     1       1.426   9.008  19.029  0.00  0.00    +0.000 A 
ATOM     11  C   UNL     1       2.066   8.904  17.671  0.00  0.00    +0.000 C 
ATOM     12  C   UNL     1       1.751   8.081  20.038  0.00  0.00    +0.000 A 
ATOM     13  C   UNL     1       1.127   8.195  21.299  0.00  0.00    +0.000 A 
ENDBRANCH   5  12
ENDBRANCH   4   5
ENDBRANCH   1   4
BRANCH   1  14
ATOM     14  C   UNL     1       4.233   4.116  18.953  0.00  0.00    +0.000 C 
BRANCH  14  15
ATOM     15  N   UNL     1       5.020   5.136  18.226  0.00  0.00    +0.000 NA
ATOM     16  C   UNL     1       6.422   5.354  18.669  0.00  0.00    +0.000 C 
ATOM     17  C   UNL     1       7.436   4.525  17.873  0.00  0.00    +0.000 C 
ATOM     18  C   UNL     1       7.281   4.802  16.381  0.00  0.00    +0.000 C 
ATOM     19  C   UNL     1       5.860   4.413  15.969  0.00  0.00    +0.000 C 
ATOM     20  C   UNL     1       4.798   5.208  16.760  0.00  0.00    +0.000 C 
ATOM     21  C   UNL     1       4.728   6.680  16.344  0.00  0.00    +0.000 C 
ENDBRANCH  14  15
ENDBRANCH   1  14
TORSDOF 6
ENDMDL
MODEL 5
REMARK VINA RESULT:      -6.4      3.232      6.869
REMARK  Name = 
REMARK  9 active torsions:
REMARK  status: ('A' for Active; 'I' for Inactive)
REMARK    1  A    between atoms: C_1  and  C_2
REMARK    2  A    between atoms: C_5  and  C_6
REMARK    3  A    between atoms: C_7  and  O_8
REMARK    4  A    between atoms: O_8  and  C_9
REMARK    5  A    between atoms: C_9  and  C_10
REMARK    6  A    between atoms: C_10  and  O_11
REMARK    7  A    between atoms: C_10  and  C_12
REMARK    8  A    between atoms: C_12  and  N_13
REMARK    9  A    between atoms: C_18  and  C_19
REMARK                            x       y       z     vdW  Elec       q    Type
REMARK                         _______ _______ _______ _____ _____    ______ ____
ROOT
ATOM      1  C   UNL     1       2.711   5.470  18.756  0.00  0.00    +0.000 C 
ENDROOT
BRANCH   1   2
ATOM      2  O   UNL     1       1.726   4.847  17.969  0.00  0.00    +0.000 OA
ATOM      3  H   UNL     1       1.264   5.552  17.445  0.00  0.00    +0.000 HD
ENDBRANCH   1   2
BRANCH   1   4
ATOM      4  C   UNL     1       2.083   6.207  19.959  0.00  0.00    +0.000 C 
BRANCH   4   5
ATOM      5  O   UNL     1       2.329   7.568  19.909  0.00  0.00    +0.000 OA
BRANCH   5  12
ATOM      6  C   UNL     1      -0.498   9.745  23.311  0.00  0.00    +0.000 C 
ATOM      7  C   UNL     1       0.018   9.657  21.905  0.00  0.00    +0.000 A 
ATOM      8  C   UNL     1      -0.402  10.563  20.924  0.00  0.00    +0.000 A 
ATOM      9  C   UNL     1       0.083  10.460  19.621  0.00  0.00    +0.000 A 
ATOM     10  C   UNL     1       1.002   9.456  19.277  0.00  0.00    +0.000 A 
ATOM     11  C   UNL     1       1.513   9.356  17.865  0.00  0.00    +0.000 C 
ATOM     12  C   UNL     1       1.437   8.539  20.254  0.00  0.00    +0.000 A 
ATOM     13  C   UNL     1       0.932   8.650  21.568  0.00  0.00    +0.000 A 
ENDBRANCH   5  12
ENDBRANCH   4   5
ENDBRANCH   1   4
BRANCH   1  14
ATOM     14  C   UNL     1       3.607   6.394  17.893  0.00  0.00    +0.000 C 
BRANCH  14  15
ATOM     15  N   UNL     1       4.962   5.820  17.747  0.00  0.00    +0.000 NA
ATOM     16  C   UNL     1       5.097   4.349  17.915  0.00  0.00    +0.000 C 
ATOM     17  C   UNL     1       5.021   3.585  16.589  0.00  0.00    +0.000 C 
ATOM     18  C   UNL     1       6.064   4.125  15.615  0.00  0.00    +0.000 C 
ATOM     19  C   UNL     1       5.769   5.607  15.374  0.00  0.00    +0.000 C 
ATOM     20  C   UNL     1       5.813   6.418  16.688  0.00  0.00    +0.000 C 
ATOM     21  C   UNL     1       7.234   6.586  17.234  0.00  0.00    +0.000 C 
ENDBRANCH  14  15
ENDBRANCH   1  14
TORSDOF 6
ENDMDL
MODEL 6
REMARK VINA RESULT:      -6.4      0.988      1.711
REMARK  Name = 
REMARK  9 active torsions:
REMARK  status: ('A' for Active; 'I' for Inactive)
REMARK    1  A    between atoms: C_1  and  C_2
REMARK    2  A    between atoms: C_5  and  C_6
REMARK    3  A    between atoms: C_7  and  O_8
REMARK    4  A    between atoms: O_8  and  C_9
REMARK    5  A    between atoms: C_9  and  C_10
REMARK    6  A    between atoms: C_10  and  O_11
REMARK    7  A    between atoms: C_10  and  C_12
REMARK    8  A    between atoms: C_12  and  N_13
REMARK    9  A    between atoms: C_18  and  C_19
REMARK                            x       y       z     vdW  Elec       q    Type
REMARK                         _______ _______ _______ _____ _____    ______ ____
ROOT
ATOM      1  C   UNL     1       2.844   6.245  19.664  0.00  0.00    +0.000 C 
ENDROOT
BRANCH   1   2
ATOM      2  O   UNL     1       2.591   7.443  20.358  0.00  0.00    +0.000 OA
ATOM      3  H   UNL     1       3.454   7.923  20.459  0.00  0.00    +0.000 HD
ENDBRANCH   1   2
BRANCH   1   4
ATOM      4  C   UNL     1       3.142   6.514  18.173  0.00  0.00    +0.000 C 
BRANCH   4   5
ATOM      5  O   UNL     1       4.492   6.727  17.952  0.00  0.00    +0.000 OA
BRANCH   5  12
ATOM      6  C   UNL     1       5.589   4.284  13.814  0.00  0.00    +0.000 C 
ATOM      7  C   UNL     1       5.906   4.658  15.231  0.00  0.00    +0.000 A 
ATOM      8  C   UNL     1       7.046   4.158  15.871  0.00  0.00    +0.000 A 
ATOM      9  C   UNL     1       7.320   4.510  17.193  0.00  0.00    +0.000 A 
ATOM     10  C   UNL     1       6.465   5.375  17.893  0.00  0.00    +0.000 A 
ATOM     11  C   UNL     1       6.772   5.743  19.320  0.00  0.00    +0.000 C 
ATOM     12  C   UNL     1       5.315   5.889  17.262  0.00  0.00    +0.000 A 
ATOM     13  C   UNL     1       5.046   5.518  15.926  0.00  0.00    +0.000 A 
ENDBRANCH   5  12
ENDBRANCH   4   5
ENDBRANCH   1   4
BRANCH   1  14
ATOM     14  C   UNL     1       1.688   5.232  19.868  0.00  0.00    +0.000 C 
BRANCH  14  15
ATOM     15  N   UNL     1       2.216   3.856  19.984  0.00  0.00    +0.000 NA
ATOM     16  C   UNL     1       1.225   2.748  20.009  0.00  0.00    +0.000 C 
ATOM     17  C   UNL     1       0.967   2.146  18.623  0.00  0.00    +0.000 C 
ATOM     18  C   UNL     1       2.283   1.693  17.997  0.00  0.00    +0.000 C 
ATOM     19  C   UNL     1       3.194   2.915  17.867  0.00  0.00    +0.000 C 
ATOM     20  C   UNL     1       3.468   3.572  19.237  0.00  0.00    +0.000 C 
ATOM     21  C   UNL     1       4.391   2.731  20.124  0.00  0.00    +0.000 C 
ENDBRANCH  14  15
ENDBRANCH   1  14
TORSDOF 6
ENDMDL
MODEL 7
REMARK VINA RESULT:      -6.3      0.730      1.715
REMARK  Name = 
REMARK  9 active torsions:
REMARK  status: ('A' for Active; 'I' for Inactive)
REMARK    1  A    between atoms: C_1  and  C_2
REMARK    2  A    between atoms: C_5  and  C_6
REMARK    3  A    between atoms: C_7  and  O_8
REMARK    4  A    between atoms: O_8  and  C_9
REMARK    5  A    between atoms: C_9  and  C_10
REMARK    6  A    between atoms: C_10  and  O_11
REMARK    7  A    between atoms: C_10  and  C_12
REMARK    8  A    between atoms: C_12  and  N_13
REMARK    9  A    between atoms: C_18  and  C_19
REMARK                            x       y       z     vdW  Elec       q    Type
REMARK                         _______ _______ _______ _____ _____    ______ ____
ROOT
ATOM      1  C   UNL     1       3.337   6.999  19.084  0.00  0.00    +0.000 C 
ENDROOT
BRANCH   1   2
ATOM      2  O   UNL     1       1.990   7.289  19.367  0.00  0.00    +0.000 OA
ATOM      3  H   UNL     1       1.958   8.175  19.814  0.00  0.00    +0.000 HD
ENDBRANCH   1   2
BRANCH   1   4
ATOM      4  C   UNL     1       3.678   7.305  17.609  0.00  0.00    +0.000 C 
BRANCH   4   5
ATOM      5  O   UNL     1       5.040   7.230  17.373  0.00  0.00    +0.000 OA
BRANCH   5  12
ATOM      6  C   UNL     1       5.391   4.068  13.608  0.00  0.00    +0.000 C 
ATOM      7  C   UNL     1       5.894   4.598  14.918  0.00  0.00    +0.000 A 
ATOM      8  C   UNL     1       7.018   4.040  15.538  0.00  0.00    +0.000 A 
ATOM      9  C   UNL     1       7.466   4.541  16.760  0.00  0.00    +0.000 A 
ATOM     10  C   UNL     1       6.805   5.615  17.378  0.00  0.00    +0.000 A 
ATOM     11  C   UNL     1       7.298   6.142  18.698  0.00  0.00    +0.000 C 
ATOM     12  C   UNL     1       5.674   6.189  16.764  0.00  0.00    +0.000 A 
ATOM     13  C   UNL     1       5.227   5.667  15.531  0.00  0.00    +0.000 A 
ENDBRANCH   5  12
ENDBRANCH   4   5
ENDBRANCH   1   4
BRANCH   1  14
ATOM     14  C   UNL     1       3.687   5.543  19.486  0.00  0.00    +0.000 C 
BRANCH  14  15
ATOM     15  N   UNL     1       2.563   4.633  19.180  0.00  0.00    +0.000 NA
ATOM     16  C   UNL     1       2.208   4.450  17.748  0.00  0.00    +0.000 C 
ATOM     17  C   UNL     1       2.893   3.235  17.113  0.00  0.00    +0.000 C 
ATOM     18  C   UNL     1       2.583   1.978  17.921  0.00  0.00    +0.000 C 
ATOM     19  C   UNL     1       3.112   2.184  19.342  0.00  0.00    +0.000 C 
ATOM     20  C   UNL     1       2.465   3.412  20.020  0.00  0.00    +0.000 C 
ATOM     21  C   UNL     1       0.997   3.183  20.387  0.00  0.00    +0.000 C 
ENDBRANCH  14  15
ENDBRANCH   1  14
TORSDOF 6
ENDMDL
MODEL 8
REMARK VINA RESULT:      -6.3      2.826      6.463
REMARK  Name = 
REMARK  9 active torsions:
REMARK  status: ('A' for Active; 'I' for Inactive)
REMARK    1  A    between atoms: C_1  and  C_2
REMARK    2  A    between atoms: C_5  and  C_6
REMARK    3  A    between atoms: C_7  and  O_8
REMARK    4  A    between atoms: O_8  and  C_9
REMARK    5  A    between atoms: C_9  and  C_10
REMARK    6  A    between atoms: C_10  and  O_11
REMARK    7  A    between atoms: C_10  and  C_12
REMARK    8  A    between atoms: C_12  and  N_13
REMARK    9  A    between atoms: C_18  and  C_19
REMARK                            x       y       z     vdW  Elec       q    Type
REMARK                         _______ _______ _______ _____ _____    ______ ____
ROOT
ATOM      1  C   UNL     1       3.825   4.904  18.867  0.00  0.00    +0.000 C 
ENDROOT
BRANCH   1   2
ATOM      2  O   UNL     1       4.248   3.818  19.655  0.00  0.00    +0.000 OA
ATOM      3  H   UNL     1       4.762   3.201  19.071  0.00  0.00    +0.000 HD
ENDBRANCH   1   2
BRANCH   1   4
ATOM      4  C   UNL     1       2.608   5.615  19.500  0.00  0.00    +0.000 C 
BRANCH   4   5
ATOM      5  O   UNL     1       2.852   6.963  19.700  0.00  0.00    +0.000 OA
BRANCH   5  12
ATOM      6  C   UNL     1      -0.459   9.049  22.698  0.00  0.00    +0.000 C 
ATOM      7  C   UNL     1       0.241   8.980  21.373  0.00  0.00    +0.000 A 
ATOM      8  C   UNL     1      -0.071   9.878  20.346  0.00  0.00    +0.000 A 
ATOM      9  C   UNL     1       0.584   9.793  19.117  0.00  0.00    +0.000 A 
ATOM     10  C   UNL     1       1.569   8.816  18.899  0.00  0.00    +0.000 A 
ATOM     11  C   UNL     1       2.264   8.735  17.567  0.00  0.00    +0.000 C 
ATOM     12  C   UNL     1       1.895   7.907  19.924  0.00  0.00    +0.000 A 
ATOM     13  C   UNL     1       1.219   8.000  21.160  0.00  0.00    +0.000 A 
ENDBRANCH   5  12
ENDBRANCH   4   5
ENDBRANCH   1   4
BRANCH   1  14
ATOM     14  C   UNL     1       3.560   4.459  17.406  0.00  0.00    +0.000 C 
BRANCH  14  15
ATOM     15  N   UNL     1       4.633   4.942  16.511  0.00  0.00    +0.000 NA
ATOM     16  C   UNL     1       4.867   6.410  16.463  0.00  0.00    +0.000 C 
ATOM     17  C   UNL     1       5.962   6.872  17.431  0.00  0.00    +0.000 C 
ATOM     18  C   UNL     1       7.251   6.100  17.169  0.00  0.00    +0.000 C 
ATOM     19  C   UNL     1       6.968   4.612  17.385  0.00  0.00    +0.000 C 
ATOM     20  C   UNL     1       5.854   4.101  16.444  0.00  0.00    +0.000 C 
ATOM     21  C   UNL     1       6.308   4.006  14.984  0.00  0.00    +0.000 C 
ENDBRANCH  14  15
ENDBRANCH   1  14
TORSDOF 6
ENDMDL
MODEL 9
REMARK VINA RESULT:      -6.3      1.090      2.031
REMARK  Name = 
REMARK  9 active torsions:
REMARK  status: ('A' for Active; 'I' for Inactive)
REMARK    1  A    between atoms: C_1  and  C_2
REMARK    2  A    between atoms: C_5  and  C_6
REMARK    3  A    between atoms: C_7  and  O_8
REMARK    4  A    between atoms: O_8  and  C_9
REMARK    5  A    between atoms: C_9  and  C_10
REMARK    6  A    between atoms: C_10  and  O_11
REMARK    7  A    between atoms: C_10  and  C_12
REMARK    8  A    between atoms: C_12  and  N_13
REMARK    9  A    between atoms: C_18  and  C_19
REMARK                            x       y       z     vdW  Elec       q    Type
REMARK                         _______ _______ _______ _____ _____    ______ ____
ROOT
ATOM      1  C   UNL     1       2.876   6.031  18.983  0.00  0.00    +0.000 C 
ENDROOT
BRANCH   1   2
ATOM      2  O   UNL     1       2.241   7.231  19.350  0.00  0.00    +0.000 OA
ATOM      3  H   UNL     1       2.513   7.930  18.699  0.00  0.00    +0.000 HD
ENDBRANCH   1   2
BRANCH   1   4
ATOM      4  C   UNL     1       4.110   6.299  18.094  0.00  0.00    +0.000 C 
BRANCH   4   5
ATOM      5  O   UNL     1       4.742   5.123  17.729  0.00  0.00    +0.000 OA
BRANCH   5  12
ATOM      6  C   UNL     1       5.084   3.727  13.014  0.00  0.00    +0.000 C 
ATOM      7  C   UNL     1       5.712   4.274  14.261  0.00  0.00    +0.000 A 
ATOM      8  C   UNL     1       7.068   4.619  14.295  0.00  0.00    +0.000 A 
ATOM      9  C   UNL     1       7.636   5.118  15.467  0.00  0.00    +0.000 A 
ATOM     10  C   UNL     1       6.856   5.290  16.621  0.00  0.00    +0.000 A 
ATOM     11  C   UNL     1       7.485   5.827  17.879  0.00  0.00    +0.000 C 
ATOM     12  C   UNL     1       5.489   4.951  16.602  0.00  0.00    +0.000 A 
ATOM     13  C   UNL     1       4.929   4.439  15.411  0.00  0.00    +0.000 A 
ENDBRANCH   5  12
ENDBRANCH   4   5
ENDBRANCH   1   4
BRANCH   1  14
ATOM     14  C   UNL     1       1.871   5.050  18.326  0.00  0.00    +0.000 C 
BRANCH  14  15
ATOM     15  N   UNL     1       1.829   3.772  19.067  0.00  0.00    +0.000 NA
ATOM     16  C   UNL     1       1.730   2.524  18.265  0.00  0.00    +0.000 C 
ATOM     17  C   UNL     1       3.095   1.893  17.970  0.00  0.00    +0.000 C 
ATOM     18  C   UNL     1       3.851   1.650  19.273  0.00  0.00    +0.000 C 
ATOM     19  C   UNL     1       4.046   2.999  19.968  0.00  0.00    +0.000 C 
ATOM     20  C   UNL     1       2.697   3.687  20.270  0.00  0.00    +0.000 C 
ATOM     21  C   UNL     1       1.917   2.997  21.392  0.00  0.00    +0.000 C 
ENDBRANCH  14  15
ENDBRANCH   1  14
TORSDOF 6
ENDMDL
