MODEL 1
REMARK VINA RESULT:      -7.5      0.000      0.000
REMARK  Name = 
REMARK  2 active torsions:
REMARK  status: ('A' for Active; 'I' for Inactive)
REMARK    1  A    between atoms: N_6  and  C_7
REMARK    2  A    between atoms: C_11  and  N_12
REMARK                            x       y       z     vdW  Elec       q    Type
REMARK                         _______ _______ _______ _____ _____    ______ ____
ROOT
ATOM      1  C   UNL     1       1.931   7.518  19.941  0.00  0.00    +0.000 A 
ATOM      2  C   UNL     1       2.848   7.623  18.905  0.00  0.00    +0.000 A 
ATOM      3  N   UNL     1       3.638   6.608  18.466  0.00  0.00    +0.000 NA
ATOM      4  C   UNL     1       3.551   5.386  19.047  0.00  0.00    +0.000 A 
ATOM      5  C   UNL     1       4.337   4.279  18.619  0.00  0.00    +0.000 A 
ATOM      6  C   UNL     1       4.114   3.019  19.212  0.00  0.00    +0.000 A 
ATOM      7  C   UNL     1       3.178   2.836  20.223  0.00  0.00    +0.000 A 
ATOM      8  C   UNL     1       2.441   3.920  20.668  0.00  0.00    +0.000 A 
ATOM      9  C   UNL     1       2.614   5.181  20.085  0.00  0.00    +0.000 A 
ATOM     10  C   UNL     1       1.831   6.257  20.528  0.00  0.00    +0.000 A 
ENDROOT
BRANCH   5  11
ATOM     11  N   UNL     1       5.298   4.392  17.620  0.00  0.00    +0.000 N 
ATOM     12  C   UNL     1       5.068   3.975  16.237  0.00  0.00    +0.000 C 
ATOM     13  C   UNL     1       5.619   5.061  15.284  0.00  0.00    +0.000 C 
ATOM     14  N   UNL     1       7.039   5.400  15.517  0.00  0.00    +0.000 NA
ATOM     15  C   UNL     1       7.232   5.761  16.943  0.00  0.00    +0.000 C 
ATOM     16  C   UNL     1       6.704   4.697  17.931  0.00  0.00    +0.000 C 
ATOM     17  H   UNL     1       7.275   6.211  14.948  0.00  0.00    +0.000 HD
ENDBRANCH   5  11
BRANCH   1  23
ATOM     18  O   UNL     1       0.558   9.677  18.365  0.00  0.00    +0.000 OA
ATOM     19  C   UNL     1       0.544   9.580  19.579  0.00  0.00    +0.000 C 
ATOM     20  C   UNL     1      -0.076  10.616  20.485  0.00  0.00    +0.000 C 
ATOM     21  C   UNL     1      -0.180   9.906  21.820  0.00  0.00    +0.000 C 
ATOM     22  C   UNL     1       0.963   8.915  21.789  0.00  0.00    +0.000 C 
ATOM     23  N   UNL     1       1.129   8.599  20.391  0.00  0.00    +0.000 N 
ENDBRANCH   1  23
TORSDOF 2
ENDMDL
MODEL 2
REMARK VINA RESULT:      -7.3      1.015      1.343
REMARK  Name = 
REMARK  2 active torsions:
REMARK  status: ('A' for Active; 'I' for Inactive)
REMARK    1  A    between atoms: N_6  and  C_7
REMARK    2  A    between atoms: C_11  and  N_12
REMARK                            x       y       z     vdW  Elec       q    Type
REMARK                         _______ _______ _______ _____ _____    ______ ____
ROOT
ATOM      1  C   UNL     1       2.083   7.830  19.246  0.00  0.00    +0.000 A 
ATOM      2  C   UNL     1       2.999   7.806  18.204  0.00  0.00    +0.000 A 
ATOM      3  N   UNL     1       3.794   6.746  17.899  0.00  0.00    +0.000 NA
ATOM      4  C   UNL     1       3.714   5.610  18.634  0.00  0.00    +0.000 A 
ATOM      5  C   UNL     1       4.506   4.461  18.351  0.00  0.00    +0.000 A 
ATOM      6  C   UNL     1       4.290   3.287  19.103  0.00  0.00    +0.000 A 
ATOM      7  C   UNL     1       3.355   3.231  20.129  0.00  0.00    +0.000 A 
ATOM      8  C   UNL     1       2.613   4.360  20.432  0.00  0.00    +0.000 A 
ATOM      9  C   UNL     1       2.779   5.535  19.691  0.00  0.00    +0.000 A 
ATOM     10  C   UNL     1       1.990   6.656  19.991  0.00  0.00    +0.000 A 
ENDROOT
BRANCH   5  11
ATOM     11  N   UNL     1       5.467   4.449  17.346  0.00  0.00    +0.000 N 
ATOM     12  C   UNL     1       5.228   3.881  16.018  0.00  0.00    +0.000 C 
ATOM     13  C   UNL     1       5.791   4.846  14.949  0.00  0.00    +0.000 C 
ATOM     14  N   UNL     1       7.215   5.192  15.142  0.00  0.00    +0.000 NA
ATOM     15  C   UNL     1       7.415   5.709  16.517  0.00  0.00    +0.000 C 
ATOM     16  C   UNL     1       6.876   4.770  17.619  0.00  0.00    +0.000 C 
ATOM     17  H   UNL     1       7.459   5.931  14.484  0.00  0.00    +0.000 HD
ENDBRANCH   5  11
BRANCH   1  23
ATOM     18  O   UNL     1       1.200   8.890  21.916  0.00  0.00    +0.000 OA
ATOM     19  C   UNL     1       0.893   9.366  20.838  0.00  0.00    +0.000 C 
ATOM     20  C   UNL     1      -0.088  10.503  20.683  0.00  0.00    +0.000 C 
ATOM     21  C   UNL     1       0.134  10.975  19.260  0.00  0.00    +0.000 C 
ATOM     22  C   UNL     1       0.603   9.732  18.538  0.00  0.00    +0.000 C 
ATOM     23  N   UNL     1       1.276   8.957  19.553  0.00  0.00    +0.000 N 
ENDBRANCH   1  23
TORSDOF 2
ENDMDL
MODEL 3
REMARK VINA RESULT:      -7.2      3.306      7.470
REMARK  Name = 
REMARK  2 active torsions:
REMARK  status: ('A' for Active; 'I' for Inactive)
REMARK    1  A    between atoms: N_6  and  C_7
REMARK    2  A    between atoms: C_11  and  N_12
REMARK                            x       y       z     vdW  Elec       q    Type
REMARK                         _______ _______ _______ _____ _____    ______ ____
ROOT
ATOM      1  C   UNL     1       5.356   4.532  15.141  0.00  0.00    +0.000 A 
ATOM      2  C   UNL     1       4.803   3.497  15.881  0.00  0.00    +0.000 A 
ATOM      3  N   UNL     1       4.077   3.662  17.018  0.00  0.00    +0.000 NA
ATOM      4  C   UNL     1       3.846   4.909  17.495  0.00  0.00    +0.000 A 
ATOM      5  C   UNL     1       3.077   5.147  18.669  0.00  0.00    +0.000 A 
ATOM      6  C   UNL     1       2.802   6.480  19.041  0.00  0.00    +0.000 A 
ATOM      7  C   UNL     1       3.288   7.562  18.318  0.00  0.00    +0.000 A 
ATOM      8  C   UNL     1       4.069   7.332  17.198  0.00  0.00    +0.000 A 
ATOM      9  C   UNL     1       4.341   6.024  16.782  0.00  0.00    +0.000 A 
ATOM     10  C   UNL     1       5.105   5.815  15.624  0.00  0.00    +0.000 A 
ENDROOT
BRANCH   5  11
ATOM     11  N   UNL     1       2.568   4.113  19.447  0.00  0.00    +0.000 N 
ATOM     12  C   UNL     1       3.306   3.506  20.555  0.00  0.00    +0.000 C 
ATOM     13  C   UNL     1       2.353   3.330  21.760  0.00  0.00    +0.000 C 
ATOM     14  N   UNL     1       1.125   2.570  21.448  0.00  0.00    +0.000 NA
ATOM     15  C   UNL     1       0.443   3.189  20.286  0.00  0.00    +0.000 C 
ATOM     16  C   UNL     1       1.357   3.374  19.055  0.00  0.00    +0.000 C 
ATOM     17  H   UNL     1       0.499   2.624  22.250  0.00  0.00    +0.000 HD
ENDBRANCH   5  11
BRANCH   1  23
ATOM     18  O   UNL     1       8.038   5.658  14.382  0.00  0.00    +0.000 OA
ATOM     19  C   UNL     1       7.365   4.920  13.684  0.00  0.00    +0.000 C 
ATOM     20  C   UNL     1       7.735   4.557  12.266  0.00  0.00    +0.000 C 
ATOM     21  C   UNL     1       6.842   3.373  11.956  0.00  0.00    +0.000 C 
ATOM     22  C   UNL     1       5.623   3.607  12.821  0.00  0.00    +0.000 C 
ATOM     23  N   UNL     1       6.125   4.331  13.965  0.00  0.00    +0.000 N 
ENDBRANCH   1  23
TORSDOF 2
ENDMDL
MODEL 4
REMARK VINA RESULT:      -7.2      2.440      7.345
REMARK  Name = 
REMARK  2 active torsions:
REMARK  status: ('A' for Active; 'I' for Inactive)
REMARK    1  A    between atoms: N_6  and  C_7
REMARK    2  A    between atoms: C_11  and  N_12
REMARK                            x       y       z     vdW  Elec       q    Type
REMARK                         _______ _______ _______ _____ _____    ______ ____
ROOT
ATOM      1  C   UNL     1       2.519   7.305  18.520  0.00  0.00    +0.000 A 
ATOM      2  C   UNL     1       2.071   8.444  17.866  0.00  0.00    +0.000 A 
ATOM      3  N   UNL     1       1.353   9.439  18.451  0.00  0.00    +0.000 NA
ATOM      4  C   UNL     1       1.035   9.357  19.766  0.00  0.00    +0.000 A 
ATOM      5  C   UNL     1       0.302  10.376  20.439  0.00  0.00    +0.000 A 
ATOM      6  C   UNL     1       0.099  10.259  21.830  0.00  0.00    +0.000 A 
ATOM      7  C   UNL     1       0.561   9.166  22.553  0.00  0.00    +0.000 A 
ATOM      8  C   UNL     1       1.239   8.155  21.893  0.00  0.00    +0.000 A 
ATOM      9  C   UNL     1       1.484   8.248  20.518  0.00  0.00    +0.000 A 
ATOM     10  C   UNL     1       2.205   7.229  19.876  0.00  0.00    +0.000 A 
ENDROOT
BRANCH   5  11
ATOM     11  N   UNL     1      -0.199  11.492  19.778  0.00  0.00    +0.000 N 
ATOM     12  C   UNL     1       0.469  12.794  19.787  0.00  0.00    +0.000 C 
ATOM     13  C   UNL     1       0.457  13.377  18.356  0.00  0.00    +0.000 C 
ATOM     14  N   UNL     1      -0.890  13.465  17.753  0.00  0.00    +0.000 NA
ATOM     15  C   UNL     1      -1.546  12.136  17.817  0.00  0.00    +0.000 C 
ATOM     16  C   UNL     1      -1.565  11.520  19.234  0.00  0.00    +0.000 C 
ATOM     17  H   UNL     1      -0.789  13.723  16.773  0.00  0.00    +0.000 HD
ENDBRANCH   5  11
BRANCH   1  23
ATOM     18  O   UNL     1       1.803   4.417  18.096  0.00  0.00    +0.000 OA
ATOM     19  C   UNL     1       2.848   4.937  17.750  0.00  0.00    +0.000 C 
ATOM     20  C   UNL     1       4.000   4.165  17.154  0.00  0.00    +0.000 C 
ATOM     21  C   UNL     1       4.883   5.243  16.559  0.00  0.00    +0.000 C 
ATOM     22  C   UNL     1       4.613   6.450  17.431  0.00  0.00    +0.000 C 
ATOM     23  N   UNL     1       3.253   6.272  17.881  0.00  0.00    +0.000 N 
ENDBRANCH   1  23
TORSDOF 2
ENDMDL
MODEL 5
REMARK VINA RESULT:      -7.2      0.750      1.284
REMARK  Name = 
REMARK  2 active torsions:
REMARK  status: ('A' for Active; 'I' for Inactive)
REMARK    1  A    between atoms: N_6  and  C_7
REMARK    2  A    between atoms: C_11  and  N_12
REMARK                            x       y       z     vdW  Elec       q    Type
REMARK                         _______ _______ _______ _____ _____    ______ ____
ROOT
ATOM      1  C   UNL     1       1.579   7.711  20.401  0.00  0.00    +0.000 A 
ATOM      2  C   UNL     1       2.522   7.911  19.403  0.00  0.00    +0.000 A 
ATOM      3  N   UNL     1       3.321   6.940  18.888  0.00  0.00    +0.000 NA
ATOM      4  C   UNL     1       3.219   5.669  19.348  0.00  0.00    +0.000 A 
ATOM      5  C   UNL     1       4.014   4.606  18.834  0.00  0.00    +0.000 A 
ATOM      6  C   UNL     1       3.775   3.295  19.299  0.00  0.00    +0.000 A 
ATOM      7  C   UNL     1       2.815   3.019  20.264  0.00  0.00    +0.000 A 
ATOM      8  C   UNL     1       2.068   4.058  20.794  0.00  0.00    +0.000 A 
ATOM      9  C   UNL     1       2.257   5.368  20.338  0.00  0.00    +0.000 A 
ATOM     10  C   UNL     1       1.464   6.400  20.863  0.00  0.00    +0.000 A 
ENDROOT
BRANCH   5  11
ATOM     11  N   UNL     1       4.999   4.810  17.875  0.00  0.00    +0.000 N 
ATOM     12  C   UNL     1       6.276   5.463  18.165  0.00  0.00    +0.000 C 
ATOM     13  C   UNL     1       7.416   4.662  17.493  0.00  0.00    +0.000 C 
ATOM     14  N   UNL     1       7.231   4.457  16.041  0.00  0.00    +0.000 NA
ATOM     15  C   UNL     1       5.902   3.846  15.795  0.00  0.00    +0.000 C 
ATOM     16  C   UNL     1       4.733   4.621  16.440  0.00  0.00    +0.000 C 
ATOM     17  H   UNL     1       7.946   3.810  15.713  0.00  0.00    +0.000 HD
ENDBRANCH   5  11
BRANCH   1  23
ATOM     18  O   UNL     1      -0.081   9.772  18.979  0.00  0.00    +0.000 OA
ATOM     19  C   UNL     1       0.042   9.685  20.187  0.00  0.00    +0.000 C 
ATOM     20  C   UNL     1      -0.537  10.690  21.154  0.00  0.00    +0.000 C 
ATOM     21  C   UNL     1      -0.454   9.986  22.493  0.00  0.00    +0.000 C 
ATOM     22  C   UNL     1       0.735   9.063  22.341  0.00  0.00    +0.000 C 
ATOM     23  N   UNL     1       0.768   8.747  20.933  0.00  0.00    +0.000 N 
ENDBRANCH   1  23
TORSDOF 2
ENDMDL
MODEL 6
REMARK VINA RESULT:      -7.2      1.159      1.360
REMARK  Name = 
REMARK  2 active torsions:
REMARK  status: ('A' for Active; 'I' for Inactive)
REMARK    1  A    between atoms: N_6  and  C_7
REMARK    2  A    between atoms: C_11  and  N_12
REMARK                            x       y       z     vdW  Elec       q    Type
REMARK                         _______ _______ _______ _____ _____    ______ ____
ROOT
ATOM      1  C   UNL     1       1.593   8.668  19.144  0.00  0.00    +0.000 A 
ATOM      2  C   UNL     1       2.570   8.554  18.164  0.00  0.00    +0.000 A 
ATOM      3  N   UNL     1       3.376   7.473  17.999  0.00  0.00    +0.000 NA
ATOM      4  C   UNL     1       3.248   6.404  18.822  0.00  0.00    +0.000 A 
ATOM      5  C   UNL     1       4.050   5.236  18.687  0.00  0.00    +0.000 A 
ATOM      6  C   UNL     1       3.785   4.130  19.522  0.00  0.00    +0.000 A 
ATOM      7  C   UNL     1       2.791   4.162  20.493  0.00  0.00    +0.000 A 
ATOM      8  C   UNL     1       2.037   5.312  20.653  0.00  0.00    +0.000 A 
ATOM      9  C   UNL     1       2.252   6.420  19.824  0.00  0.00    +0.000 A 
ATOM     10  C   UNL     1       1.451   7.562  19.980  0.00  0.00    +0.000 A 
ENDROOT
BRANCH   5  11
ATOM     11  N   UNL     1       5.068   5.138  17.744  0.00  0.00    +0.000 N 
ATOM     12  C   UNL     1       4.867   4.588  16.403  0.00  0.00    +0.000 C 
ATOM     13  C   UNL     1       5.577   5.498  15.374  0.00  0.00    +0.000 C 
ATOM     14  N   UNL     1       7.011   5.720  15.658  0.00  0.00    +0.000 NA
ATOM     15  C   UNL     1       7.167   6.222  17.045  0.00  0.00    +0.000 C 
ATOM     16  C   UNL     1       6.480   5.337  18.108  0.00  0.00    +0.000 C 
ATOM     17  H   UNL     1       7.360   6.433  15.020  0.00  0.00    +0.000 HD
ENDBRANCH   5  11
BRANCH   1  23
ATOM     18  O   UNL     1      -0.667   9.671  17.435  0.00  0.00    +0.000 OA
ATOM     19  C   UNL     1      -0.249  10.222  18.438  0.00  0.00    +0.000 C 
ATOM     20  C   UNL     1      -0.738  11.572  18.905  0.00  0.00    +0.000 C 
ATOM     21  C   UNL     1      -0.228  11.662  20.330  0.00  0.00    +0.000 C 
ATOM     22  C   UNL     1       1.024  10.813  20.318  0.00  0.00    +0.000 C 
ATOM     23  N   UNL     1       0.775   9.816  19.305  0.00  0.00    +0.000 N 
ENDBRANCH   1  23
TORSDOF 2
ENDMDL
MODEL 7
REMARK VINA RESULT:      -7.2      1.261      1.887
REMARK  Name = 
REMARK  2 active torsions:
REMARK  status: ('A' for Active; 'I' for Inactive)
REMARK    1  A    between atoms: N_6  and  C_7
REMARK    2  A    between atoms: C_11  and  N_12
REMARK                            x       y       z     vdW  Elec       q    Type
REMARK                         _______ _______ _______ _____ _____    ______ ____
ROOT
ATOM      1  C   UNL     1       1.549   8.423  19.587  0.00  0.00    +0.000 A 
ATOM      2  C   UNL     1       2.499   8.426  18.575  0.00  0.00    +0.000 A 
ATOM      3  N   UNL     1       3.321   7.384  18.283  0.00  0.00    +0.000 NA
ATOM      4  C   UNL     1       3.238   6.239  19.003  0.00  0.00    +0.000 A 
ATOM      5  C   UNL     1       4.059   5.107  18.733  0.00  0.00    +0.000 A 
ATOM      6  C   UNL     1       3.840   3.921  19.465  0.00  0.00    +0.000 A 
ATOM      7  C   UNL     1       2.875   3.837  20.461  0.00  0.00    +0.000 A 
ATOM      8  C   UNL     1       2.104   4.949  20.752  0.00  0.00    +0.000 A 
ATOM      9  C   UNL     1       2.272   6.136  20.029  0.00  0.00    +0.000 A 
ATOM     10  C   UNL     1       1.454   7.239  20.316  0.00  0.00    +0.000 A 
ENDROOT
BRANCH   5  11
ATOM     11  N   UNL     1       5.050   5.123  17.758  0.00  0.00    +0.000 N 
ATOM     12  C   UNL     1       6.368   5.723  17.966  0.00  0.00    +0.000 C 
ATOM     13  C   UNL     1       7.450   4.772  17.406  0.00  0.00    +0.000 C 
ATOM     14  N   UNL     1       7.245   4.395  15.991  0.00  0.00    +0.000 NA
ATOM     15  C   UNL     1       5.878   3.844  15.821  0.00  0.00    +0.000 C 
ATOM     16  C   UNL     1       4.764   4.769  16.359  0.00  0.00    +0.000 C 
ATOM     17  H   UNL     1       7.914   3.666  15.751  0.00  0.00    +0.000 HD
ENDBRANCH   5  11
BRANCH   1  23
ATOM     18  O   UNL     1       1.286  10.011  22.125  0.00  0.00    +0.000 OA
ATOM     19  C   UNL     1       0.640  10.201  21.110  0.00  0.00    +0.000 C 
ATOM     20  C   UNL     1      -0.488  11.201  21.021  0.00  0.00    +0.000 C 
ATOM     21  C   UNL     1      -0.721  11.344  19.530  0.00  0.00    +0.000 C 
ATOM     22  C   UNL     1      -0.304  10.002  18.971  0.00  0.00    +0.000 C 
ATOM     23  N   UNL     1       0.713   9.532  19.881  0.00  0.00    +0.000 N 
ENDBRANCH   1  23
TORSDOF 2
ENDMDL
MODEL 8
REMARK VINA RESULT:      -7.2      3.067      7.133
REMARK  Name = 
REMARK  2 active torsions:
REMARK  status: ('A' for Active; 'I' for Inactive)
REMARK    1  A    between atoms: N_6  and  C_7
REMARK    2  A    between atoms: C_11  and  N_12
REMARK                            x       y       z     vdW  Elec       q    Type
REMARK                         _______ _______ _______ _____ _____    ______ ____
ROOT
ATOM      1  C   UNL     1       5.057   4.858  15.592  0.00  0.00    +0.000 A 
ATOM      2  C   UNL     1       4.469   3.858  16.353  0.00  0.00    +0.000 A 
ATOM      3  N   UNL     1       3.679   4.076  17.438  0.00  0.00    +0.000 NA
ATOM      4  C   UNL     1       3.415   5.345  17.835  0.00  0.00    +0.000 A 
ATOM      5  C   UNL     1       2.580   5.636  18.951  0.00  0.00    +0.000 A 
ATOM      6  C   UNL     1       2.277   6.984  19.237  0.00  0.00    +0.000 A 
ATOM      7  C   UNL     1       2.796   8.032  18.486  0.00  0.00    +0.000 A 
ATOM      8  C   UNL     1       3.641   7.751  17.425  0.00  0.00    +0.000 A 
ATOM      9  C   UNL     1       3.943   6.425  17.093  0.00  0.00    +0.000 A 
ATOM     10  C   UNL     1       4.772   6.163  15.992  0.00  0.00    +0.000 A 
ENDROOT
BRANCH   5  11
ATOM     11  N   UNL     1       2.034   4.640  19.752  0.00  0.00    +0.000 N 
ATOM     12  C   UNL     1       1.039   3.681  19.270  0.00  0.00    +0.000 C 
ATOM     13  C   UNL     1       1.417   2.268  19.771  0.00  0.00    +0.000 C 
ATOM     14  N   UNL     1       1.591   2.177  21.236  0.00  0.00    +0.000 NA
ATOM     15  C   UNL     1       2.564   3.203  21.682  0.00  0.00    +0.000 C 
ATOM     16  C   UNL     1       2.218   4.633  21.212  0.00  0.00    +0.000 C 
ATOM     17  H   UNL     1       1.971   1.258  21.460  0.00  0.00    +0.000 HD
ENDBRANCH   5  11
BRANCH   1  23
ATOM     18  O   UNL     1       7.870   5.765  15.046  0.00  0.00    +0.000 OA
ATOM     19  C   UNL     1       7.193   5.090  14.292  0.00  0.00    +0.000 C 
ATOM     20  C   UNL     1       7.637   4.707  12.900  0.00  0.00    +0.000 C 
ATOM     21  C   UNL     1       6.675   3.603  12.510  0.00  0.00    +0.000 C 
ATOM     22  C   UNL     1       5.418   3.931  13.287  0.00  0.00    +0.000 C 
ATOM     23  N   UNL     1       5.892   4.603  14.473  0.00  0.00    +0.000 N 
ENDBRANCH   1  23
TORSDOF 2
ENDMDL
MODEL 9
REMARK VINA RESULT:      -7.1      1.349      2.006
REMARK  Name = 
REMARK  2 active torsions:
REMARK  status: ('A' for Active; 'I' for Inactive)
REMARK    1  A    between atoms: N_6  and  C_7
REMARK    2  A    between atoms: C_11  and  N_12
REMARK                            x       y       z     vdW  Elec       q    Type
REMARK                         _______ _______ _______ _____ _____    ______ ____
ROOT
ATOM      1  C   UNL     1       1.497   8.940  18.992  0.00  0.00    +0.000 A 
ATOM      2  C   UNL     1       2.490   8.821  18.030  0.00  0.00    +0.000 A 
ATOM      3  N   UNL     1       3.319   7.752  17.904  0.00  0.00    +0.000 NA
ATOM      4  C   UNL     1       3.200   6.702  18.753  0.00  0.00    +0.000 A 
ATOM      5  C   UNL     1       4.027   5.547  18.660  0.00  0.00    +0.000 A 
ATOM      6  C   UNL     1       3.770   4.458  19.519  0.00  0.00    +0.000 A 
ATOM      7  C   UNL     1       2.762   4.495  20.474  0.00  0.00    +0.000 A 
ATOM      8  C   UNL     1       1.983   5.634  20.593  0.00  0.00    +0.000 A 
ATOM      9  C   UNL     1       2.189   6.724  19.740  0.00  0.00    +0.000 A 
ATOM     10  C   UNL     1       1.364   7.853  19.855  0.00  0.00    +0.000 A 
ENDROOT
BRANCH   5  11
ATOM     11  N   UNL     1       5.060   5.445  17.735  0.00  0.00    +0.000 N 
ATOM     12  C   UNL     1       6.399   5.989  17.967  0.00  0.00    +0.000 C 
ATOM     13  C   UNL     1       7.450   4.946  17.523  0.00  0.00    +0.000 C 
ATOM     14  N   UNL     1       7.288   4.486  16.128  0.00  0.00    +0.000 NA
ATOM     15  C   UNL     1       5.902   3.998  15.927  0.00  0.00    +0.000 C 
ATOM     16  C   UNL     1       4.818   5.014  16.349  0.00  0.00    +0.000 C 
ATOM     17  H   UNL     1       7.926   3.709  15.968  0.00  0.00    +0.000 HD
ENDBRANCH   5  11
BRANCH   1  23
ATOM     18  O   UNL     1      -0.950   9.690  17.417  0.00  0.00    +0.000 OA
ATOM     19  C   UNL     1      -0.462  10.357  18.311  0.00  0.00    +0.000 C 
ATOM     20  C   UNL     1      -0.956  11.735  18.681  0.00  0.00    +0.000 C 
ATOM     21  C   UNL     1      -0.319  11.992  20.032  0.00  0.00    +0.000 C 
ATOM     22  C   UNL     1       0.958  11.182  19.987  0.00  0.00    +0.000 C 
ATOM     23  N   UNL     1       0.653  10.076  19.112  0.00  0.00    +0.000 N 
ENDBRANCH   1  23
TORSDOF 2
ENDMDL
