MODEL 1
REMARK VINA RESULT:      -7.1      0.000      0.000
REMARK  Name = 
REMARK  3 active torsions:
REMARK  status: ('A' for Active; 'I' for Inactive)
REMARK    1  A    between atoms: C_1  and  C_2
REMARK    2  A    between atoms: C_6  and  C_7
REMARK    3  A    between atoms: C_15  and  C_16
REMARK                            x       y       z     vdW  Elec       q    Type
REMARK                         _______ _______ _______ _____ _____    ______ ____
ROOT
ATOM      1  C   UNL     1       0.771   9.234  22.482  0.00  0.00    +0.000 C 
ATOM      2  C   UNL     1       0.316  10.056  21.302  0.00  0.00    +0.000 C 
ATOM      3  O   UNL     1      -0.492  10.976  21.436  0.00  0.00    +0.000 OA
ATOM      4  N   UNL     1       0.885   9.710  20.089  0.00  0.00    +0.000 N 
ATOM      5  N   UNL     1       1.656   8.589  19.947  0.00  0.00    +0.000 NA
ATOM      6  C   UNL     1       1.873   8.434  18.676  0.00  0.00    +0.000 C 
ATOM      7  C   UNL     1       1.280   9.495  17.784  0.00  0.00    +0.000 C 
ATOM      8  C   UNL     1       0.530  10.340  18.816  0.00  0.00    +0.000 C 
ENDROOT
BRANCH   8   9
ATOM      9  C   UNL     1       0.913  11.811  18.769  0.00  0.00    +0.000 A 
ATOM     10  C   UNL     1       2.280  12.159  18.707  0.00  0.00    +0.000 A 
ATOM     11  C   UNL     1       2.690  13.491  18.715  0.00  0.00    +0.000 A 
ATOM     12  C   UNL     1       1.743  14.505  18.797  0.00  0.00    +0.000 A 
ATOM     13  C   UNL     1       0.383  14.192  18.853  0.00  0.00    +0.000 A 
ATOM     14 CL   UNL     1      -0.723  15.521  18.952  0.00  0.00    +0.000 Cl
ATOM     15  C   UNL     1      -0.041  12.851  18.827  0.00  0.00    +0.000 A 
ATOM     16 CL   UNL     1      -1.740  12.486  18.839  0.00  0.00    +0.000 Cl
ENDBRANCH   8   9
BRANCH   6  17
ATOM     17  C   UNL     1       2.647   7.292  18.136  0.00  0.00    +0.000 A 
ATOM     18  C   UNL     1       3.835   7.552  17.437  0.00  0.00    +0.000 A 
ATOM     19  C   UNL     1       4.604   6.501  16.933  0.00  0.00    +0.000 A 
ATOM     20  C   UNL     1       4.183   5.187  17.127  0.00  0.00    +0.000 A 
ATOM     21 BR   UNL     1       5.229   3.761  16.460  0.00  0.00    +0.000 Br
ATOM     22  C   UNL     1       3.002   4.917  17.816  0.00  0.00    +0.000 A 
ATOM     23  C   UNL     1       2.230   5.969  18.321  0.00  0.00    +0.000 A 
ENDBRANCH   6  17
TORSDOF 2
ENDMDL
MODEL 2
REMARK VINA RESULT:      -6.8      0.221      1.031
REMARK  Name = 
REMARK  3 active torsions:
REMARK  status: ('A' for Active; 'I' for Inactive)
REMARK    1  A    between atoms: C_1  and  C_2
REMARK    2  A    between atoms: C_6  and  C_7
REMARK    3  A    between atoms: C_15  and  C_16
REMARK                            x       y       z     vdW  Elec       q    Type
REMARK                         _______ _______ _______ _____ _____    ______ ____
ROOT
ATOM      1  C   UNL     1       0.361   9.216  22.455  0.00  0.00    +0.000 C 
ATOM      2  C   UNL     1       0.018  10.077  21.265  0.00  0.00    +0.000 C 
ATOM      3  O   UNL     1      -0.798  10.994  21.353  0.00  0.00    +0.000 OA
ATOM      4  N   UNL     1       0.697   9.767  20.099  0.00  0.00    +0.000 N 
ATOM      5  N   UNL     1       1.476   8.648  19.993  0.00  0.00    +0.000 NA
ATOM      6  C   UNL     1       1.810   8.533  18.744  0.00  0.00    +0.000 C 
ATOM      7  C   UNL     1       1.304   9.624  17.835  0.00  0.00    +0.000 C 
ATOM      8  C   UNL     1       0.462  10.439  18.820  0.00  0.00    +0.000 C 
ENDROOT
BRANCH   8   9
ATOM      9  C   UNL     1       0.848  11.909  18.856  0.00  0.00    +0.000 A 
ATOM     10  C   UNL     1       2.216  12.253  18.921  0.00  0.00    +0.000 A 
ATOM     11  C   UNL     1       2.625  13.582  19.009  0.00  0.00    +0.000 A 
ATOM     12  C   UNL     1       1.675  14.597  19.045  0.00  0.00    +0.000 A 
ATOM     13  C   UNL     1       0.315  14.287  18.974  0.00  0.00    +0.000 A 
ATOM     14 CL   UNL     1      -0.794  15.616  19.025  0.00  0.00    +0.000 Cl
ATOM     15  C   UNL     1      -0.106  12.949  18.867  0.00  0.00    +0.000 A 
ATOM     16 CL   UNL     1      -1.801  12.591  18.723  0.00  0.00    +0.000 Cl
ENDBRANCH   8   9
BRANCH   6  17
ATOM     17  C   UNL     1       2.630   7.405  18.242  0.00  0.00    +0.000 A 
ATOM     18  C   UNL     1       2.239   6.094  18.557  0.00  0.00    +0.000 A 
ATOM     19  C   UNL     1       2.972   5.004  18.084  0.00  0.00    +0.000 A 
ATOM     20  C   UNL     1       4.099   5.225  17.294  0.00  0.00    +0.000 A 
ATOM     21 BR   UNL     1       5.085   3.752  16.638  0.00  0.00    +0.000 Br
ATOM     22  C   UNL     1       4.499   6.523  16.979  0.00  0.00    +0.000 A 
ATOM     23  C   UNL     1       3.765   7.616  17.453  0.00  0.00    +0.000 A 
ENDBRANCH   6  17
TORSDOF 2
ENDMDL
MODEL 3
REMARK VINA RESULT:      -6.8      2.388      3.602
REMARK  Name = 
REMARK  3 active torsions:
REMARK  status: ('A' for Active; 'I' for Inactive)
REMARK    1  A    between atoms: C_1  and  C_2
REMARK    2  A    between atoms: C_6  and  C_7
REMARK    3  A    between atoms: C_15  and  C_16
REMARK                            x       y       z     vdW  Elec       q    Type
REMARK                         _______ _______ _______ _____ _____    ______ ____
ROOT
ATOM      1  C   UNL     1       2.219  13.157  17.896  0.00  0.00    +0.000 C 
ATOM      2  C   UNL     1       0.991  12.762  18.677  0.00  0.00    +0.000 C 
ATOM      3  O   UNL     1       0.203  13.607  19.103  0.00  0.00    +0.000 OA
ATOM      4  N   UNL     1       0.818  11.400  18.853  0.00  0.00    +0.000 N 
ATOM      5  N   UNL     1       1.787  10.499  18.506  0.00  0.00    +0.000 NA
ATOM      6  C   UNL     1       1.416   9.343  18.968  0.00  0.00    +0.000 C 
ATOM      7  C   UNL     1       0.086   9.326  19.676  0.00  0.00    +0.000 C 
ATOM      8  C   UNL     1      -0.272  10.814  19.634  0.00  0.00    +0.000 C 
ENDROOT
BRANCH   8   9
ATOM      9  C   UNL     1      -1.636  11.079  19.019  0.00  0.00    +0.000 A 
ATOM     10  C   UNL     1      -1.911  10.579  17.727  0.00  0.00    +0.000 A 
ATOM     11  C   UNL     1      -3.125  10.837  17.093  0.00  0.00    +0.000 A 
ATOM     12  C   UNL     1      -4.088  11.610  17.732  0.00  0.00    +0.000 A 
ATOM     13  C   UNL     1      -3.847  12.112  19.013  0.00  0.00    +0.000 A 
ATOM     14 CL   UNL     1      -5.104  13.064  19.730  0.00  0.00    +0.000 Cl
ATOM     15  C   UNL     1      -2.632  11.842  19.668  0.00  0.00    +0.000 A 
ATOM     16 CL   UNL     1      -2.377  12.429  21.283  0.00  0.00    +0.000 Cl
ENDBRANCH   8   9
BRANCH   6  17
ATOM     17  C   UNL     1       2.244   8.124  18.815  0.00  0.00    +0.000 A 
ATOM     18  C   UNL     1       2.148   7.117  19.787  0.00  0.00    +0.000 A 
ATOM     19  C   UNL     1       2.895   5.943  19.666  0.00  0.00    +0.000 A 
ATOM     20  C   UNL     1       3.741   5.777  18.572  0.00  0.00    +0.000 A 
ATOM     21 BR   UNL     1       4.742   4.183  18.396  0.00  0.00    +0.000 Br
ATOM     22  C   UNL     1       3.848   6.773  17.602  0.00  0.00    +0.000 A 
ATOM     23  C   UNL     1       3.100   7.949  17.722  0.00  0.00    +0.000 A 
ENDBRANCH   6  17
TORSDOF 2
ENDMDL
MODEL 4
REMARK VINA RESULT:      -6.7      1.108      1.120
REMARK  Name = 
REMARK  3 active torsions:
REMARK  status: ('A' for Active; 'I' for Inactive)
REMARK    1  A    between atoms: C_1  and  C_2
REMARK    2  A    between atoms: C_6  and  C_7
REMARK    3  A    between atoms: C_15  and  C_16
REMARK                            x       y       z     vdW  Elec       q    Type
REMARK                         _______ _______ _______ _____ _____    ______ ____
ROOT
ATOM      1  C   UNL     1      -0.034   9.394  23.207  0.00  0.00    +0.000 C 
ATOM      2  C   UNL     1      -0.271  10.300  22.024  0.00  0.00    +0.000 C 
ATOM      3  O   UNL     1      -1.038  11.260  22.096  0.00  0.00    +0.000 OA
ATOM      4  N   UNL     1       0.447   9.979  20.885  0.00  0.00    +0.000 N 
ATOM      5  N   UNL     1       1.168   8.821  20.788  0.00  0.00    +0.000 NA
ATOM      6  C   UNL     1       1.556   8.716  19.553  0.00  0.00    +0.000 C 
ATOM      7  C   UNL     1       1.155   9.853  18.650  0.00  0.00    +0.000 C 
ATOM      8  C   UNL     1       0.312  10.692  19.613  0.00  0.00    +0.000 C 
ENDROOT
BRANCH   8   9
ATOM      9  C   UNL     1       0.777  12.137  19.705  0.00  0.00    +0.000 A 
ATOM     10  C   UNL     1       1.901  12.443  20.503  0.00  0.00    +0.000 A 
ATOM     11  C   UNL     1       2.339  13.756  20.665  0.00  0.00    +0.000 A 
ATOM     12  C   UNL     1       1.656  14.794  20.042  0.00  0.00    +0.000 A 
ATOM     13  C   UNL     1       0.545  14.521  19.240  0.00  0.00    +0.000 A 
ATOM     14 CL   UNL     1      -0.241  15.877  18.504  0.00  0.00    +0.000 Cl
ATOM     15  C   UNL     1       0.107  13.197  19.056  0.00  0.00    +0.000 A 
ATOM     16 CL   UNL     1      -1.243  12.876  18.010  0.00  0.00    +0.000 Cl
ENDBRANCH   8   9
BRANCH   6  17
ATOM     17  C   UNL     1       2.336   7.555  19.062  0.00  0.00    +0.000 A 
ATOM     18  C   UNL     1       3.106   7.703  17.899  0.00  0.00    +0.000 A 
ATOM     19  C   UNL     1       3.873   6.640  17.417  0.00  0.00    +0.000 A 
ATOM     20  C   UNL     1       3.868   5.425  18.100  0.00  0.00    +0.000 A 
ATOM     21 BR   UNL     1       4.916   3.988  17.461  0.00  0.00    +0.000 Br
ATOM     22  C   UNL     1       3.102   5.265  19.254  0.00  0.00    +0.000 A 
ATOM     23  C   UNL     1       2.333   6.330  19.737  0.00  0.00    +0.000 A 
ENDBRANCH   6  17
TORSDOF 2
ENDMDL
MODEL 5
REMARK VINA RESULT:      -6.7      2.340      3.427
REMARK  Name = 
REMARK  3 active torsions:
REMARK  status: ('A' for Active; 'I' for Inactive)
REMARK    1  A    between atoms: C_1  and  C_2
REMARK    2  A    between atoms: C_6  and  C_7
REMARK    3  A    between atoms: C_15  and  C_16
REMARK                            x       y       z     vdW  Elec       q    Type
REMARK                         _______ _______ _______ _____ _____    ______ ____
ROOT
ATOM      1  C   UNL     1       2.323  13.078  17.941  0.00  0.00    +0.000 C 
ATOM      2  C   UNL     1       1.109  12.722  18.763  0.00  0.00    +0.000 C 
ATOM      3  O   UNL     1       0.362  13.592  19.211  0.00  0.00    +0.000 OA
ATOM      4  N   UNL     1       0.902  11.366  18.949  0.00  0.00    +0.000 N 
ATOM      5  N   UNL     1       1.831  10.436  18.573  0.00  0.00    +0.000 NA
ATOM      6  C   UNL     1       1.441   9.293  19.051  0.00  0.00    +0.000 C 
ATOM      7  C   UNL     1       0.134   9.318  19.802  0.00  0.00    +0.000 C 
ATOM      8  C   UNL     1      -0.179  10.815  19.767  0.00  0.00    +0.000 C 
ENDROOT
BRANCH   8   9
ATOM      9  C   UNL     1      -1.555  11.120  19.196  0.00  0.00    +0.000 A 
ATOM     10  C   UNL     1      -1.886  10.628  17.914  0.00  0.00    +0.000 A 
ATOM     11  C   UNL     1      -3.111  10.921  17.319  0.00  0.00    +0.000 A 
ATOM     12  C   UNL     1      -4.030  11.723  17.988  0.00  0.00    +0.000 A 
ATOM     13  C   UNL     1      -3.733  12.218  19.260  0.00  0.00    +0.000 A 
ATOM     14 CL   UNL     1      -4.938  13.206  20.015  0.00  0.00    +0.000 Cl
ATOM     15  C   UNL     1      -2.506  11.912  19.875  0.00  0.00    +0.000 A 
ATOM     16 CL   UNL     1      -2.182  12.493  21.481  0.00  0.00    +0.000 Cl
ENDBRANCH   8   9
BRANCH   6  17
ATOM     17  C   UNL     1       2.226   8.049  18.875  0.00  0.00    +0.000 A 
ATOM     18  C   UNL     1       3.041   7.920  17.739  0.00  0.00    +0.000 A 
ATOM     19  C   UNL     1       3.814   6.773  17.549  0.00  0.00    +0.000 A 
ATOM     20  C   UNL     1       3.772   5.751  18.496  0.00  0.00    +0.000 A 
ATOM     21 BR   UNL     1       4.828   4.204  18.250  0.00  0.00    +0.000 Br
ATOM     22  C   UNL     1       2.962   5.866  19.625  0.00  0.00    +0.000 A 
ATOM     23  C   UNL     1       2.187   7.015  19.817  0.00  0.00    +0.000 A 
ENDBRANCH   6  17
TORSDOF 2
ENDMDL
MODEL 6
REMARK VINA RESULT:      -6.7      1.230      1.574
REMARK  Name = 
REMARK  3 active torsions:
REMARK  status: ('A' for Active; 'I' for Inactive)
REMARK    1  A    between atoms: C_1  and  C_2
REMARK    2  A    between atoms: C_6  and  C_7
REMARK    3  A    between atoms: C_15  and  C_16
REMARK                            x       y       z     vdW  Elec       q    Type
REMARK                         _______ _______ _______ _____ _____    ______ ____
ROOT
ATOM      1  C   UNL     1      -0.195   9.485  23.331  0.00  0.00    +0.000 C 
ATOM      2  C   UNL     1      -0.405  10.358  22.120  0.00  0.00    +0.000 C 
ATOM      3  O   UNL     1      -1.170  11.322  22.150  0.00  0.00    +0.000 OA
ATOM      4  N   UNL     1       0.332  10.003  21.003  0.00  0.00    +0.000 N 
ATOM      5  N   UNL     1       1.049   8.839  20.952  0.00  0.00    +0.000 NA
ATOM      6  C   UNL     1       1.460   8.698  19.728  0.00  0.00    +0.000 C 
ATOM      7  C   UNL     1       1.081   9.811  18.786  0.00  0.00    +0.000 C 
ATOM      8  C   UNL     1       0.224  10.680  19.710  0.00  0.00    +0.000 C 
ENDROOT
BRANCH   8   9
ATOM      9  C   UNL     1       0.693  12.125  19.770  0.00  0.00    +0.000 A 
ATOM     10  C   UNL     1       1.840  12.439  20.531  0.00  0.00    +0.000 A 
ATOM     11  C   UNL     1       2.284  13.753  20.664  0.00  0.00    +0.000 A 
ATOM     12  C   UNL     1       1.585  14.785  20.048  0.00  0.00    +0.000 A 
ATOM     13  C   UNL     1       0.451  14.504  19.282  0.00  0.00    +0.000 A 
ATOM     14 CL   UNL     1      -0.354  15.851  18.551  0.00  0.00    +0.000 Cl
ATOM     15  C   UNL     1       0.006  13.178  19.127  0.00  0.00    +0.000 A 
ATOM     16 CL   UNL     1      -1.373  12.846  18.124  0.00  0.00    +0.000 Cl
ENDBRANCH   8   9
BRANCH   6  17
ATOM     17  C   UNL     1       2.243   7.521  19.285  0.00  0.00    +0.000 A 
ATOM     18  C   UNL     1       2.275   6.383  20.106  0.00  0.00    +0.000 A 
ATOM     19  C   UNL     1       2.983   5.246  19.712  0.00  0.00    +0.000 A 
ATOM     20  C   UNL     1       3.662   5.247  18.495  0.00  0.00    +0.000 A 
ATOM     21 BR   UNL     1       4.609   3.704  17.951  0.00  0.00    +0.000 Br
ATOM     22  C   UNL     1       3.642   6.373  17.674  0.00  0.00    +0.000 A 
ATOM     23  C   UNL     1       2.933   7.513  18.068  0.00  0.00    +0.000 A 
ENDBRANCH   6  17
TORSDOF 2
ENDMDL
MODEL 7
REMARK VINA RESULT:      -6.5      5.150      8.099
REMARK  Name = 
REMARK  3 active torsions:
REMARK  status: ('A' for Active; 'I' for Inactive)
REMARK    1  A    between atoms: C_1  and  C_2
REMARK    2  A    between atoms: C_6  and  C_7
REMARK    3  A    between atoms: C_15  and  C_16
REMARK                            x       y       z     vdW  Elec       q    Type
REMARK                         _______ _______ _______ _____ _____    ______ ____
ROOT
ATOM      1  C   UNL     1       1.297   3.080  21.286  0.00  0.00    +0.000 C 
ATOM      2  C   UNL     1       2.590   3.539  20.660  0.00  0.00    +0.000 C 
ATOM      3  O   UNL     1       3.536   2.767  20.506  0.00  0.00    +0.000 OA
ATOM      4  N   UNL     1       2.614   4.865  20.264  0.00  0.00    +0.000 N 
ATOM      5  N   UNL     1       1.609   5.734  20.590  0.00  0.00    +0.000 NA
ATOM      6  C   UNL     1       2.009   6.923  20.254  0.00  0.00    +0.000 C 
ATOM      7  C   UNL     1       3.368   6.989  19.607  0.00  0.00    +0.000 C 
ATOM      8  C   UNL     1       3.792   5.521  19.696  0.00  0.00    +0.000 C 
ENDROOT
BRANCH   8   9
ATOM      9  C   UNL     1       4.192   4.936  18.351  0.00  0.00    +0.000 A 
ATOM     10  C   UNL     1       3.212   4.279  17.574  0.00  0.00    +0.000 A 
ATOM     11  C   UNL     1       3.534   3.679  16.359  0.00  0.00    +0.000 A 
ATOM     12  C   UNL     1       4.845   3.712  15.897  0.00  0.00    +0.000 A 
ATOM     13  C   UNL     1       5.834   4.361  16.640  0.00  0.00    +0.000 A 
ATOM     14 CL   UNL     1       7.437   4.352  15.985  0.00  0.00    +0.000 Cl
ATOM     15  C   UNL     1       5.515   4.985  17.859  0.00  0.00    +0.000 A 
ATOM     16 CL   UNL     1       6.749   5.836  18.738  0.00  0.00    +0.000 Cl
ENDBRANCH   8   9
BRANCH   6  17
ATOM     17  C   UNL     1       1.189   8.133  20.494  0.00  0.00    +0.000 A 
ATOM     18  C   UNL     1       0.467   8.232  21.694  0.00  0.00    +0.000 A 
ATOM     19  C   UNL     1      -0.299   9.368  21.968  0.00  0.00    +0.000 A 
ATOM     20  C   UNL     1      -0.344  10.406  21.039  0.00  0.00    +0.000 A 
ATOM     21 BR   UNL     1      -1.367  11.951  21.412  0.00  0.00    +0.000 Br
ATOM     22  C   UNL     1       0.365  10.316  19.842  0.00  0.00    +0.000 A 
ATOM     23  C   UNL     1       1.132   9.179  19.567  0.00  0.00    +0.000 A 
ENDBRANCH   6  17
TORSDOF 2
ENDMDL
MODEL 8
REMARK VINA RESULT:      -6.5      5.143      8.046
REMARK  Name = 
REMARK  3 active torsions:
REMARK  status: ('A' for Active; 'I' for Inactive)
REMARK    1  A    between atoms: C_1  and  C_2
REMARK    2  A    between atoms: C_6  and  C_7
REMARK    3  A    between atoms: C_15  and  C_16
REMARK                            x       y       z     vdW  Elec       q    Type
REMARK                         _______ _______ _______ _____ _____    ______ ____
ROOT
ATOM      1  C   UNL     1       1.276   3.081  21.274  0.00  0.00    +0.000 C 
ATOM      2  C   UNL     1       2.576   3.532  20.658  0.00  0.00    +0.000 C 
ATOM      3  O   UNL     1       3.518   2.754  20.510  0.00  0.00    +0.000 OA
ATOM      4  N   UNL     1       2.612   4.859  20.265  0.00  0.00    +0.000 N 
ATOM      5  N   UNL     1       1.611   5.734  20.584  0.00  0.00    +0.000 NA
ATOM      6  C   UNL     1       2.021   6.920  20.253  0.00  0.00    +0.000 C 
ATOM      7  C   UNL     1       3.386   6.979  19.616  0.00  0.00    +0.000 C 
ATOM      8  C   UNL     1       3.799   5.508  19.706  0.00  0.00    +0.000 C 
ENDROOT
BRANCH   8   9
ATOM      9  C   UNL     1       4.205   4.922  18.363  0.00  0.00    +0.000 A 
ATOM     10  C   UNL     1       3.228   4.265  17.582  0.00  0.00    +0.000 A 
ATOM     11  C   UNL     1       3.555   3.664  16.369  0.00  0.00    +0.000 A 
ATOM     12  C   UNL     1       4.869   3.696  15.913  0.00  0.00    +0.000 A 
ATOM     13  C   UNL     1       5.855   4.345  16.660  0.00  0.00    +0.000 A 
ATOM     14 CL   UNL     1       7.461   4.334  16.013  0.00  0.00    +0.000 Cl
ATOM     15  C   UNL     1       5.530   4.970  17.878  0.00  0.00    +0.000 A 
ATOM     16 CL   UNL     1       6.761   5.820  18.762  0.00  0.00    +0.000 Cl
ENDBRANCH   8   9
BRANCH   6  17
ATOM     17  C   UNL     1       1.208   8.136  20.489  0.00  0.00    +0.000 A 
ATOM     18  C   UNL     1       1.139   9.109  19.479  0.00  0.00    +0.000 A 
ATOM     19  C   UNL     1       0.365  10.258  19.654  0.00  0.00    +0.000 A 
ATOM     20  C   UNL     1      -0.341  10.436  20.842  0.00  0.00    +0.000 A 
ATOM     21 BR   UNL     1      -1.403  11.981  21.078  0.00  0.00    +0.000 Br
ATOM     22  C   UNL     1      -0.276   9.478  21.854  0.00  0.00    +0.000 A 
ATOM     23  C   UNL     1       0.500   8.327  21.680  0.00  0.00    +0.000 A 
ENDBRANCH   6  17
TORSDOF 2
ENDMDL
MODEL 9
REMARK VINA RESULT:      -6.5      2.498      3.659
REMARK  Name = 
REMARK  3 active torsions:
REMARK  status: ('A' for Active; 'I' for Inactive)
REMARK    1  A    between atoms: C_1  and  C_2
REMARK    2  A    between atoms: C_6  and  C_7
REMARK    3  A    between atoms: C_15  and  C_16
REMARK                            x       y       z     vdW  Elec       q    Type
REMARK                         _______ _______ _______ _____ _____    ______ ____
ROOT
ATOM      1  C   UNL     1       2.426  12.847  18.093  0.00  0.00    +0.000 C 
ATOM      2  C   UNL     1       1.446  12.724  19.233  0.00  0.00    +0.000 C 
ATOM      3  O   UNL     1       0.986  13.719  19.792  0.00  0.00    +0.000 OA
ATOM      4  N   UNL     1       1.101  11.428  19.575  0.00  0.00    +0.000 N 
ATOM      5  N   UNL     1       1.745  10.345  19.043  0.00  0.00    +0.000 NA
ATOM      6  C   UNL     1       1.338   9.300  19.697  0.00  0.00    +0.000 C 
ATOM      7  C   UNL     1       0.306   9.565  20.763  0.00  0.00    +0.000 C 
ATOM      8  C   UNL     1       0.218  11.091  20.693  0.00  0.00    +0.000 C 
ENDROOT
BRANCH   8   9
ATOM      9  C   UNL     1      -1.202  11.594  20.483  0.00  0.00    +0.000 A 
ATOM     10  C   UNL     1      -1.820  11.390  19.230  0.00  0.00    +0.000 A 
ATOM     11  C   UNL     1      -3.099  11.876  18.965  0.00  0.00    +0.000 A 
ATOM     12  C   UNL     1      -3.785  12.587  19.943  0.00  0.00    +0.000 A 
ATOM     13  C   UNL     1      -3.201  12.799  21.195  0.00  0.00    +0.000 A 
ATOM     14 CL   UNL     1      -4.130  13.694  22.350  0.00  0.00    +0.000 Cl
ATOM     15  C   UNL     1      -1.918  12.296  21.477  0.00  0.00    +0.000 A 
ATOM     16 CL   UNL     1      -1.236  12.522  23.059  0.00  0.00    +0.000 Cl
ENDBRANCH   8   9
BRANCH   6  17
ATOM     17  C   UNL     1       1.854   7.939  19.420  0.00  0.00    +0.000 A 
ATOM     18  C   UNL     1       1.712   6.949  20.406  0.00  0.00    +0.000 A 
ATOM     19  C   UNL     1       2.166   5.649  20.174  0.00  0.00    +0.000 A 
ATOM     20  C   UNL     1       2.763   5.337  18.954  0.00  0.00    +0.000 A 
ATOM     21 BR   UNL     1       3.363   3.575  18.630  0.00  0.00    +0.000 Br
ATOM     22  C   UNL     1       2.913   6.313  17.970  0.00  0.00    +0.000 A 
ATOM     23  C   UNL     1       2.460   7.616  18.201  0.00  0.00    +0.000 A 
ENDBRANCH   6  17
TORSDOF 2
ENDMDL
