MODEL 1
REMARK VINA RESULT:      -7.4      0.000      0.000
REMARK  Name = 
REMARK  8 active torsions:
REMARK  status: ('A' for Active; 'I' for Inactive)
REMARK    1  A    between atoms: C_2  and  C_18
REMARK    2  A    between atoms: N_3  and  C_4
REMARK    3  A    between atoms: C_4  and  C_5
REMARK    4  A    between atoms: C_5  and  C_6
REMARK    5  A    between atoms: C_6  and  N_7
REMARK    6  A    between atoms: C_8  and  C_9
REMARK    7  A    between atoms: C_16  and  O_17
REMARK    8  A    between atoms: C_23  and  O_24
REMARK                            x       y       z     vdW  Elec       q    Type
REMARK                         _______ _______ _______ _____ _____    ______ ____
ROOT
ATOM      1  C   UNL     1       1.190   3.664  20.190  0.00  0.00    +0.000 C 
ENDROOT
BRANCH   1   2
ATOM      2  C   UNL     1       2.115   4.543  21.021  0.00  0.00    +0.000 C 
BRANCH   2   5
ATOM      3  O   UNL     1       2.943   6.667  19.329  0.00  0.00    +0.000 OA
ATOM      4  C   UNL     1       2.095   6.883  20.191  0.00  0.00    +0.000 C 
ATOM      5  N   UNL     1       1.657   5.914  21.063  0.00  0.00    +0.000 N 
ATOM      6  H   UNL     1       0.908   6.167  21.702  0.00  0.00    +0.000 HD
BRANCH   4   7
ATOM      7  C   UNL     1       1.494   8.250  20.337  0.00  0.00    +0.000 A 
ATOM      8  C   UNL     1       1.092   8.638  21.626  0.00  0.00    +0.000 A 
ATOM      9  C   UNL     1       0.519   9.891  21.853  0.00  0.00    +0.000 A 
ATOM     10  C   UNL     1       0.338  10.775  20.793  0.00  0.00    +0.000 A 
ATOM     11  C   UNL     1       0.729  10.408  19.506  0.00  0.00    +0.000 A 
ATOM     12  C   UNL     1       1.304   9.153  19.278  0.00  0.00    +0.000 A 
BRANCH  12  13
ATOM     13  O   UNL     1       1.679   8.832  17.997  0.00  0.00    +0.000 OA
ATOM     14  H   UNL     1       0.880   8.749  17.448  0.00  0.00    +0.000 HD
ENDBRANCH  12  13
ENDBRANCH   4   7
ENDBRANCH   2   5
ENDBRANCH   1   2
BRANCH   1  15
ATOM     15  C   UNL     1       1.985   2.668  19.347  0.00  0.00    +0.000 C 
BRANCH  15  16
ATOM     16  N   UNL     1       2.781   3.430  18.381  0.00  0.00    +0.000 NA
ATOM     17  C   UNL     1       4.049   3.422  18.620  0.00  0.00    +0.000 C 
BRANCH  17  18
ATOM     18  C   UNL     1       4.993   4.135  17.734  0.00  0.00    +0.000 A 
ATOM     19  C   UNL     1       5.074   3.772  16.383  0.00  0.00    +0.000 A 
ATOM     20  C   UNL     1       5.978   4.419  15.546  0.00  0.00    +0.000 A 
ATOM     21 BR   UNL     1       6.089   3.920  13.725  0.00  0.00    +0.000 Br
ATOM     22  C   UNL     1       6.807   5.425  16.037  0.00  0.00    +0.000 A 
ATOM     23  C   UNL     1       6.720   5.788  17.381  0.00  0.00    +0.000 A 
ATOM     24 BR   UNL     1       7.863   7.156  18.030  0.00  0.00    +0.000 Br
ATOM     25  C   UNL     1       5.813   5.150  18.235  0.00  0.00    +0.000 A 
BRANCH  25  26
ATOM     26  O   UNL     1       5.723   5.503  19.556  0.00  0.00    +0.000 OA
ATOM     27  H   UNL     1       6.465   5.084  20.030  0.00  0.00    +0.000 HD
ENDBRANCH  25  26
ENDBRANCH  17  18
ENDBRANCH  15  16
ENDBRANCH   1  15
TORSDOF 8
ENDMDL
MODEL 2
REMARK VINA RESULT:      -7.3      1.025      1.464
REMARK  Name = 
REMARK  8 active torsions:
REMARK  status: ('A' for Active; 'I' for Inactive)
REMARK    1  A    between atoms: C_2  and  C_18
REMARK    2  A    between atoms: N_3  and  C_4
REMARK    3  A    between atoms: C_4  and  C_5
REMARK    4  A    between atoms: C_5  and  C_6
REMARK    5  A    between atoms: C_6  and  N_7
REMARK    6  A    between atoms: C_8  and  C_9
REMARK    7  A    between atoms: C_16  and  O_17
REMARK    8  A    between atoms: C_23  and  O_24
REMARK                            x       y       z     vdW  Elec       q    Type
REMARK                         _______ _______ _______ _____ _____    ______ ____
ROOT
ATOM      1  C   UNL     1       1.253   4.021  20.307  0.00  0.00    +0.000 C 
ENDROOT
BRANCH   1   2
ATOM      2  C   UNL     1       2.250   5.047  20.829  0.00  0.00    +0.000 C 
BRANCH   2   5
ATOM      3  O   UNL     1       2.976   7.153  19.070  0.00  0.00    +0.000 OA
ATOM      4  C   UNL     1       2.096   7.346  19.905  0.00  0.00    +0.000 C 
ATOM      5  N   UNL     1       1.703   6.386  20.806  0.00  0.00    +0.000 N 
ATOM      6  H   UNL     1       0.923   6.613  21.419  0.00  0.00    +0.000 HD
BRANCH   4   7
ATOM      7  C   UNL     1       1.405   8.675  19.983  0.00  0.00    +0.000 A 
ATOM      8  C   UNL     1       1.005   9.260  18.769  0.00  0.00    +0.000 A 
ATOM      9  C   UNL     1       0.357  10.497  18.746  0.00  0.00    +0.000 A 
ATOM     10  C   UNL     1       0.102  11.170  19.937  0.00  0.00    +0.000 A 
ATOM     11  C   UNL     1       0.493  10.608  21.153  0.00  0.00    +0.000 A 
ATOM     12  C   UNL     1       1.139   9.367  21.176  0.00  0.00    +0.000 A 
BRANCH  12  13
ATOM     13  O   UNL     1       1.504   8.846  22.393  0.00  0.00    +0.000 OA
ATOM     14  H   UNL     1       2.172   8.153  22.250  0.00  0.00    +0.000 HD
ENDBRANCH  12  13
ENDBRANCH   4   7
ENDBRANCH   2   5
ENDBRANCH   1   2
BRANCH   1  15
ATOM     15  C   UNL     1       1.858   3.188  19.178  0.00  0.00    +0.000 C 
BRANCH  15  16
ATOM     16  N   UNL     1       2.804   4.037  18.450  0.00  0.00    +0.000 NA
ATOM     17  C   UNL     1       3.757   3.388  17.872  0.00  0.00    +0.000 C 
BRANCH  17  18
ATOM     18  C   UNL     1       4.791   4.095  17.087  0.00  0.00    +0.000 A 
ATOM     19  C   UNL     1       5.022   3.716  15.758  0.00  0.00    +0.000 A 
ATOM     20  C   UNL     1       6.012   4.357  15.018  0.00  0.00    +0.000 A 
ATOM     21 BR   UNL     1       6.325   3.837  13.227  0.00  0.00    +0.000 Br
ATOM     22  C   UNL     1       6.778   5.372  15.586  0.00  0.00    +0.000 A 
ATOM     23  C   UNL     1       6.542   5.751  16.907  0.00  0.00    +0.000 A 
ATOM     24 BR   UNL     1       7.602   7.131  17.662  0.00  0.00    +0.000 Br
ATOM     25  C   UNL     1       5.548   5.119  17.664  0.00  0.00    +0.000 A 
BRANCH  25  26
ATOM     26  O   UNL     1       5.311   5.488  18.962  0.00  0.00    +0.000 OA
ATOM     27  H   UNL     1       5.382   6.459  19.015  0.00  0.00    +0.000 HD
ENDBRANCH  25  26
ENDBRANCH  17  18
ENDBRANCH  15  16
ENDBRANCH   1  15
TORSDOF 8
ENDMDL
MODEL 3
REMARK VINA RESULT:      -7.2      1.298      1.889
REMARK  Name = 
REMARK  8 active torsions:
REMARK  status: ('A' for Active; 'I' for Inactive)
REMARK    1  A    between atoms: C_2  and  C_18
REMARK    2  A    between atoms: N_3  and  C_4
REMARK    3  A    between atoms: C_4  and  C_5
REMARK    4  A    between atoms: C_5  and  C_6
REMARK    5  A    between atoms: C_6  and  N_7
REMARK    6  A    between atoms: C_8  and  C_9
REMARK    7  A    between atoms: C_16  and  O_17
REMARK    8  A    between atoms: C_23  and  O_24
REMARK                            x       y       z     vdW  Elec       q    Type
REMARK                         _______ _______ _______ _____ _____    ______ ____
ROOT
ATOM      1  C   UNL     1       2.278   2.602  20.186  0.00  0.00    +0.000 C 
ENDROOT
BRANCH   1   2
ATOM      2  C   UNL     1       1.154   3.449  20.768  0.00  0.00    +0.000 C 
BRANCH   2   5
ATOM      3  O   UNL     1       3.299   5.308  20.740  0.00  0.00    +0.000 OA
ATOM      4  C   UNL     1       2.232   5.616  20.214  0.00  0.00    +0.000 C 
ATOM      5  N   UNL     1       1.140   4.781  20.204  0.00  0.00    +0.000 N 
ATOM      6  H   UNL     1       0.320   5.093  19.690  0.00  0.00    +0.000 HD
BRANCH   4   7
ATOM      7  C   UNL     1       2.072   6.952  19.551  0.00  0.00    +0.000 A 
ATOM      8  C   UNL     1       2.644   7.107  18.277  0.00  0.00    +0.000 A 
ATOM      9  C   UNL     1       2.546   8.318  17.588  0.00  0.00    +0.000 A 
ATOM     10  C   UNL     1       1.877   9.394  18.165  0.00  0.00    +0.000 A 
ATOM     11  C   UNL     1       1.305   9.262  19.430  0.00  0.00    +0.000 A 
ATOM     12  C   UNL     1       1.400   8.048  20.119  0.00  0.00    +0.000 A 
BRANCH  12  13
ATOM     13  O   UNL     1       0.819   7.957  21.360  0.00  0.00    +0.000 OA
ATOM     14  H   UNL     1       1.392   7.420  21.936  0.00  0.00    +0.000 HD
ENDBRANCH  12  13
ENDBRANCH   4   7
ENDBRANCH   2   5
ENDBRANCH   1   2
BRANCH   1  15
ATOM     15  C   UNL     1       1.952   2.155  18.763  0.00  0.00    +0.000 C 
BRANCH  15  16
ATOM     16  N   UNL     1       2.761   2.959  17.842  0.00  0.00    +0.000 NA
ATOM     17  C   UNL     1       3.977   3.140  18.231  0.00  0.00    +0.000 C 
BRANCH  17  18
ATOM     18  C   UNL     1       4.928   3.922  17.411  0.00  0.00    +0.000 A 
ATOM     19  C   UNL     1       5.060   3.629  16.047  0.00  0.00    +0.000 A 
ATOM     20  C   UNL     1       5.971   4.340  15.272  0.00  0.00    +0.000 A 
ATOM     21 BR   UNL     1       6.151   3.936  13.433  0.00  0.00    +0.000 Br
ATOM     22  C   UNL     1       6.757   5.341  15.838  0.00  0.00    +0.000 A 
ATOM     23  C   UNL     1       6.619   5.635  17.195  0.00  0.00    +0.000 A 
ATOM     24 BR   UNL     1       7.704   6.998  17.946  0.00  0.00    +0.000 Br
ATOM     25  C   UNL     1       5.704   4.931  17.988  0.00  0.00    +0.000 A 
BRANCH  25  26
ATOM     26  O   UNL     1       5.565   5.216  19.320  0.00  0.00    +0.000 OA
ATOM     27  H   UNL     1       4.730   5.708  19.436  0.00  0.00    +0.000 HD
ENDBRANCH  25  26
ENDBRANCH  17  18
ENDBRANCH  15  16
ENDBRANCH   1  15
TORSDOF 8
ENDMDL
MODEL 4
REMARK VINA RESULT:      -6.8      3.838      8.275
REMARK  Name = 
REMARK  8 active torsions:
REMARK  status: ('A' for Active; 'I' for Inactive)
REMARK    1  A    between atoms: C_2  and  C_18
REMARK    2  A    between atoms: N_3  and  C_4
REMARK    3  A    between atoms: C_4  and  C_5
REMARK    4  A    between atoms: C_5  and  C_6
REMARK    5  A    between atoms: C_6  and  N_7
REMARK    6  A    between atoms: C_8  and  C_9
REMARK    7  A    between atoms: C_16  and  O_17
REMARK    8  A    between atoms: C_23  and  O_24
REMARK                            x       y       z     vdW  Elec       q    Type
REMARK                         _______ _______ _______ _____ _____    ______ ____
ROOT
ATOM      1  C   UNL     1       4.999   5.261  18.932  0.00  0.00    +0.000 C 
ENDROOT
BRANCH   1   2
ATOM      2  C   UNL     1       6.371   5.125  18.285  0.00  0.00    +0.000 C 
BRANCH   2   5
ATOM      3  O   UNL     1       7.657   6.349  16.070  0.00  0.00    +0.000 OA
ATOM      4  C   UNL     1       6.946   5.365  15.882  0.00  0.00    +0.000 C 
ATOM      5  N   UNL     1       6.273   4.729  16.897  0.00  0.00    +0.000 N 
ATOM      6  H   UNL     1       5.759   3.885  16.658  0.00  0.00    +0.000 HD
BRANCH   4   7
ATOM      7  C   UNL     1       6.773   4.809  14.499  0.00  0.00    +0.000 A 
ATOM      8  C   UNL     1       5.685   3.945  14.289  0.00  0.00    +0.000 A 
ATOM      9  C   UNL     1       5.450   3.379  13.034  0.00  0.00    +0.000 A 
ATOM     10  C   UNL     1       6.301   3.666  11.971  0.00  0.00    +0.000 A 
ATOM     11  C   UNL     1       7.388   4.519  12.159  0.00  0.00    +0.000 A 
ATOM     12  C   UNL     1       7.623   5.089  13.416  0.00  0.00    +0.000 A 
BRANCH  12  13
ATOM     13  O   UNL     1       8.701   5.927  13.559  0.00  0.00    +0.000 OA
ATOM     14  H   UNL     1       8.551   6.726  13.024  0.00  0.00    +0.000 HD
ENDBRANCH  12  13
ENDBRANCH   4   7
ENDBRANCH   2   5
ENDBRANCH   1   2
BRANCH   1  15
ATOM     15  C   UNL     1       4.048   6.061  18.045  0.00  0.00    +0.000 C 
BRANCH  15  16
ATOM     16  N   UNL     1       3.217   6.897  18.915  0.00  0.00    +0.000 NA
ATOM     17  C   UNL     1       2.666   7.898  18.314  0.00  0.00    +0.000 C 
BRANCH  17  18
ATOM     18  C   UNL     1       1.789   8.835  19.046  0.00  0.00    +0.000 A 
ATOM     19  C   UNL     1       1.256   8.450  20.284  0.00  0.00    +0.000 A 
ATOM     20  C   UNL     1       0.407   9.314  20.970  0.00  0.00    +0.000 A 
ATOM     21 BR   UNL     1      -0.317   8.787  22.636  0.00  0.00    +0.000 Br
ATOM     22  C   UNL     1       0.080  10.560  20.439  0.00  0.00    +0.000 A 
ATOM     23  C   UNL     1       0.618  10.943  19.210  0.00  0.00    +0.000 A 
ATOM     24 BR   UNL     1       0.154  12.640  18.503  0.00  0.00    +0.000 Br
ATOM     25  C   UNL     1       1.476  10.087  18.509  0.00  0.00    +0.000 A 
BRANCH  25  26
ATOM     26  O   UNL     1       2.007  10.458  17.302  0.00  0.00    +0.000 OA
ATOM     27  H   UNL     1       2.651  11.172  17.465  0.00  0.00    +0.000 HD
ENDBRANCH  25  26
ENDBRANCH  17  18
ENDBRANCH  15  16
ENDBRANCH   1  15
TORSDOF 8
ENDMDL
MODEL 5
REMARK VINA RESULT:      -6.8      2.865      6.351
REMARK  Name = 
REMARK  8 active torsions:
REMARK  status: ('A' for Active; 'I' for Inactive)
REMARK    1  A    between atoms: C_2  and  C_18
REMARK    2  A    between atoms: N_3  and  C_4
REMARK    3  A    between atoms: C_4  and  C_5
REMARK    4  A    between atoms: C_5  and  C_6
REMARK    5  A    between atoms: C_6  and  N_7
REMARK    6  A    between atoms: C_8  and  C_9
REMARK    7  A    between atoms: C_16  and  O_17
REMARK    8  A    between atoms: C_23  and  O_24
REMARK                            x       y       z     vdW  Elec       q    Type
REMARK                         _______ _______ _______ _____ _____    ______ ____
ROOT
ATOM      1  C   UNL     1       2.620   2.591  19.358  0.00  0.00    +0.000 C 
ENDROOT
BRANCH   1   2
ATOM      2  C   UNL     1       4.091   2.210  19.460  0.00  0.00    +0.000 C 
BRANCH   2   5
ATOM      3  O   UNL     1       4.540   3.602  17.027  0.00  0.00    +0.000 OA
ATOM      4  C   UNL     1       5.104   3.984  18.049  0.00  0.00    +0.000 C 
ATOM      5  N   UNL     1       4.956   3.353  19.261  0.00  0.00    +0.000 N 
ATOM      6  H   UNL     1       5.410   3.776  20.066  0.00  0.00    +0.000 HD
BRANCH   4   7
ATOM      7  C   UNL     1       6.006   5.182  18.013  0.00  0.00    +0.000 A 
ATOM      8  C   UNL     1       7.107   5.180  18.887  0.00  0.00    +0.000 A 
ATOM      9  C   UNL     1       7.997   6.256  18.924  0.00  0.00    +0.000 A 
ATOM     10  C   UNL     1       7.799   7.351  18.088  0.00  0.00    +0.000 A 
ATOM     11  C   UNL     1       6.711   7.373  17.214  0.00  0.00    +0.000 A 
ATOM     12  C   UNL     1       5.821   6.295  17.176  0.00  0.00    +0.000 A 
BRANCH  12  13
ATOM     13  O   UNL     1       4.766   6.353  16.300  0.00  0.00    +0.000 OA
ATOM     14  H   UNL     1       3.987   6.704  16.768  0.00  0.00    +0.000 HD
ENDBRANCH  12  13
ENDBRANCH   4   7
ENDBRANCH   2   5
ENDBRANCH   1   2
BRANCH   1  15
ATOM     15  C   UNL     1       2.154   3.332  20.609  0.00  0.00    +0.000 C 
BRANCH  15  16
ATOM     16  N   UNL     1       1.691   4.661  20.201  0.00  0.00    +0.000 NA
ATOM     17  C   UNL     1       2.013   5.606  21.018  0.00  0.00    +0.000 C 
BRANCH  17  18
ATOM     18  C   UNL     1       1.629   7.007  20.747  0.00  0.00    +0.000 A 
ATOM     19  C   UNL     1       0.889   7.713  21.705  0.00  0.00    +0.000 A 
ATOM     20  C   UNL     1       0.499   9.025  21.450  0.00  0.00    +0.000 A 
ATOM     21 BR   UNL     1      -0.506   9.970  22.743  0.00  0.00    +0.000 Br
ATOM     22  C   UNL     1       0.836   9.645  20.249  0.00  0.00    +0.000 A 
ATOM     23  C   UNL     1       1.578   8.943  19.300  0.00  0.00    +0.000 A 
ATOM     24 BR   UNL     1       2.020   9.804  17.669  0.00  0.00    +0.000 Br
ATOM     25  C   UNL     1       1.981   7.624  19.543  0.00  0.00    +0.000 A 
BRANCH  25  26
ATOM     26  O   UNL     1       2.710   6.929  18.614  0.00  0.00    +0.000 OA
ATOM     27  H   UNL     1       3.623   7.272  18.632  0.00  0.00    +0.000 HD
ENDBRANCH  25  26
ENDBRANCH  17  18
ENDBRANCH  15  16
ENDBRANCH   1  15
TORSDOF 8
ENDMDL
MODEL 6
REMARK VINA RESULT:      -6.8      3.972      5.421
REMARK  Name = 
REMARK  8 active torsions:
REMARK  status: ('A' for Active; 'I' for Inactive)
REMARK    1  A    between atoms: C_2  and  C_18
REMARK    2  A    between atoms: N_3  and  C_4
REMARK    3  A    between atoms: C_4  and  C_5
REMARK    4  A    between atoms: C_5  and  C_6
REMARK    5  A    between atoms: C_6  and  N_7
REMARK    6  A    between atoms: C_8  and  C_9
REMARK    7  A    between atoms: C_16  and  O_17
REMARK    8  A    between atoms: C_23  and  O_24
REMARK                            x       y       z     vdW  Elec       q    Type
REMARK                         _______ _______ _______ _____ _____    ______ ____
ROOT
ATOM      1  C   UNL     1       1.676   9.818  19.731  0.00  0.00    +0.000 C 
ENDROOT
BRANCH   1   2
ATOM      2  C   UNL     1       0.236   9.937  20.214  0.00  0.00    +0.000 C 
BRANCH   2   5
ATOM      3  O   UNL     1      -1.803  11.856  19.747  0.00  0.00    +0.000 OA
ATOM      4  C   UNL     1      -1.649  10.938  18.945  0.00  0.00    +0.000 C 
ATOM      5  N   UNL     1      -0.699   9.958  19.111  0.00  0.00    +0.000 N 
ATOM      6  H   UNL     1      -0.601   9.274  18.364  0.00  0.00    +0.000 HD
BRANCH   4   7
ATOM      7  C   UNL     1      -2.518  10.843  17.727  0.00  0.00    +0.000 A 
ATOM      8  C   UNL     1      -2.074  10.008  16.687  0.00  0.00    +0.000 A 
ATOM      9  C   UNL     1      -2.818   9.862  15.514  0.00  0.00    +0.000 A 
ATOM     10  C   UNL     1      -4.018  10.552  15.363  0.00  0.00    +0.000 A 
ATOM     11  C   UNL     1      -4.475  11.387  16.382  0.00  0.00    +0.000 A 
ATOM     12  C   UNL     1      -3.731  11.531  17.558  0.00  0.00    +0.000 A 
BRANCH  12  13
ATOM     13  O   UNL     1      -4.218  12.360  18.538  0.00  0.00    +0.000 OA
ATOM     14  H   UNL     1      -3.644  13.144  18.600  0.00  0.00    +0.000 HD
ENDBRANCH  12  13
ENDBRANCH   4   7
ENDBRANCH   2   5
ENDBRANCH   1   2
BRANCH   1  15
ATOM     15  C   UNL     1       1.743   9.750  18.207  0.00  0.00    +0.000 C 
BRANCH  15  16
ATOM     16  N   UNL     1       1.815   8.338  17.822  0.00  0.00    +0.000 NA
ATOM     17  C   UNL     1       2.939   7.772  18.105  0.00  0.00    +0.000 C 
BRANCH  17  18
ATOM     18  C   UNL     1       3.172   6.346  17.791  0.00  0.00    +0.000 A 
ATOM     19  C   UNL     1       2.263   5.384  18.252  0.00  0.00    +0.000 A 
ATOM     20  C   UNL     1       2.487   4.036  17.984  0.00  0.00    +0.000 A 
ATOM     21 BR   UNL     1       1.261   2.742  18.616  0.00  0.00    +0.000 Br
ATOM     22  C   UNL     1       3.607   3.632  17.263  0.00  0.00    +0.000 A 
ATOM     23  C   UNL     1       4.507   4.592  16.799  0.00  0.00    +0.000 A 
ATOM     24 BR   UNL     1       6.030   4.018  15.825  0.00  0.00    +0.000 Br
ATOM     25  C   UNL     1       4.295   5.952  17.057  0.00  0.00    +0.000 A 
BRANCH  25  26
ATOM     26  O   UNL     1       5.175   6.899  16.604  0.00  0.00    +0.000 OA
ATOM     27  H   UNL     1       4.670   7.555  16.088  0.00  0.00    +0.000 HD
ENDBRANCH  25  26
ENDBRANCH  17  18
ENDBRANCH  15  16
ENDBRANCH   1  15
TORSDOF 8
ENDMDL
MODEL 7
REMARK VINA RESULT:      -6.8      3.517      4.876
REMARK  Name = 
REMARK  8 active torsions:
REMARK  status: ('A' for Active; 'I' for Inactive)
REMARK    1  A    between atoms: C_2  and  C_18
REMARK    2  A    between atoms: N_3  and  C_4
REMARK    3  A    between atoms: C_4  and  C_5
REMARK    4  A    between atoms: C_5  and  C_6
REMARK    5  A    between atoms: C_6  and  N_7
REMARK    6  A    between atoms: C_8  and  C_9
REMARK    7  A    between atoms: C_16  and  O_17
REMARK    8  A    between atoms: C_23  and  O_24
REMARK                            x       y       z     vdW  Elec       q    Type
REMARK                         _______ _______ _______ _____ _____    ______ ____
ROOT
ATOM      1  C   UNL     1       1.400   8.656  20.198  0.00  0.00    +0.000 C 
ENDROOT
BRANCH   1   2
ATOM      2  C   UNL     1       0.320   9.653  20.600  0.00  0.00    +0.000 C 
BRANCH   2   5
ATOM      3  O   UNL     1      -0.581  12.021  19.321  0.00  0.00    +0.000 OA
ATOM      4  C   UNL     1      -1.082  10.943  19.009  0.00  0.00    +0.000 C 
ATOM      5  N   UNL     1      -0.716   9.755  19.596  0.00  0.00    +0.000 N 
ATOM      6  H   UNL     1      -1.137   8.905  19.230  0.00  0.00    +0.000 HD
BRANCH   4   7
ATOM      7  C   UNL     1      -2.145  10.879  17.952  0.00  0.00    +0.000 A 
ATOM      8  C   UNL     1      -1.921  10.009  16.871  0.00  0.00    +0.000 A 
ATOM      9  C   UNL     1      -2.856   9.889  15.840  0.00  0.00    +0.000 A 
ATOM     10  C   UNL     1      -4.028  10.640  15.874  0.00  0.00    +0.000 A 
ATOM     11  C   UNL     1      -4.268  11.510  16.937  0.00  0.00    +0.000 A 
ATOM     12  C   UNL     1      -3.333  11.629  17.971  0.00  0.00    +0.000 A 
BRANCH  12  13
ATOM     13  O   UNL     1      -3.608  12.494  19.001  0.00  0.00    +0.000 OA
ATOM     14  H   UNL     1      -2.982  13.238  18.962  0.00  0.00    +0.000 HD
ENDBRANCH  12  13
ENDBRANCH   4   7
ENDBRANCH   2   5
ENDBRANCH   1   2
BRANCH   1  15
ATOM     15  C   UNL     1       1.776   8.815  18.727  0.00  0.00    +0.000 C 
BRANCH  15  16
ATOM     16  N   UNL     1       2.118   7.490  18.203  0.00  0.00    +0.000 NA
ATOM     17  C   UNL     1       3.382   7.307  18.019  0.00  0.00    +0.000 C 
BRANCH  17  18
ATOM     18  C   UNL     1       3.896   6.020  17.504  0.00  0.00    +0.000 A 
ATOM     19  C   UNL     1       4.870   6.024  16.496  0.00  0.00    +0.000 A 
ATOM     20  C   UNL     1       5.341   4.818  15.985  0.00  0.00    +0.000 A 
ATOM     21 BR   UNL     1       6.649   4.830  14.619  0.00  0.00    +0.000 Br
ATOM     22  C   UNL     1       4.854   3.604  16.464  0.00  0.00    +0.000 A 
ATOM     23  C   UNL     1       3.889   3.603  17.471  0.00  0.00    +0.000 A 
ATOM     24 BR   UNL     1       3.235   1.939  18.103  0.00  0.00    +0.000 Br
ATOM     25  C   UNL     1       3.407   4.807  17.999  0.00  0.00    +0.000 A 
BRANCH  25  26
ATOM     26  O   UNL     1       2.460   4.812  18.989  0.00  0.00    +0.000 OA
ATOM     27  H   UNL     1       2.871   5.176  19.795  0.00  0.00    +0.000 HD
ENDBRANCH  25  26
ENDBRANCH  17  18
ENDBRANCH  15  16
ENDBRANCH   1  15
TORSDOF 8
ENDMDL
MODEL 8
REMARK VINA RESULT:      -6.8      5.222      7.387
REMARK  Name = 
REMARK  8 active torsions:
REMARK  status: ('A' for Active; 'I' for Inactive)
REMARK    1  A    between atoms: C_2  and  C_18
REMARK    2  A    between atoms: N_3  and  C_4
REMARK    3  A    between atoms: C_4  and  C_5
REMARK    4  A    between atoms: C_5  and  C_6
REMARK    5  A    between atoms: C_6  and  N_7
REMARK    6  A    between atoms: C_8  and  C_9
REMARK    7  A    between atoms: C_16  and  O_17
REMARK    8  A    between atoms: C_23  and  O_24
REMARK                            x       y       z     vdW  Elec       q    Type
REMARK                         _______ _______ _______ _____ _____    ______ ____
ROOT
ATOM      1  C   UNL     1       7.332   7.274  17.014  0.00  0.00    +0.000 C 
ENDROOT
BRANCH   1   2
ATOM      2  C   UNL     1       7.086   5.771  16.970  0.00  0.00    +0.000 C 
BRANCH   2   5
ATOM      3  O   UNL     1       6.262   4.684  19.459  0.00  0.00    +0.000 OA
ATOM      4  C   UNL     1       5.416   4.930  18.603  0.00  0.00    +0.000 C 
ATOM      5  N   UNL     1       5.735   5.437  17.366  0.00  0.00    +0.000 N 
ATOM      6  H   UNL     1       4.965   5.669  16.744  0.00  0.00    +0.000 HD
BRANCH   4   7
ATOM      7  C   UNL     1       3.964   4.673  18.878  0.00  0.00    +0.000 A 
ATOM      8  C   UNL     1       3.378   5.385  19.938  0.00  0.00    +0.000 A 
ATOM      9  C   UNL     1       2.032   5.206  20.267  0.00  0.00    +0.000 A 
ATOM     10  C   UNL     1       1.253   4.309  19.541  0.00  0.00    +0.000 A 
ATOM     11  C   UNL     1       1.816   3.591  18.486  0.00  0.00    +0.000 A 
ATOM     12  C   UNL     1       3.163   3.773  18.155  0.00  0.00    +0.000 A 
BRANCH  12  13
ATOM     13  O   UNL     1       3.678   3.050  17.108  0.00  0.00    +0.000 OA
ATOM     14  H   UNL     1       3.218   3.310  16.290  0.00  0.00    +0.000 HD
ENDBRANCH  12  13
ENDBRANCH   4   7
ENDBRANCH   2   5
ENDBRANCH   1   2
BRANCH   1  15
ATOM     15  C   UNL     1       8.069   7.674  18.291  0.00  0.00    +0.000 C 
BRANCH  15  16
ATOM     16  N   UNL     1       8.377   9.104  18.204  0.00  0.00    +0.000 NA
ATOM     17  C   UNL     1       9.216   9.517  19.093  0.00  0.00    +0.000 C 
BRANCH  17  18
ATOM     18  C   UNL     1       9.640  10.932  19.137  0.00  0.00    +0.000 A 
ATOM     19  C   UNL     1      10.234  11.506  18.005  0.00  0.00    +0.000 A 
ATOM     20  C   UNL     1      10.662  12.831  18.045  0.00  0.00    +0.000 A 
ATOM     21 BR   UNL     1      11.470  13.598  16.517  0.00  0.00    +0.000 Br
ATOM     22  C   UNL     1      10.507  13.593  19.200  0.00  0.00    +0.000 A 
ATOM     23  C   UNL     1       9.909  13.021  20.324  0.00  0.00    +0.000 A 
ATOM     24 BR   UNL     1       9.714  14.075  21.888  0.00  0.00    +0.000 Br
ATOM     25  C   UNL     1       9.471  11.691  20.299  0.00  0.00    +0.000 A 
BRANCH  25  26
ATOM     26  O   UNL     1       8.883  11.124  21.399  0.00  0.00    +0.000 OA
ATOM     27  H   UNL     1       8.048  11.598  21.570  0.00  0.00    +0.000 HD
ENDBRANCH  25  26
ENDBRANCH  17  18
ENDBRANCH  15  16
ENDBRANCH   1  15
TORSDOF 8
ENDMDL
MODEL 9
REMARK VINA RESULT:      -6.7      3.573      7.892
REMARK  Name = 
REMARK  8 active torsions:
REMARK  status: ('A' for Active; 'I' for Inactive)
REMARK    1  A    between atoms: C_2  and  C_18
REMARK    2  A    between atoms: N_3  and  C_4
REMARK    3  A    between atoms: C_4  and  C_5
REMARK    4  A    between atoms: C_5  and  C_6
REMARK    5  A    between atoms: C_6  and  N_7
REMARK    6  A    between atoms: C_8  and  C_9
REMARK    7  A    between atoms: C_16  and  O_17
REMARK    8  A    between atoms: C_23  and  O_24
REMARK                            x       y       z     vdW  Elec       q    Type
REMARK                         _______ _______ _______ _____ _____    ______ ____
ROOT
ATOM      1  C   UNL     1       1.903   5.374  20.189  0.00  0.00    +0.000 C 
ENDROOT
BRANCH   1   2
ATOM      2  C   UNL     1       2.598   4.094  19.742  0.00  0.00    +0.000 C 
BRANCH   2   5
ATOM      3  O   UNL     1       5.381   3.580  19.533  0.00  0.00    +0.000 OA
ATOM      4  C   UNL     1       4.778   4.020  18.557  0.00  0.00    +0.000 C 
ATOM      5  N   UNL     1       3.435   4.314  18.584  0.00  0.00    +0.000 N 
ATOM      6  H   UNL     1       3.006   4.614  17.712  0.00  0.00    +0.000 HD
BRANCH   4   7
ATOM      7  C   UNL     1       5.502   4.266  17.267  0.00  0.00    +0.000 A 
ATOM      8  C   UNL     1       4.722   4.343  16.100  0.00  0.00    +0.000 A 
ATOM      9  C   UNL     1       5.313   4.567  14.854  0.00  0.00    +0.000 A 
ATOM     10  C   UNL     1       6.693   4.715  14.757  0.00  0.00    +0.000 A 
ATOM     11  C   UNL     1       7.485   4.640  15.902  0.00  0.00    +0.000 A 
ATOM     12  C   UNL     1       6.894   4.419  17.151  0.00  0.00    +0.000 A 
BRANCH  12  13
ATOM     13  O   UNL     1       7.707   4.356  18.254  0.00  0.00    +0.000 OA
ATOM     14  H   UNL     1       7.980   5.259  18.495  0.00  0.00    +0.000 HD
ENDBRANCH  12  13
ENDBRANCH   4   7
ENDBRANCH   2   5
ENDBRANCH   1   2
BRANCH   1  15
ATOM     15  C   UNL     1       2.444   6.587  19.434  0.00  0.00    +0.000 C 
BRANCH  15  16
ATOM     16  N   UNL     1       1.959   7.792  20.111  0.00  0.00    +0.000 NA
ATOM     17  C   UNL     1       1.450   8.673  19.317  0.00  0.00    +0.000 C 
BRANCH  17  18
ATOM     18  C   UNL     1       0.906   9.943  19.842  0.00  0.00    +0.000 A 
ATOM     19  C   UNL     1       1.210  11.143  19.185  0.00  0.00    +0.000 A 
ATOM     20  C   UNL     1       0.725  12.349  19.685  0.00  0.00    +0.000 A 
ATOM     21 BR   UNL     1       1.145  13.965  18.799  0.00  0.00    +0.000 Br
ATOM     22  C   UNL     1      -0.060  12.376  20.835  0.00  0.00    +0.000 A 
ATOM     23  C   UNL     1      -0.366  11.179  21.484  0.00  0.00    +0.000 A 
ATOM     24 BR   UNL     1      -1.431  11.241  23.053  0.00  0.00    +0.000 Br
ATOM     25  C   UNL     1       0.111   9.959  20.992  0.00  0.00    +0.000 A 
BRANCH  25  26
ATOM     26  O   UNL     1      -0.188   8.780  21.624  0.00  0.00    +0.000 OA
ATOM     27  H   UNL     1       0.653   8.357  21.881  0.00  0.00    +0.000 HD
ENDBRANCH  25  26
ENDBRANCH  17  18
ENDBRANCH  15  16
ENDBRANCH   1  15
TORSDOF 8
ENDMDL
