MODEL 1
REMARK VINA RESULT:      -7.8      0.000      0.000
REMARK  Name = 
REMARK  11 active torsions:
REMARK  status: ('A' for Active; 'I' for Inactive)
REMARK    1  A    between atoms: C_1  and  O_2
REMARK    2  A    between atoms: O_2  and  C_3
REMARK    3  A    between atoms: C_8  and  N_9
REMARK    4  A    between atoms: N_12  and  C_13
REMARK    5  A    between atoms: C_13  and  C_14
REMARK    6  A    between atoms: C_14  and  C_15
REMARK    7  A    between atoms: C_15  and  C_16
REMARK    8  A    between atoms: C_16  and  N_17
REMARK    9  A    between atoms: C_18  and  C_20
REMARK   10  A    between atoms: C_21  and  C_22
REMARK   11  A    between atoms: C_25  and  C_26
REMARK                            x       y       z     vdW  Elec       q    Type
REMARK                         _______ _______ _______ _____ _____    ______ ____
ROOT
ATOM      1  C   UNL     1       2.397   2.650  21.330  0.00  0.00    +0.000 C 
ENDROOT
BRANCH   1   2
ATOM      2  C   UNL     1       1.796   2.284  19.972  0.00  0.00    +0.000 C 
BRANCH   2   6
ATOM      3  N   UNL     1       4.268   3.776  17.743  0.00  0.00    +0.000 N 
ATOM      4  C   UNL     1       2.896   3.470  17.320  0.00  0.00    +0.000 C 
ATOM      5  C   UNL     1       2.520   2.007  17.666  0.00  0.00    +0.000 C 
ATOM      6  N   UNL     1       2.759   1.616  19.082  0.00  0.00    +0.000 NA
ATOM      7  C   UNL     1       4.175   1.930  19.392  0.00  0.00    +0.000 C 
ATOM      8  C   UNL     1       4.599   3.391  19.124  0.00  0.00    +0.000 C 
BRANCH   3  14
ATOM      9  C   UNL     1       6.251   5.211  17.275  0.00  0.00    +0.000 A 
ATOM     10  C   UNL     1       7.172   5.698  16.326  0.00  0.00    +0.000 A 
ATOM     11  C   UNL     1       7.141   5.262  15.005  0.00  0.00    +0.000 A 
ATOM     12  C   UNL     1       6.185   4.340  14.615  0.00  0.00    +0.000 A 
ATOM     13  C   UNL     1       5.259   3.866  15.548  0.00  0.00    +0.000 A 
ATOM     14  C   UNL     1       5.244   4.287  16.896  0.00  0.00    +0.000 A 
BRANCH   9  16
ATOM     15  C   UNL     1       7.515   5.751  19.206  0.00  0.00    +0.000 C 
ATOM     16  O   UNL     1       6.243   5.709  18.561  0.00  0.00    +0.000 OA
ENDBRANCH   9  16
ENDBRANCH   3  14
ENDBRANCH   2   6
ENDBRANCH   1   2
BRANCH   1  17
ATOM     17  C   UNL     1       2.259   4.142  21.620  0.00  0.00    +0.000 C 
BRANCH  17  18
ATOM     18  C   UNL     1       1.665   4.845  20.405  0.00  0.00    +0.000 C 
BRANCH  18  19
ATOM     19  N   UNL     1       1.359   6.220  20.699  0.00  0.00    +0.000 N 
ATOM     20  C   UNL     1       1.976   7.240  20.013  0.00  0.00    +0.000 C 
ATOM     21  O   UNL     1       2.789   7.073  19.114  0.00  0.00    +0.000 OA
ATOM     22  H   UNL     1       0.735   6.425  21.466  0.00  0.00    +0.000 HD
BRANCH  20  23
ATOM     23  C   UNL     1       1.567   8.582  20.486  0.00  0.00    +0.000 C 
ATOM     24  C   UNL     1       0.517   8.686  21.313  0.00  0.00    +0.000 C 
BRANCH  24  25
ATOM     25  C   UNL     1       0.036   9.991  21.754  0.00  0.00    +0.000 A 
ATOM     26  C   UNL     1       0.502  11.145  21.115  0.00  0.00    +0.000 A 
ATOM     27  C   UNL     1       0.070  12.403  21.536  0.00  0.00    +0.000 A 
ATOM     28  C   UNL     1      -0.831  12.505  22.598  0.00  0.00    +0.000 A 
ATOM     29  C   UNL     1      -1.306  11.357  23.241  0.00  0.00    +0.000 A 
ATOM     30  C   UNL     1      -0.869  10.099  22.816  0.00  0.00    +0.000 A 
BRANCH  28  31
ATOM     31  C   UNL     1      -1.289  13.833  23.051  0.00  0.00    +0.000 C 
ATOM     32  O   UNL     1      -0.555  14.604  23.656  0.00  0.00    +0.000 OA
ENDBRANCH  28  31
ENDBRANCH  24  25
ENDBRANCH  20  23
ENDBRANCH  18  19
ENDBRANCH  17  18
ENDBRANCH   1  17
TORSDOF 10
ENDMDL
MODEL 2
REMARK VINA RESULT:      -7.6      5.673      7.476
REMARK  Name = 
REMARK  11 active torsions:
REMARK  status: ('A' for Active; 'I' for Inactive)
REMARK    1  A    between atoms: C_1  and  O_2
REMARK    2  A    between atoms: O_2  and  C_3
REMARK    3  A    between atoms: C_8  and  N_9
REMARK    4  A    between atoms: N_12  and  C_13
REMARK    5  A    between atoms: C_13  and  C_14
REMARK    6  A    between atoms: C_14  and  C_15
REMARK    7  A    between atoms: C_15  and  C_16
REMARK    8  A    between atoms: C_16  and  N_17
REMARK    9  A    between atoms: C_18  and  C_20
REMARK   10  A    between atoms: C_21  and  C_22
REMARK   11  A    between atoms: C_25  and  C_26
REMARK                            x       y       z     vdW  Elec       q    Type
REMARK                         _______ _______ _______ _____ _____    ______ ____
ROOT
ATOM      1  C   UNL     1       8.308   7.968  18.278  0.00  0.00    +0.000 C 
ENDROOT
BRANCH   1   2
ATOM      2  C   UNL     1       7.508   7.082  17.322  0.00  0.00    +0.000 C 
BRANCH   2   6
ATOM      3  N   UNL     1       4.626   4.987  18.108  0.00  0.00    +0.000 N 
ATOM      4  C   UNL     1       5.321   5.797  19.117  0.00  0.00    +0.000 C 
ATOM      5  C   UNL     1       6.848   5.537  19.084  0.00  0.00    +0.000 C 
ATOM      6  N   UNL     1       7.478   5.671  17.741  0.00  0.00    +0.000 NA
ATOM      7  C   UNL     1       6.729   4.789  16.815  0.00  0.00    +0.000 C 
ATOM      8  C   UNL     1       5.205   5.036  16.757  0.00  0.00    +0.000 C 
BRANCH   3  14
ATOM      9  C   UNL     1       3.637   3.006  19.251  0.00  0.00    +0.000 A 
ATOM     10  C   UNL     1       2.510   2.183  19.445  0.00  0.00    +0.000 A 
ATOM     11  C   UNL     1       1.294   2.472  18.834  0.00  0.00    +0.000 A 
ATOM     12  C   UNL     1       1.191   3.583  18.015  0.00  0.00    +0.000 A 
ATOM     13  C   UNL     1       2.310   4.395  17.805  0.00  0.00    +0.000 A 
ATOM     14  C   UNL     1       3.566   4.135  18.395  0.00  0.00    +0.000 A 
BRANCH   9  16
ATOM     15  C   UNL     1       4.831   1.547  20.685  0.00  0.00    +0.000 C 
ATOM     16  O   UNL     1       4.855   2.665  19.799  0.00  0.00    +0.000 OA
ENDBRANCH   9  16
ENDBRANCH   3  14
ENDBRANCH   2   6
ENDBRANCH   1   2
BRANCH   1  17
ATOM     17  C   UNL     1       8.104   9.449  17.973  0.00  0.00    +0.000 C 
BRANCH  17  18
ATOM     18  C   UNL     1       9.373  10.220  18.317  0.00  0.00    +0.000 C 
BRANCH  18  19
ATOM     19  N   UNL     1       9.280  10.816  19.625  0.00  0.00    +0.000 N 
ATOM     20  C   UNL     1      10.010  11.937  19.940  0.00  0.00    +0.000 C 
ATOM     21  O   UNL     1      10.754  12.517  19.161  0.00  0.00    +0.000 OA
ATOM     22  H   UNL     1       8.723  10.354  20.330  0.00  0.00    +0.000 HD
BRANCH  20  23
ATOM     23  C   UNL     1       9.817  12.374  21.341  0.00  0.00    +0.000 C 
ATOM     24  C   UNL     1       8.673  12.064  21.966  0.00  0.00    +0.000 C 
BRANCH  24  25
ATOM     25  C   UNL     1       8.409  12.528  23.324  0.00  0.00    +0.000 A 
ATOM     26  C   UNL     1       8.655  13.866  23.650  0.00  0.00    +0.000 A 
ATOM     27  C   UNL     1       8.429  14.324  24.949  0.00  0.00    +0.000 A 
ATOM     28  C   UNL     1       7.956  13.440  25.921  0.00  0.00    +0.000 A 
ATOM     29  C   UNL     1       7.705  12.102  25.604  0.00  0.00    +0.000 A 
ATOM     30  C   UNL     1       7.933  11.647  24.302  0.00  0.00    +0.000 A 
BRANCH  28  31
ATOM     31  C   UNL     1       7.720  13.918  27.298  0.00  0.00    +0.000 C 
ATOM     32  O   UNL     1       6.733  14.577  27.599  0.00  0.00    +0.000 OA
ENDBRANCH  28  31
ENDBRANCH  24  25
ENDBRANCH  20  23
ENDBRANCH  18  19
ENDBRANCH  17  18
ENDBRANCH   1  17
TORSDOF 10
ENDMDL
MODEL 3
REMARK VINA RESULT:      -7.2      4.089      8.132
REMARK  Name = 
REMARK  11 active torsions:
REMARK  status: ('A' for Active; 'I' for Inactive)
REMARK    1  A    between atoms: C_1  and  O_2
REMARK    2  A    between atoms: O_2  and  C_3
REMARK    3  A    between atoms: C_8  and  N_9
REMARK    4  A    between atoms: N_12  and  C_13
REMARK    5  A    between atoms: C_13  and  C_14
REMARK    6  A    between atoms: C_14  and  C_15
REMARK    7  A    between atoms: C_15  and  C_16
REMARK    8  A    between atoms: C_16  and  N_17
REMARK    9  A    between atoms: C_18  and  C_20
REMARK   10  A    between atoms: C_21  and  C_22
REMARK   11  A    between atoms: C_25  and  C_26
REMARK                            x       y       z     vdW  Elec       q    Type
REMARK                         _______ _______ _______ _____ _____    ______ ____
ROOT
ATOM      1  C   UNL     1       4.604   4.271  17.326  0.00  0.00    +0.000 C 
ENDROOT
BRANCH   1   2
ATOM      2  C   UNL     1       4.056   5.241  18.374  0.00  0.00    +0.000 C 
BRANCH   2   6
ATOM      3  N   UNL     1       1.955   7.703  20.057  0.00  0.00    +0.000 N 
ATOM      4  C   UNL     1       2.215   6.367  20.608  0.00  0.00    +0.000 C 
ATOM      5  C   UNL     1       1.929   5.266  19.556  0.00  0.00    +0.000 C 
ATOM      6  N   UNL     1       2.606   5.461  18.245  0.00  0.00    +0.000 NA
ATOM      7  C   UNL     1       2.249   6.817  17.763  0.00  0.00    +0.000 C 
ATOM      8  C   UNL     1       2.562   7.969  18.744  0.00  0.00    +0.000 C 
BRANCH   3  14
ATOM      9  C   UNL     1       0.639   9.819  20.027  0.00  0.00    +0.000 A 
ATOM     10  C   UNL     1      -0.185  10.719  20.731  0.00  0.00    +0.000 A 
ATOM     11  C   UNL     1      -0.588  10.456  22.037  0.00  0.00    +0.000 A 
ATOM     12  C   UNL     1      -0.165   9.293  22.657  0.00  0.00    +0.000 A 
ATOM     13  C   UNL     1       0.667   8.404  21.970  0.00  0.00    +0.000 A 
ATOM     14  C   UNL     1       1.110   8.634  20.649  0.00  0.00    +0.000 A 
BRANCH   9  16
ATOM     15  C   UNL     1       1.519  11.480  18.584  0.00  0.00    +0.000 C 
ATOM     16  O   UNL     1       1.094  10.130  18.763  0.00  0.00    +0.000 OA
ENDBRANCH   9  16
ENDBRANCH   3  14
ENDBRANCH   2   6
ENDBRANCH   1   2
BRANCH   1  17
ATOM     17  C   UNL     1       5.246   5.013  16.157  0.00  0.00    +0.000 C 
BRANCH  17  18
ATOM     18  C   UNL     1       6.744   5.153  16.402  0.00  0.00    +0.000 C 
BRANCH  18  19
ATOM     19  N   UNL     1       7.111   6.530  16.603  0.00  0.00    +0.000 N 
ATOM     20  C   UNL     1       7.656   6.946  17.795  0.00  0.00    +0.000 C 
ATOM     21  O   UNL     1       7.888   6.207  18.742  0.00  0.00    +0.000 OA
ATOM     22  H   UNL     1       6.897   7.200  15.878  0.00  0.00    +0.000 HD
BRANCH  20  23
ATOM     23  C   UNL     1       7.925   8.401  17.828  0.00  0.00    +0.000 C 
ATOM     24  C   UNL     1       8.807   8.878  18.718  0.00  0.00    +0.000 C 
BRANCH  24  25
ATOM     25  C   UNL     1       9.057  10.311  18.833  0.00  0.00    +0.000 A 
ATOM     26  C   UNL     1       9.550  10.825  20.036  0.00  0.00    +0.000 A 
ATOM     27  C   UNL     1       9.775  12.196  20.173  0.00  0.00    +0.000 A 
ATOM     28  C   UNL     1       9.506  13.051  19.102  0.00  0.00    +0.000 A 
ATOM     29  C   UNL     1       9.016  12.546  17.894  0.00  0.00    +0.000 A 
ATOM     30  C   UNL     1       8.791  11.172  17.762  0.00  0.00    +0.000 A 
BRANCH  28  31
ATOM     31  C   UNL     1       9.738  14.502  19.242  0.00  0.00    +0.000 C 
ATOM     32  O   UNL     1       8.910  15.249  19.747  0.00  0.00    +0.000 OA
ENDBRANCH  28  31
ENDBRANCH  24  25
ENDBRANCH  20  23
ENDBRANCH  18  19
ENDBRANCH  17  18
ENDBRANCH   1  17
TORSDOF 10
ENDMDL
MODEL 4
REMARK VINA RESULT:      -7.2      4.659      8.190
REMARK  Name = 
REMARK  11 active torsions:
REMARK  status: ('A' for Active; 'I' for Inactive)
REMARK    1  A    between atoms: C_1  and  O_2
REMARK    2  A    between atoms: O_2  and  C_3
REMARK    3  A    between atoms: C_8  and  N_9
REMARK    4  A    between atoms: N_12  and  C_13
REMARK    5  A    between atoms: C_13  and  C_14
REMARK    6  A    between atoms: C_14  and  C_15
REMARK    7  A    between atoms: C_15  and  C_16
REMARK    8  A    between atoms: C_16  and  N_17
REMARK    9  A    between atoms: C_18  and  C_20
REMARK   10  A    between atoms: C_21  and  C_22
REMARK   11  A    between atoms: C_25  and  C_26
REMARK                            x       y       z     vdW  Elec       q    Type
REMARK                         _______ _______ _______ _____ _____    ______ ____
ROOT
ATOM      1  C   UNL     1       5.424   5.428  18.733  0.00  0.00    +0.000 C 
ENDROOT
BRANCH   1   2
ATOM      2  C   UNL     1       4.271   4.786  19.506  0.00  0.00    +0.000 C 
BRANCH   2   6
ATOM      3  N   UNL     1       2.050   7.675  19.677  0.00  0.00    +0.000 N 
ATOM      4  C   UNL     1       1.975   6.555  20.623  0.00  0.00    +0.000 C 
ATOM      5  C   UNL     1       1.901   5.199  19.877  0.00  0.00    +0.000 C 
ATOM      6  N   UNL     1       2.965   4.987  18.857  0.00  0.00    +0.000 NA
ATOM      7  C   UNL     1       2.929   6.148  17.936  0.00  0.00    +0.000 C 
ATOM      8  C   UNL     1       3.056   7.531  18.613  0.00  0.00    +0.000 C 
BRANCH   3  14
ATOM      9  C   UNL     1       0.650   9.371  20.849  0.00  0.00    +0.000 A 
ATOM     10  C   UNL     1      -0.262  10.440  20.746  0.00  0.00    +0.000 A 
ATOM     11  C   UNL     1      -0.645  10.942  19.506  0.00  0.00    +0.000 A 
ATOM     12  C   UNL     1      -0.125  10.377  18.354  0.00  0.00    +0.000 A 
ATOM     13  C   UNL     1       0.768   9.306  18.449  0.00  0.00    +0.000 A 
ATOM     14  C   UNL     1       1.176   8.756  19.684  0.00  0.00    +0.000 A 
BRANCH   9  16
ATOM     15  C   UNL     1       0.339   9.468  23.196  0.00  0.00    +0.000 C 
ATOM     16  O   UNL     1       0.961   8.833  22.080  0.00  0.00    +0.000 OA
ENDBRANCH   9  16
ENDBRANCH   3  14
ENDBRANCH   2   6
ENDBRANCH   1   2
BRANCH   1  17
ATOM     17  C   UNL     1       6.733   5.348  19.511  0.00  0.00    +0.000 C 
BRANCH  17  18
ATOM     18  C   UNL     1       7.887   5.778  18.612  0.00  0.00    +0.000 C 
BRANCH  18  19
ATOM     19  N   UNL     1       8.182   7.177  18.779  0.00  0.00    +0.000 N 
ATOM     20  C   UNL     1       7.861   8.086  17.799  0.00  0.00    +0.000 C 
ATOM     21  O   UNL     1       7.297   7.799  16.752  0.00  0.00    +0.000 OA
ATOM     22  H   UNL     1       8.694   7.470  19.600  0.00  0.00    +0.000 HD
BRANCH  20  23
ATOM     23  C   UNL     1       8.282   9.465  18.133  0.00  0.00    +0.000 C 
ATOM     24  C   UNL     1       9.360   9.645  18.909  0.00  0.00    +0.000 C 
BRANCH  24  25
ATOM     25  C   UNL     1       9.776  10.982  19.318  0.00  0.00    +0.000 A 
ATOM     26  C   UNL     1      10.357  11.837  18.376  0.00  0.00    +0.000 A 
ATOM     27  C   UNL     1      10.780  13.112  18.753  0.00  0.00    +0.000 A 
ATOM     28  C   UNL     1      10.621  13.530  20.076  0.00  0.00    +0.000 A 
ATOM     29  C   UNL     1      10.040  12.684  21.025  0.00  0.00    +0.000 A 
ATOM     30  C   UNL     1       9.617  11.407  20.642  0.00  0.00    +0.000 A 
BRANCH  28  31
ATOM     31  C   UNL     1      11.072  14.876  20.482  0.00  0.00    +0.000 C 
ATOM     32  O   UNL     1      10.331  15.850  20.447  0.00  0.00    +0.000 OA
ENDBRANCH  28  31
ENDBRANCH  24  25
ENDBRANCH  20  23
ENDBRANCH  18  19
ENDBRANCH  17  18
ENDBRANCH   1  17
TORSDOF 10
ENDMDL
MODEL 5
REMARK VINA RESULT:      -7.2      3.924      7.839
REMARK  Name = 
REMARK  11 active torsions:
REMARK  status: ('A' for Active; 'I' for Inactive)
REMARK    1  A    between atoms: C_1  and  O_2
REMARK    2  A    between atoms: O_2  and  C_3
REMARK    3  A    between atoms: C_8  and  N_9
REMARK    4  A    between atoms: N_12  and  C_13
REMARK    5  A    between atoms: C_13  and  C_14
REMARK    6  A    between atoms: C_14  and  C_15
REMARK    7  A    between atoms: C_15  and  C_16
REMARK    8  A    between atoms: C_16  and  N_17
REMARK    9  A    between atoms: C_18  and  C_20
REMARK   10  A    between atoms: C_21  and  C_22
REMARK   11  A    between atoms: C_25  and  C_26
REMARK                            x       y       z     vdW  Elec       q    Type
REMARK                         _______ _______ _______ _____ _____    ______ ____
ROOT
ATOM      1  C   UNL     1       4.388   3.597  17.551  0.00  0.00    +0.000 C 
ENDROOT
BRANCH   1   2
ATOM      2  C   UNL     1       3.679   4.107  18.806  0.00  0.00    +0.000 C 
BRANCH   2   6
ATOM      3  N   UNL     1       2.056   7.087  20.145  0.00  0.00    +0.000 N 
ATOM      4  C   UNL     1       1.964   5.772  20.791  0.00  0.00    +0.000 C 
ATOM      5  C   UNL     1       1.524   4.684  19.778  0.00  0.00    +0.000 C 
ATOM      6  N   UNL     1       2.331   4.629  18.528  0.00  0.00    +0.000 NA
ATOM      7  C   UNL     1       2.326   5.990  17.941  0.00  0.00    +0.000 C 
ATOM      8  C   UNL     1       2.810   7.115  18.883  0.00  0.00    +0.000 C 
BRANCH   3  14
ATOM      9  C   UNL     1       0.922   9.276  19.780  0.00  0.00    +0.000 A 
ATOM     10  C   UNL     1       0.299  10.404  20.350  0.00  0.00    +0.000 A 
ATOM     11  C   UNL     1       0.101  10.500  21.723  0.00  0.00    +0.000 A 
ATOM     12  C   UNL     1       0.530   9.473  22.546  0.00  0.00    +0.000 A 
ATOM     13  C   UNL     1       1.164   8.359  21.988  0.00  0.00    +0.000 A 
ATOM     14  C   UNL     1       1.396   8.222  20.602  0.00  0.00    +0.000 A 
BRANCH   9  16
ATOM     15  C   UNL     1       1.934  10.328  17.913  0.00  0.00    +0.000 C 
ATOM     16  O   UNL     1       1.182   9.230  18.426  0.00  0.00    +0.000 OA
ENDBRANCH   9  16
ENDBRANCH   3  14
ENDBRANCH   2   6
ENDBRANCH   1   2
BRANCH   1  17
ATOM     17  C   UNL     1       5.621   4.434  17.224  0.00  0.00    +0.000 C 
BRANCH  17  18
ATOM     18  C   UNL     1       6.281   4.896  18.518  0.00  0.00    +0.000 C 
BRANCH  18  19
ATOM     19  N   UNL     1       6.637   6.289  18.451  0.00  0.00    +0.000 N 
ATOM     20  C   UNL     1       7.383   6.775  17.403  0.00  0.00    +0.000 C 
ATOM     21  O   UNL     1       7.774   6.097  16.463  0.00  0.00    +0.000 OA
ATOM     22  H   UNL     1       6.389   6.891  19.223  0.00  0.00    +0.000 HD
BRANCH  20  23
ATOM     23  C   UNL     1       7.686   8.218  17.533  0.00  0.00    +0.000 C 
ATOM     24  C   UNL     1       8.561   8.617  18.467  0.00  0.00    +0.000 C 
BRANCH  24  25
ATOM     25  C   UNL     1       8.843  10.033  18.676  0.00  0.00    +0.000 A 
ATOM     26  C   UNL     1       9.406  10.447  19.887  0.00  0.00    +0.000 A 
ATOM     27  C   UNL     1       9.664  11.799  20.115  0.00  0.00    +0.000 A 
ATOM     28  C   UNL     1       9.356  12.737  19.127  0.00  0.00    +0.000 A 
ATOM     29  C   UNL     1       8.794  12.333  17.912  0.00  0.00    +0.000 A 
ATOM     30  C   UNL     1       8.538  10.977  17.689  0.00  0.00    +0.000 A 
BRANCH  28  31
ATOM     31  C   UNL     1       9.621  14.170  19.363  0.00  0.00    +0.000 C 
ATOM     32  O   UNL     1      10.602  14.737  18.899  0.00  0.00    +0.000 OA
ENDBRANCH  28  31
ENDBRANCH  24  25
ENDBRANCH  20  23
ENDBRANCH  18  19
ENDBRANCH  17  18
ENDBRANCH   1  17
TORSDOF 10
ENDMDL
MODEL 6
REMARK VINA RESULT:      -7.1      3.726     12.113
REMARK  Name = 
REMARK  11 active torsions:
REMARK  status: ('A' for Active; 'I' for Inactive)
REMARK    1  A    between atoms: C_1  and  O_2
REMARK    2  A    between atoms: O_2  and  C_3
REMARK    3  A    between atoms: C_8  and  N_9
REMARK    4  A    between atoms: N_12  and  C_13
REMARK    5  A    between atoms: C_13  and  C_14
REMARK    6  A    between atoms: C_14  and  C_15
REMARK    7  A    between atoms: C_15  and  C_16
REMARK    8  A    between atoms: C_16  and  N_17
REMARK    9  A    between atoms: C_18  and  C_20
REMARK   10  A    between atoms: C_21  and  C_22
REMARK   11  A    between atoms: C_25  and  C_26
REMARK                            x       y       z     vdW  Elec       q    Type
REMARK                         _______ _______ _______ _____ _____    ______ ____
ROOT
ATOM      1  C   UNL     1      -0.076  10.414  21.724  0.00  0.00    +0.000 C 
ENDROOT
BRANCH   1   2
ATOM      2  C   UNL     1      -0.664  11.555  20.893  0.00  0.00    +0.000 C 
BRANCH   2   6
ATOM      3  N   UNL     1      -3.704  13.085  22.205  0.00  0.00    +0.000 N 
ATOM      4  C   UNL     1      -3.179  13.379  20.866  0.00  0.00    +0.000 C 
ATOM      5  C   UNL     1      -1.680  13.766  20.928  0.00  0.00    +0.000 C 
ATOM      6  N   UNL     1      -0.813  12.802  21.661  0.00  0.00    +0.000 NA
ATOM      7  C   UNL     1      -1.409  12.609  23.004  0.00  0.00    +0.000 C 
ATOM      8  C   UNL     1      -2.889  12.164  23.011  0.00  0.00    +0.000 C 
BRANCH   3  14
ATOM      9  C   UNL     1      -6.135  13.159  22.748  0.00  0.00    +0.000 A 
ATOM     10  C   UNL     1      -7.213  13.885  23.293  0.00  0.00    +0.000 A 
ATOM     11  C   UNL     1      -7.017  15.133  23.877  0.00  0.00    +0.000 A 
ATOM     12  C   UNL     1      -5.744  15.674  23.916  0.00  0.00    +0.000 A 
ATOM     13  C   UNL     1      -4.673  14.965  23.361  0.00  0.00    +0.000 A 
ATOM     14  C   UNL     1      -4.825  13.702  22.749  0.00  0.00    +0.000 A 
BRANCH   9  16
ATOM     15  C   UNL     1      -7.091  12.050  20.884  0.00  0.00    +0.000 C 
ATOM     16  O   UNL     1      -6.355  11.959  22.103  0.00  0.00    +0.000 OA
ENDBRANCH   9  16
ENDBRANCH   3  14
ENDBRANCH   2   6
ENDBRANCH   1   2
BRANCH   1  17
ATOM     17  C   UNL     1       0.021   9.124  20.915  0.00  0.00    +0.000 C 
BRANCH  17  18
ATOM     18  C   UNL     1       0.993   8.167  21.596  0.00  0.00    +0.000 C 
BRANCH  18  19
ATOM     19  N   UNL     1       1.945   7.638  20.655  0.00  0.00    +0.000 N 
ATOM     20  C   UNL     1       2.039   6.284  20.435  0.00  0.00    +0.000 C 
ATOM     21  O   UNL     1       1.333   5.446  20.981  0.00  0.00    +0.000 OA
ATOM     22  H   UNL     1       2.593   8.273  20.211  0.00  0.00    +0.000 HD
BRANCH  20  23
ATOM     23  C   UNL     1       3.104   5.930  19.470  0.00  0.00    +0.000 C 
ATOM     24  C   UNL     1       2.957   6.279  18.184  0.00  0.00    +0.000 C 
BRANCH  24  25
ATOM     25  C   UNL     1       3.947   5.895  17.184  0.00  0.00    +0.000 A 
ATOM     26  C   UNL     1       4.295   4.547  17.047  0.00  0.00    +0.000 A 
ATOM     27  C   UNL     1       5.256   4.162  16.111  0.00  0.00    +0.000 A 
ATOM     28  C   UNL     1       5.868   5.130  15.311  0.00  0.00    +0.000 A 
ATOM     29  C   UNL     1       5.525   6.480  15.439  0.00  0.00    +0.000 A 
ATOM     30  C   UNL     1       4.563   6.860  16.379  0.00  0.00    +0.000 A 
BRANCH  28  31
ATOM     31  C   UNL     1       6.889   4.731  14.322  0.00  0.00    +0.000 C 
ATOM     32  O   UNL     1       7.980   5.280  14.253  0.00  0.00    +0.000 OA
ENDBRANCH  28  31
ENDBRANCH  24  25
ENDBRANCH  20  23
ENDBRANCH  18  19
ENDBRANCH  17  18
ENDBRANCH   1  17
TORSDOF 10
ENDMDL
MODEL 7
REMARK VINA RESULT:      -7.1      3.755      4.146
REMARK  Name = 
REMARK  11 active torsions:
REMARK  status: ('A' for Active; 'I' for Inactive)
REMARK    1  A    between atoms: C_1  and  O_2
REMARK    2  A    between atoms: O_2  and  C_3
REMARK    3  A    between atoms: C_8  and  N_9
REMARK    4  A    between atoms: N_12  and  C_13
REMARK    5  A    between atoms: C_13  and  C_14
REMARK    6  A    between atoms: C_14  and  C_15
REMARK    7  A    between atoms: C_15  and  C_16
REMARK    8  A    between atoms: C_16  and  N_17
REMARK    9  A    between atoms: C_18  and  C_20
REMARK   10  A    between atoms: C_21  and  C_22
REMARK   11  A    between atoms: C_25  and  C_26
REMARK                            x       y       z     vdW  Elec       q    Type
REMARK                         _______ _______ _______ _____ _____    ______ ____
ROOT
ATOM      1  C   UNL     1       1.231   6.219  20.716  0.00  0.00    +0.000 C 
ENDROOT
BRANCH   1   2
ATOM      2  C   UNL     1       2.371   5.200  20.669  0.00  0.00    +0.000 C 
BRANCH   2   6
ATOM      3  N   UNL     1       4.654   5.052  17.828  0.00  0.00    +0.000 N 
ATOM      4  C   UNL     1       3.482   5.937  17.863  0.00  0.00    +0.000 C 
ATOM      5  C   UNL     1       2.202   5.149  18.242  0.00  0.00    +0.000 C 
ATOM      6  N   UNL     1       2.313   4.332  19.482  0.00  0.00    +0.000 NA
ATOM      7  C   UNL     1       3.497   3.455  19.326  0.00  0.00    +0.000 C 
ATOM      8  C   UNL     1       4.820   4.184  19.004  0.00  0.00    +0.000 C 
BRANCH   3  14
ATOM      9  C   UNL     1       6.819   5.455  16.662  0.00  0.00    +0.000 A 
ATOM     10  C   UNL     1       7.584   5.313  15.487  0.00  0.00    +0.000 A 
ATOM     11  C   UNL     1       7.085   4.632  14.382  0.00  0.00    +0.000 A 
ATOM     12  C   UNL     1       5.812   4.090  14.435  0.00  0.00    +0.000 A 
ATOM     13  C   UNL     1       5.042   4.242  15.592  0.00  0.00    +0.000 A 
ATOM     14  C   UNL     1       5.502   4.934  16.733  0.00  0.00    +0.000 A 
BRANCH   9  16
ATOM     15  C   UNL     1       7.627   7.552  17.413  0.00  0.00    +0.000 C 
ATOM     16  O   UNL     1       7.296   6.199  17.721  0.00  0.00    +0.000 OA
ENDBRANCH   9  16
ENDBRANCH   3  14
ENDBRANCH   2   6
ENDBRANCH   1   2
BRANCH   1  17
ATOM     17  C   UNL     1       1.727   7.629  20.412  0.00  0.00    +0.000 C 
BRANCH  17  18
ATOM     18  C   UNL     1       1.183   8.598  21.456  0.00  0.00    +0.000 C 
BRANCH  18  19
ATOM     19  N   UNL     1       0.009   9.275  20.973  0.00  0.00    +0.000 N 
ATOM     20  C   UNL     1       0.115  10.340  20.110  0.00  0.00    +0.000 C 
ATOM     21  O   UNL     1       1.174  10.772  19.675  0.00  0.00    +0.000 OA
ATOM     22  H   UNL     1      -0.893   9.000  21.336  0.00  0.00    +0.000 HD
BRANCH  20  23
ATOM     23  C   UNL     1      -1.196  10.933  19.763  0.00  0.00    +0.000 C 
ATOM     24  C   UNL     1      -1.833  10.503  18.665  0.00  0.00    +0.000 C 
BRANCH  24  25
ATOM     25  C   UNL     1      -3.096  11.102  18.246  0.00  0.00    +0.000 A 
ATOM     26  C   UNL     1      -3.475  11.029  16.901  0.00  0.00    +0.000 A 
ATOM     27  C   UNL     1      -4.668  11.614  16.477  0.00  0.00    +0.000 A 
ATOM     28  C   UNL     1      -5.483  12.273  17.401  0.00  0.00    +0.000 A 
ATOM     29  C   UNL     1      -5.113  12.348  18.748  0.00  0.00    +0.000 A 
ATOM     30  C   UNL     1      -3.916  11.761  19.168  0.00  0.00    +0.000 A 
BRANCH  28  31
ATOM     31  C   UNL     1      -6.744  12.898  16.958  0.00  0.00    +0.000 C 
ATOM     32  O   UNL     1      -7.476  13.507  17.727  0.00  0.00    +0.000 OA
ENDBRANCH  28  31
ENDBRANCH  24  25
ENDBRANCH  20  23
ENDBRANCH  18  19
ENDBRANCH  17  18
ENDBRANCH   1  17
TORSDOF 10
ENDMDL
MODEL 8
REMARK VINA RESULT:      -7.0      2.626      3.452
REMARK  Name = 
REMARK  11 active torsions:
REMARK  status: ('A' for Active; 'I' for Inactive)
REMARK    1  A    between atoms: C_1  and  O_2
REMARK    2  A    between atoms: O_2  and  C_3
REMARK    3  A    between atoms: C_8  and  N_9
REMARK    4  A    between atoms: N_12  and  C_13
REMARK    5  A    between atoms: C_13  and  C_14
REMARK    6  A    between atoms: C_14  and  C_15
REMARK    7  A    between atoms: C_15  and  C_16
REMARK    8  A    between atoms: C_16  and  N_17
REMARK    9  A    between atoms: C_18  and  C_20
REMARK   10  A    between atoms: C_21  and  C_22
REMARK   11  A    between atoms: C_25  and  C_26
REMARK                            x       y       z     vdW  Elec       q    Type
REMARK                         _______ _______ _______ _____ _____    ______ ____
ROOT
ATOM      1  C   UNL     1       1.158   6.103  20.639  0.00  0.00    +0.000 C 
ENDROOT
BRANCH   1   2
ATOM      2  C   UNL     1       1.995   4.829  20.775  0.00  0.00    +0.000 C 
BRANCH   2   6
ATOM      3  N   UNL     1       4.397   4.906  18.031  0.00  0.00    +0.000 N 
ATOM      4  C   UNL     1       3.196   5.750  18.062  0.00  0.00    +0.000 C 
ATOM      5  C   UNL     1       1.929   4.903  18.344  0.00  0.00    +0.000 C 
ATOM      6  N   UNL     1       2.015   4.025  19.543  0.00  0.00    +0.000 NA
ATOM      7  C   UNL     1       3.234   3.195  19.392  0.00  0.00    +0.000 C 
ATOM      8  C   UNL     1       4.544   3.982  19.166  0.00  0.00    +0.000 C 
BRANCH   3  14
ATOM      9  C   UNL     1       6.431   5.710  16.836  0.00  0.00    +0.000 A 
ATOM     10  C   UNL     1       7.256   5.622  15.697  0.00  0.00    +0.000 A 
ATOM     11  C   UNL     1       7.000   4.694  14.693  0.00  0.00    +0.000 A 
ATOM     12  C   UNL     1       5.912   3.846  14.812  0.00  0.00    +0.000 A 
ATOM     13  C   UNL     1       5.080   3.940  15.931  0.00  0.00    +0.000 A 
ATOM     14  C   UNL     1       5.293   4.873  16.969  0.00  0.00    +0.000 A 
BRANCH   9  16
ATOM     15  C   UNL     1       7.808   6.497  18.596  0.00  0.00    +0.000 C 
ATOM     16  O   UNL     1       6.650   6.686  17.785  0.00  0.00    +0.000 OA
ENDBRANCH   9  16
ENDBRANCH   3  14
ENDBRANCH   2   6
ENDBRANCH   1   2
BRANCH   1  17
ATOM     17  C   UNL     1       1.839   7.294  21.306  0.00  0.00    +0.000 C 
BRANCH  17  18
ATOM     18  C   UNL     1       1.434   8.578  20.593  0.00  0.00    +0.000 C 
BRANCH  18  19
ATOM     19  N   UNL     1       0.216   9.115  21.141  0.00  0.00    +0.000 N 
ATOM     20  C   UNL     1       0.177  10.389  21.657  0.00  0.00    +0.000 C 
ATOM     21  O   UNL     1       1.132  11.155  21.674  0.00  0.00    +0.000 OA
ATOM     22  H   UNL     1      -0.594   8.514  21.203  0.00  0.00    +0.000 HD
BRANCH  20  23
ATOM     23  C   UNL     1      -1.147  10.745  22.214  0.00  0.00    +0.000 C 
ATOM     24  C   UNL     1      -1.726  11.891  21.829  0.00  0.00    +0.000 C 
BRANCH  24  25
ATOM     25  C   UNL     1      -3.000  12.316  22.399  0.00  0.00    +0.000 A 
ATOM     26  C   UNL     1      -3.162  12.317  23.789  0.00  0.00    +0.000 A 
ATOM     27  C   UNL     1      -4.380  12.701  24.352  0.00  0.00    +0.000 A 
ATOM     28  C   UNL     1      -5.436  13.085  23.522  0.00  0.00    +0.000 A 
ATOM     29  C   UNL     1      -5.282  13.090  22.132  0.00  0.00    +0.000 A 
ATOM     30  C   UNL     1      -4.061  12.704  21.572  0.00  0.00    +0.000 A 
BRANCH  28  31
ATOM     31  C   UNL     1      -6.728  13.487  24.111  0.00  0.00    +0.000 C 
ATOM     32  O   UNL     1      -7.666  12.708  24.218  0.00  0.00    +0.000 OA
ENDBRANCH  28  31
ENDBRANCH  24  25
ENDBRANCH  20  23
ENDBRANCH  18  19
ENDBRANCH  17  18
ENDBRANCH   1  17
TORSDOF 10
ENDMDL
MODEL 9
REMARK VINA RESULT:      -7.0      3.747     10.449
REMARK  Name = 
REMARK  11 active torsions:
REMARK  status: ('A' for Active; 'I' for Inactive)
REMARK    1  A    between atoms: C_1  and  O_2
REMARK    2  A    between atoms: O_2  and  C_3
REMARK    3  A    between atoms: C_8  and  N_9
REMARK    4  A    between atoms: N_12  and  C_13
REMARK    5  A    between atoms: C_13  and  C_14
REMARK    6  A    between atoms: C_14  and  C_15
REMARK    7  A    between atoms: C_15  and  C_16
REMARK    8  A    between atoms: C_16  and  N_17
REMARK    9  A    between atoms: C_18  and  C_20
REMARK   10  A    between atoms: C_21  and  C_22
REMARK   11  A    between atoms: C_25  and  C_26
REMARK                            x       y       z     vdW  Elec       q    Type
REMARK                         _______ _______ _______ _____ _____    ______ ____
ROOT
ATOM      1  C   UNL     1      -0.474   9.546  21.963  0.00  0.00    +0.000 C 
ENDROOT
BRANCH   1   2
ATOM      2  C   UNL     1       0.166  10.763  21.293  0.00  0.00    +0.000 C 
BRANCH   2   6
ATOM      3  N   UNL     1       0.670  13.992  19.672  0.00  0.00    +0.000 N 
ATOM      4  C   UNL     1       0.277  13.860  21.081  0.00  0.00    +0.000 C 
ATOM      5  C   UNL     1      -0.949  12.925  21.232  0.00  0.00    +0.000 C 
ATOM      6  N   UNL     1      -0.810  11.597  20.574  0.00  0.00    +0.000 NA
ATOM      7  C   UNL     1      -0.453  11.845  19.156  0.00  0.00    +0.000 C 
ATOM      8  C   UNL     1       0.798  12.725  18.936  0.00  0.00    +0.000 C 
BRANCH   3  14
ATOM      9  C   UNL     1       2.037  15.769  18.585  0.00  0.00    +0.000 A 
ATOM     10  C   UNL     1       2.071  17.033  17.963  0.00  0.00    +0.000 A 
ATOM     11  C   UNL     1       0.902  17.749  17.726  0.00  0.00    +0.000 A 
ATOM     12  C   UNL     1      -0.314  17.214  18.113  0.00  0.00    +0.000 A 
ATOM     13  C   UNL     1      -0.353  15.968  18.746  0.00  0.00    +0.000 A 
ATOM     14  C   UNL     1       0.807  15.210  19.018  0.00  0.00    +0.000 A 
BRANCH   9  16
ATOM     15  C   UNL     1       4.233  15.204  17.896  0.00  0.00    +0.000 C 
ATOM     16  O   UNL     1       3.208  15.105  18.885  0.00  0.00    +0.000 OA
ENDBRANCH   9  16
ENDBRANCH   3  14
ENDBRANCH   2   6
ENDBRANCH   1   2
BRANCH   1  17
ATOM     17  C   UNL     1      -0.005   8.243  21.323  0.00  0.00    +0.000 C 
BRANCH  17  18
ATOM     18  C   UNL     1       1.517   8.183  21.345  0.00  0.00    +0.000 C 
BRANCH  18  19
ATOM     19  N   UNL     1       2.028   7.526  20.171  0.00  0.00    +0.000 N 
ATOM     20  C   UNL     1       2.155   6.158  20.128  0.00  0.00    +0.000 C 
ATOM     21  O   UNL     1       1.835   5.407  21.040  0.00  0.00    +0.000 OA
ATOM     22  H   UNL     1       2.358   8.093  19.403  0.00  0.00    +0.000 HD
BRANCH  20  23
ATOM     23  C   UNL     1       2.739   5.672  18.858  0.00  0.00    +0.000 C 
ATOM     24  C   UNL     1       4.034   5.909  18.606  0.00  0.00    +0.000 C 
BRANCH  24  25
ATOM     25  C   UNL     1       4.639   5.508  17.340  0.00  0.00    +0.000 A 
ATOM     26  C   UNL     1       4.852   4.150  17.083  0.00  0.00    +0.000 A 
ATOM     27  C   UNL     1       5.448   3.748  15.887  0.00  0.00    +0.000 A 
ATOM     28  C   UNL     1       5.831   4.709  14.948  0.00  0.00    +0.000 A 
ATOM     29  C   UNL     1       5.619   6.069  15.195  0.00  0.00    +0.000 A 
ATOM     30  C   UNL     1       5.023   6.467  16.396  0.00  0.00    +0.000 A 
BRANCH  28  31
ATOM     31  C   UNL     1       6.466   4.291  13.683  0.00  0.00    +0.000 C 
ATOM     32  O   UNL     1       6.015   3.384  12.996  0.00  0.00    +0.000 OA
ENDBRANCH  28  31
ENDBRANCH  24  25
ENDBRANCH  20  23
ENDBRANCH  18  19
ENDBRANCH  17  18
ENDBRANCH   1  17
TORSDOF 10
ENDMDL
