MODEL 1
REMARK VINA RESULT:      -8.8      0.000      0.000
REMARK  Name = 
REMARK  9 active torsions:
REMARK  status: ('A' for Active; 'I' for Inactive)
REMARK    1  A    between atoms: C_1  and  C_2
REMARK    2  A    between atoms: C_5  and  C_6
REMARK    3  A    between atoms: C_6  and  N_7
REMARK    4  A    between atoms: C_8  and  C_10
REMARK    5  A    between atoms: N_13  and  S_14
REMARK    6  A    between atoms: S_14  and  C_17
REMARK    7  A    between atoms: C_18  and  C_19
REMARK    8  A    between atoms: C_22  and  C_23
REMARK    9  A    between atoms: C_24  and  C_25
REMARK                            x       y       z     vdW  Elec       q    Type
REMARK                         _______ _______ _______ _____ _____    ______ ____
ROOT
ATOM      1  C   UNL     1       2.216   7.723  19.861  0.00  0.00    +0.000 C 
ATOM      2  C   UNL     1       1.967   6.256  20.186  0.00  0.00    +0.000 C 
ATOM      3  C   UNL     1       3.289   5.506  20.095  0.00  0.00    +0.000 C 
ATOM      4  N   UNL     1       3.953   5.676  18.761  0.00  0.00    +0.000 NA
ATOM      5  C   UNL     1       3.978   7.086  18.237  0.00  0.00    +0.000 C 
ATOM      6  C   UNL     1       2.632   7.795  18.398  0.00  0.00    +0.000 C 
ENDROOT
BRANCH   1   8
ATOM      7  N   UNL     1       0.953   9.799  19.549  0.00  0.00    +0.000 N 
ATOM      8  C   UNL     1       1.051   8.621  20.238  0.00  0.00    +0.000 C 
ATOM      9  O   UNL     1       0.245   8.272  21.100  0.00  0.00    +0.000 OA
ATOM     10  H   UNL     1       1.636  10.038  18.847  0.00  0.00    +0.000 HD
BRANCH   7  11
ATOM     11  C   UNL     1      -0.173  10.695  19.721  0.00  0.00    +0.000 C 
BRANCH  11  16
ATOM     12  C   UNL     1      -3.805  10.429  15.163  0.00  0.00    +0.000 C 
ATOM     13  C   UNL     1      -2.890  10.489  16.350  0.00  0.00    +0.000 A 
ATOM     14  C   UNL     1      -3.076  11.443  17.357  0.00  0.00    +0.000 A 
ATOM     15  C   UNL     1      -2.205  11.501  18.449  0.00  0.00    +0.000 A 
ATOM     16  C   UNL     1      -1.133  10.604  18.559  0.00  0.00    +0.000 A 
ATOM     17  C   UNL     1      -0.950   9.648  17.551  0.00  0.00    +0.000 A 
ATOM     18  C   UNL     1      -1.820   9.593  16.458  0.00  0.00    +0.000 A 
ENDBRANCH  11  16
ENDBRANCH   7  11
ENDBRANCH   1   8
BRANCH   4  19
ATOM     19  S   UNL     1       5.549   4.976  18.753  0.00  0.00    +0.000 S 
ATOM     20  O   UNL     1       6.304   5.557  19.841  0.00  0.00    +0.000 OA
ATOM     21  O   UNL     1       5.401   3.543  18.627  0.00  0.00    +0.000 OA
BRANCH  19  22
ATOM     22  C   UNL     1       6.371   5.501  17.348  0.00  0.00    +0.000 A 
ATOM     23  C   UNL     1       6.206   4.900  16.077  0.00  0.00    +0.000 A 
ATOM     24  C   UNL     1       5.346   3.776  15.637  0.00  0.00    +0.000 C 
ATOM     25  N   UNL     1       6.984   5.493  15.171  0.00  0.00    +0.000 NA
ATOM     26  O   UNL     1       7.632   6.501  15.835  0.00  0.00    +0.000 OA
ATOM     27  C   UNL     1       7.274   6.545  17.171  0.00  0.00    +0.000 A 
BRANCH  27  28
ATOM     28  C   UNL     1       7.822   7.530  18.049  0.00  0.00    +0.000 C 
ATOM     29  C   UNL     1       8.031   8.788  17.609  0.00  0.00    +0.000 C 
BRANCH  29  30
ATOM     30  C   UNL     1       8.603   9.816  18.418  0.00  0.00    +0.000 A 
ATOM     31  C   UNL     1       9.159   9.781  19.688  0.00  0.00    +0.000 A 
ATOM     32  C   UNL     1       9.677  11.040  20.114  0.00  0.00    +0.000 A 
ATOM     33  C   UNL     1       9.478  12.022  19.173  0.00  0.00    +0.000 A 
ATOM     34  S   UNL     1       8.664  11.430  17.797  0.00  0.00    +0.000 S 
ENDBRANCH  29  30
ENDBRANCH  27  28
ENDBRANCH  19  22
ENDBRANCH   4  19
TORSDOF 7
ENDMDL
MODEL 2
REMARK VINA RESULT:      -8.3      1.583      2.515
REMARK  Name = 
REMARK  9 active torsions:
REMARK  status: ('A' for Active; 'I' for Inactive)
REMARK    1  A    between atoms: C_1  and  C_2
REMARK    2  A    between atoms: C_5  and  C_6
REMARK    3  A    between atoms: C_6  and  N_7
REMARK    4  A    between atoms: C_8  and  C_10
REMARK    5  A    between atoms: N_13  and  S_14
REMARK    6  A    between atoms: S_14  and  C_17
REMARK    7  A    between atoms: C_18  and  C_19
REMARK    8  A    between atoms: C_22  and  C_23
REMARK    9  A    between atoms: C_24  and  C_25
REMARK                            x       y       z     vdW  Elec       q    Type
REMARK                         _______ _______ _______ _____ _____    ______ ____
ROOT
ATOM      1  C   UNL     1       2.257   7.618  19.830  0.00  0.00    +0.000 C 
ATOM      2  C   UNL     1       2.007   6.144  20.125  0.00  0.00    +0.000 C 
ATOM      3  C   UNL     1       3.335   5.402  20.057  0.00  0.00    +0.000 C 
ATOM      4  N   UNL     1       4.032   5.596  18.744  0.00  0.00    +0.000 NA
ATOM      5  C   UNL     1       4.065   7.015  18.244  0.00  0.00    +0.000 C 
ATOM      6  C   UNL     1       2.711   7.716  18.380  0.00  0.00    +0.000 C 
ENDROOT
BRANCH   1   8
ATOM      7  N   UNL     1       0.868   9.583  19.378  0.00  0.00    +0.000 N 
ATOM      8  C   UNL     1       1.079   8.504  20.191  0.00  0.00    +0.000 C 
ATOM      9  O   UNL     1       0.359   8.229  21.151  0.00  0.00    +0.000 OA
ATOM     10  H   UNL     1       1.483   9.764  18.600  0.00  0.00    +0.000 HD
BRANCH   7  11
ATOM     11  C   UNL     1      -0.288  10.445  19.532  0.00  0.00    +0.000 C 
BRANCH  11  16
ATOM     12  C   UNL     1       1.306  16.051  19.273  0.00  0.00    +0.000 C 
ATOM     13  C   UNL     1       0.887  14.613  19.363  0.00  0.00    +0.000 A 
ATOM     14  C   UNL     1       1.528  13.727  20.236  0.00  0.00    +0.000 A 
ATOM     15  C   UNL     1       1.141  12.386  20.296  0.00  0.00    +0.000 A 
ATOM     16  C   UNL     1       0.101  11.903  19.490  0.00  0.00    +0.000 A 
ATOM     17  C   UNL     1      -0.542  12.792  18.619  0.00  0.00    +0.000 A 
ATOM     18  C   UNL     1      -0.152  14.133  18.556  0.00  0.00    +0.000 A 
ENDBRANCH  11  16
ENDBRANCH   7  11
ENDBRANCH   1   8
BRANCH   4  19
ATOM     19  S   UNL     1       5.631   4.903  18.767  0.00  0.00    +0.000 S 
ATOM     20  O   UNL     1       6.375   5.516  19.846  0.00  0.00    +0.000 OA
ATOM     21  O   UNL     1       5.491   3.467  18.677  0.00  0.00    +0.000 OA
BRANCH  19  22
ATOM     22  C   UNL     1       6.463   5.396  17.355  0.00  0.00    +0.000 A 
ATOM     23  C   UNL     1       6.302   4.768  16.097  0.00  0.00    +0.000 A 
ATOM     24  C   UNL     1       5.440   3.637  15.677  0.00  0.00    +0.000 C 
ATOM     25  N   UNL     1       7.087   5.339  15.182  0.00  0.00    +0.000 NA
ATOM     26  O   UNL     1       7.735   6.359  15.828  0.00  0.00    +0.000 OA
ATOM     27  C   UNL     1       7.370   6.433  17.160  0.00  0.00    +0.000 A 
BRANCH  27  28
ATOM     28  C   UNL     1       7.917   7.435  18.020  0.00  0.00    +0.000 C 
ATOM     29  C   UNL     1       7.989   8.716  17.606  0.00  0.00    +0.000 C 
BRANCH  29  30
ATOM     30  C   UNL     1       8.549   9.765  18.396  0.00  0.00    +0.000 A 
ATOM     31  C   UNL     1       9.101   9.759  19.668  0.00  0.00    +0.000 A 
ATOM     32  C   UNL     1       9.607  11.031  20.071  0.00  0.00    +0.000 A 
ATOM     33  C   UNL     1       9.404  11.993  19.110  0.00  0.00    +0.000 A 
ATOM     34  S   UNL     1       8.599  11.366  17.744  0.00  0.00    +0.000 S 
ENDBRANCH  29  30
ENDBRANCH  27  28
ENDBRANCH  19  22
ENDBRANCH   4  19
TORSDOF 7
ENDMDL
MODEL 3
REMARK VINA RESULT:      -8.1      2.610      4.874
REMARK  Name = 
REMARK  9 active torsions:
REMARK  status: ('A' for Active; 'I' for Inactive)
REMARK    1  A    between atoms: C_1  and  C_2
REMARK    2  A    between atoms: C_5  and  C_6
REMARK    3  A    between atoms: C_6  and  N_7
REMARK    4  A    between atoms: C_8  and  C_10
REMARK    5  A    between atoms: N_13  and  S_14
REMARK    6  A    between atoms: S_14  and  C_17
REMARK    7  A    between atoms: C_18  and  C_19
REMARK    8  A    between atoms: C_22  and  C_23
REMARK    9  A    between atoms: C_24  and  C_25
REMARK                            x       y       z     vdW  Elec       q    Type
REMARK                         _______ _______ _______ _____ _____    ______ ____
ROOT
ATOM      1  C   UNL     1       2.361   7.227  19.793  0.00  0.00    +0.000 C 
ATOM      2  C   UNL     1       1.992   5.814  20.230  0.00  0.00    +0.000 C 
ATOM      3  C   UNL     1       3.132   4.877  19.860  0.00  0.00    +0.000 C 
ATOM      4  N   UNL     1       3.472   4.937  18.400  0.00  0.00    +0.000 NA
ATOM      5  C   UNL     1       3.571   6.325  17.826  0.00  0.00    +0.000 C 
ATOM      6  C   UNL     1       2.417   7.226  18.272  0.00  0.00    +0.000 C 
ENDROOT
BRANCH   1   8
ATOM      7  N   UNL     1       1.317   9.439  19.671  0.00  0.00    +0.000 N 
ATOM      8  C   UNL     1       1.461   8.289  20.398  0.00  0.00    +0.000 C 
ATOM      9  O   UNL     1       0.889   8.090  21.470  0.00  0.00    +0.000 OA
ATOM     10  H   UNL     1       1.803   9.553  18.795  0.00  0.00    +0.000 HD
BRANCH   7  11
ATOM     11  C   UNL     1       0.397  10.487  20.068  0.00  0.00    +0.000 C 
BRANCH  11  16
ATOM     12  C   UNL     1      -4.007  11.013  16.279  0.00  0.00    +0.000 C 
ATOM     13  C   UNL     1      -2.891  10.868  17.271  0.00  0.00    +0.000 A 
ATOM     14  C   UNL     1      -2.840  11.661  18.422  0.00  0.00    +0.000 A 
ATOM     15  C   UNL     1      -1.785  11.529  19.329  0.00  0.00    +0.000 A 
ATOM     16  C   UNL     1      -0.760  10.599  19.106  0.00  0.00    +0.000 A 
ATOM     17  C   UNL     1      -0.814   9.804  17.953  0.00  0.00    +0.000 A 
ATOM     18  C   UNL     1      -1.869   9.938  17.045  0.00  0.00    +0.000 A 
ENDBRANCH  11  16
ENDBRANCH   7  11
ENDBRANCH   1   8
BRANCH   4  19
ATOM     19  S   UNL     1       4.903   4.008  18.043  0.00  0.00    +0.000 S 
ATOM     20  O   UNL     1       5.487   3.577  19.294  0.00  0.00    +0.000 OA
ATOM     21  O   UNL     1       4.564   3.058  17.008  0.00  0.00    +0.000 OA
BRANCH  19  22
ATOM     22  C   UNL     1       6.081   5.052  17.373  0.00  0.00    +0.000 A 
ATOM     23  C   UNL     1       6.989   5.807  18.154  0.00  0.00    +0.000 A 
ATOM     24  C   UNL     1       7.178   5.885  19.622  0.00  0.00    +0.000 C 
ATOM     25  N   UNL     1       7.776   6.550  17.374  0.00  0.00    +0.000 NA
ATOM     26  O   UNL     1       7.410   6.259  16.086  0.00  0.00    +0.000 OA
ATOM     27  C   UNL     1       6.381   5.335  16.044  0.00  0.00    +0.000 A 
BRANCH  27  28
ATOM     28  C   UNL     1       5.851   4.879  14.798  0.00  0.00    +0.000 C 
ATOM     29  C   UNL     1       6.406   3.820  14.173  0.00  0.00    +0.000 C 
BRANCH  29  30
ATOM     30  C   UNL     1       5.952   3.327  12.914  0.00  0.00    +0.000 A 
ATOM     31  C   UNL     1       6.583   2.557  11.948  0.00  0.00    +0.000 A 
ATOM     32  C   UNL     1       5.740   2.229  10.845  0.00  0.00    +0.000 A 
ATOM     33  C   UNL     1       4.489   2.782  10.973  0.00  0.00    +0.000 A 
ATOM     34  S   UNL     1       4.340   3.697  12.404  0.00  0.00    +0.000 S 
ENDBRANCH  29  30
ENDBRANCH  27  28
ENDBRANCH  19  22
ENDBRANCH   4  19
TORSDOF 7
ENDMDL
MODEL 4
REMARK VINA RESULT:      -8.0      4.273      5.733
REMARK  Name = 
REMARK  9 active torsions:
REMARK  status: ('A' for Active; 'I' for Inactive)
REMARK    1  A    between atoms: C_1  and  C_2
REMARK    2  A    between atoms: C_5  and  C_6
REMARK    3  A    between atoms: C_6  and  N_7
REMARK    4  A    between atoms: C_8  and  C_10
REMARK    5  A    between atoms: N_13  and  S_14
REMARK    6  A    between atoms: S_14  and  C_17
REMARK    7  A    between atoms: C_18  and  C_19
REMARK    8  A    between atoms: C_22  and  C_23
REMARK    9  A    between atoms: C_24  and  C_25
REMARK                            x       y       z     vdW  Elec       q    Type
REMARK                         _______ _______ _______ _____ _____    ______ ____
ROOT
ATOM      1  C   UNL     1       1.196   8.919  19.543  0.00  0.00    +0.000 C 
ATOM      2  C   UNL     1       2.270   8.545  18.529  0.00  0.00    +0.000 C 
ATOM      3  C   UNL     1       2.152   7.058  18.223  0.00  0.00    +0.000 C 
ATOM      4  N   UNL     1       2.233   6.211  19.457  0.00  0.00    +0.000 NA
ATOM      5  C   UNL     1       1.404   6.694  20.616  0.00  0.00    +0.000 C 
ATOM      6  C   UNL     1       1.535   8.202  20.843  0.00  0.00    +0.000 C 
ENDROOT
BRANCH   1   8
ATOM      7  N   UNL     1       0.896  10.901  20.951  0.00  0.00    +0.000 N 
ATOM      8  C   UNL     1       1.001  10.419  19.675  0.00  0.00    +0.000 C 
ATOM      9  O   UNL     1       0.967  11.137  18.675  0.00  0.00    +0.000 OA
ATOM     10  H   UNL     1       0.935  10.273  21.738  0.00  0.00    +0.000 HD
BRANCH   7  11
ATOM     11  C   UNL     1       0.827  12.323  21.229  0.00  0.00    +0.000 C 
BRANCH  11  16
ATOM     12  C   UNL     1      -3.961  13.694  24.266  0.00  0.00    +0.000 C 
ATOM     13  C   UNL     1      -2.745  13.331  23.467  0.00  0.00    +0.000 A 
ATOM     14  C   UNL     1      -2.364  11.996  23.298  0.00  0.00    +0.000 A 
ATOM     15  C   UNL     1      -1.218  11.672  22.567  0.00  0.00    +0.000 A 
ATOM     16  C   UNL     1      -0.430  12.676  21.986  0.00  0.00    +0.000 A 
ATOM     17  C   UNL     1      -0.815  14.012  22.154  0.00  0.00    +0.000 A 
ATOM     18  C   UNL     1      -1.960  14.336  22.889  0.00  0.00    +0.000 A 
ENDBRANCH  11  16
ENDBRANCH   7  11
ENDBRANCH   1   8
BRANCH   4  19
ATOM     19  S   UNL     1       1.899   4.538  19.101  0.00  0.00    +0.000 S 
ATOM     20  O   UNL     1       0.747   4.132  19.876  0.00  0.00    +0.000 OA
ATOM     21  O   UNL     1       1.928   4.379  17.665  0.00  0.00    +0.000 OA
BRANCH  19  22
ATOM     22  C   UNL     1       3.175   3.580  19.720  0.00  0.00    +0.000 A 
ATOM     23  C   UNL     1       3.044   2.747  20.857  0.00  0.00    +0.000 A 
ATOM     24  C   UNL     1       1.881   2.474  21.733  0.00  0.00    +0.000 C 
ATOM     25  N   UNL     1       4.199   2.137  21.128  0.00  0.00    +0.000 NA
ATOM     26  O   UNL     1       5.074   2.541  20.154  0.00  0.00    +0.000 OA
ATOM     27  C   UNL     1       4.480   3.418  19.265  0.00  0.00    +0.000 A 
BRANCH  27  28
ATOM     28  C   UNL     1       5.210   3.956  18.160  0.00  0.00    +0.000 C 
ATOM     29  C   UNL     1       5.001   3.481  16.916  0.00  0.00    +0.000 C 
BRANCH  29  30
ATOM     30  C   UNL     1       5.713   3.946  15.770  0.00  0.00    +0.000 A 
ATOM     31  C   UNL     1       5.590   3.633  14.424  0.00  0.00    +0.000 A 
ATOM     32  C   UNL     1       6.473   4.379  13.587  0.00  0.00    +0.000 A 
ATOM     33  C   UNL     1       7.275   5.226  14.312  0.00  0.00    +0.000 A 
ATOM     34  S   UNL     1       6.975   5.110  15.986  0.00  0.00    +0.000 S 
ENDBRANCH  29  30
ENDBRANCH  27  28
ENDBRANCH  19  22
ENDBRANCH   4  19
TORSDOF 7
ENDMDL
MODEL 5
REMARK VINA RESULT:      -8.0      4.163      9.845
REMARK  Name = 
REMARK  9 active torsions:
REMARK  status: ('A' for Active; 'I' for Inactive)
REMARK    1  A    between atoms: C_1  and  C_2
REMARK    2  A    between atoms: C_5  and  C_6
REMARK    3  A    between atoms: C_6  and  N_7
REMARK    4  A    between atoms: C_8  and  C_10
REMARK    5  A    between atoms: N_13  and  S_14
REMARK    6  A    between atoms: S_14  and  C_17
REMARK    7  A    between atoms: C_18  and  C_19
REMARK    8  A    between atoms: C_22  and  C_23
REMARK    9  A    between atoms: C_24  and  C_25
REMARK                            x       y       z     vdW  Elec       q    Type
REMARK                         _______ _______ _______ _____ _____    ______ ____
ROOT
ATOM      1  C   UNL     1       2.361   6.884  18.506  0.00  0.00    +0.000 C 
ATOM      2  C   UNL     1       2.382   7.270  19.980  0.00  0.00    +0.000 C 
ATOM      3  C   UNL     1       1.276   8.285  20.233  0.00  0.00    +0.000 C 
ATOM      4  N   UNL     1       1.387   9.486  19.342  0.00  0.00    +0.000 NA
ATOM      5  C   UNL     1       1.658   9.181  17.894  0.00  0.00    +0.000 C 
ATOM      6  C   UNL     1       2.749   8.124  17.711  0.00  0.00    +0.000 C 
ENDROOT
BRANCH   1   8
ATOM      7  N   UNL     1       4.511   5.864  17.928  0.00  0.00    +0.000 N 
ATOM      8  C   UNL     1       3.189   5.648  18.204  0.00  0.00    +0.000 C 
ATOM      9  O   UNL     1       2.678   4.529  18.236  0.00  0.00    +0.000 OA
ATOM     10  H   UNL     1       4.884   6.800  17.918  0.00  0.00    +0.000 HD
BRANCH   7  11
ATOM     11  C   UNL     1       5.443   4.769  17.739  0.00  0.00    +0.000 C 
BRANCH  11  16
ATOM     12  C   UNL     1       6.978   4.053  12.157  0.00  0.00    +0.000 C 
ATOM     13  C   UNL     1       6.582   4.263  13.588  0.00  0.00    +0.000 A 
ATOM     14  C   UNL     1       7.429   4.924  14.483  0.00  0.00    +0.000 A 
ATOM     15  C   UNL     1       7.056   5.096  15.819  0.00  0.00    +0.000 A 
ATOM     16  C   UNL     1       5.825   4.614  16.287  0.00  0.00    +0.000 A 
ATOM     17  C   UNL     1       4.977   3.955  15.388  0.00  0.00    +0.000 A 
ATOM     18  C   UNL     1       5.352   3.780  14.053  0.00  0.00    +0.000 A 
ENDBRANCH  11  16
ENDBRANCH   7  11
ENDBRANCH   1   8
BRANCH   4  19
ATOM     19  S   UNL     1       0.004  10.533  19.514  0.00  0.00    +0.000 S 
ATOM     20  O   UNL     1      -0.501  10.837  18.193  0.00  0.00    +0.000 OA
ATOM     21  O   UNL     1      -0.854   9.966  20.531  0.00  0.00    +0.000 OA
BRANCH  19  22
ATOM     22  C   UNL     1       0.533  12.045  20.117  0.00  0.00    +0.000 A 
ATOM     23  C   UNL     1       1.582  12.793  19.531  0.00  0.00    +0.000 A 
ATOM     24  C   UNL     1       2.422  12.524  18.340  0.00  0.00    +0.000 C 
ATOM     25  N   UNL     1       1.799  13.916  20.218  0.00  0.00    +0.000 NA
ATOM     26  O   UNL     1       0.874  13.921  21.229  0.00  0.00    +0.000 OA
ATOM     27  C   UNL     1       0.071  12.795  21.193  0.00  0.00    +0.000 A 
BRANCH  27  28
ATOM     28  C   UNL     1      -0.972  12.603  22.151  0.00  0.00    +0.000 C 
ATOM     29  C   UNL     1      -2.245  12.917  21.837  0.00  0.00    +0.000 C 
BRANCH  29  30
ATOM     30  C   UNL     1      -3.333  12.781  22.750  0.00  0.00    +0.000 A 
ATOM     31  C   UNL     1      -3.388  12.286  24.044  0.00  0.00    +0.000 A 
ATOM     32  C   UNL     1      -4.684  12.385  24.634  0.00  0.00    +0.000 A 
ATOM     33  C   UNL     1      -5.603  12.925  23.768  0.00  0.00    +0.000 A 
ATOM     34  S   UNL     1      -4.909  13.296  22.254  0.00  0.00    +0.000 S 
ENDBRANCH  29  30
ENDBRANCH  27  28
ENDBRANCH  19  22
ENDBRANCH   4  19
TORSDOF 7
ENDMDL
MODEL 6
REMARK VINA RESULT:      -7.9      4.094      5.672
REMARK  Name = 
REMARK  9 active torsions:
REMARK  status: ('A' for Active; 'I' for Inactive)
REMARK    1  A    between atoms: C_1  and  C_2
REMARK    2  A    between atoms: C_5  and  C_6
REMARK    3  A    between atoms: C_6  and  N_7
REMARK    4  A    between atoms: C_8  and  C_10
REMARK    5  A    between atoms: N_13  and  S_14
REMARK    6  A    between atoms: S_14  and  C_17
REMARK    7  A    between atoms: C_18  and  C_19
REMARK    8  A    between atoms: C_22  and  C_23
REMARK    9  A    between atoms: C_24  and  C_25
REMARK                            x       y       z     vdW  Elec       q    Type
REMARK                         _______ _______ _______ _____ _____    ______ ____
ROOT
ATOM      1  C   UNL     1       1.042   8.889  20.113  0.00  0.00    +0.000 C 
ATOM      2  C   UNL     1       2.014   8.739  18.949  0.00  0.00    +0.000 C 
ATOM      3  C   UNL     1       1.965   7.299  18.458  0.00  0.00    +0.000 C 
ATOM      4  N   UNL     1       2.249   6.312  19.550  0.00  0.00    +0.000 NA
ATOM      5  C   UNL     1       1.529   6.572  20.846  0.00  0.00    +0.000 C 
ATOM      6  C   UNL     1       1.580   8.044  21.259  0.00  0.00    +0.000 C 
ENDROOT
BRANCH   1   8
ATOM      7  N   UNL     1       0.246  11.112  19.462  0.00  0.00    +0.000 N 
ATOM      8  C   UNL     1       0.759  10.338  20.467  0.00  0.00    +0.000 C 
ATOM      9  O   UNL     1       0.968  10.758  21.605  0.00  0.00    +0.000 OA
ATOM     10  H   UNL     1       0.088  10.721  18.546  0.00  0.00    +0.000 HD
BRANCH   7  11
ATOM     11  C   UNL     1      -0.182  12.479  19.690  0.00  0.00    +0.000 C 
BRANCH  11  16
ATOM     12  C   UNL     1       3.742  16.303  17.688  0.00  0.00    +0.000 C 
ATOM     13  C   UNL     1       2.750  15.312  18.221  0.00  0.00    +0.000 A 
ATOM     14  C   UNL     1       2.973  13.936  18.111  0.00  0.00    +0.000 A 
ATOM     15  C   UNL     1       2.031  13.023  18.595  0.00  0.00    +0.000 A 
ATOM     16  C   UNL     1       0.849  13.468  19.203  0.00  0.00    +0.000 A 
ATOM     17  C   UNL     1       0.629  14.847  19.314  0.00  0.00    +0.000 A 
ATOM     18  C   UNL     1       1.570  15.759  18.827  0.00  0.00    +0.000 A 
ENDBRANCH  11  16
ENDBRANCH   7  11
ENDBRANCH   1   8
BRANCH   4  19
ATOM     19  S   UNL     1       1.993   4.675  19.008  0.00  0.00    +0.000 S 
ATOM     20  O   UNL     1       0.806   4.164  19.657  0.00  0.00    +0.000 OA
ATOM     21  O   UNL     1       2.123   4.662  17.569  0.00  0.00    +0.000 OA
BRANCH  19  22
ATOM     22  C   UNL     1       3.256   3.693  19.616  0.00  0.00    +0.000 A 
ATOM     23  C   UNL     1       3.122   2.871  20.761  0.00  0.00    +0.000 A 
ATOM     24  C   UNL     1       1.965   2.630  21.656  0.00  0.00    +0.000 C 
ATOM     25  N   UNL     1       4.266   2.236  21.020  0.00  0.00    +0.000 NA
ATOM     26  O   UNL     1       5.137   2.613  20.032  0.00  0.00    +0.000 OA
ATOM     27  C   UNL     1       4.550   3.497  19.144  0.00  0.00    +0.000 A 
BRANCH  27  28
ATOM     28  C   UNL     1       5.277   4.010  18.025  0.00  0.00    +0.000 C 
ATOM     29  C   UNL     1       5.066   3.505  16.793  0.00  0.00    +0.000 C 
BRANCH  29  30
ATOM     30  C   UNL     1       5.775   3.945  15.635  0.00  0.00    +0.000 A 
ATOM     31  C   UNL     1       5.630   3.622  14.294  0.00  0.00    +0.000 A 
ATOM     32  C   UNL     1       6.518   4.341  13.439  0.00  0.00    +0.000 A 
ATOM     33  C   UNL     1       7.348   5.177  14.147  0.00  0.00    +0.000 A 
ATOM     34  S   UNL     1       7.064   5.083  15.826  0.00  0.00    +0.000 S 
ENDBRANCH  29  30
ENDBRANCH  27  28
ENDBRANCH  19  22
ENDBRANCH   4  19
TORSDOF 7
ENDMDL
MODEL 7
REMARK VINA RESULT:      -7.8      5.373     11.128
REMARK  Name = 
REMARK  9 active torsions:
REMARK  status: ('A' for Active; 'I' for Inactive)
REMARK    1  A    between atoms: C_1  and  C_2
REMARK    2  A    between atoms: C_5  and  C_6
REMARK    3  A    between atoms: C_6  and  N_7
REMARK    4  A    between atoms: C_8  and  C_10
REMARK    5  A    between atoms: N_13  and  S_14
REMARK    6  A    between atoms: S_14  and  C_17
REMARK    7  A    between atoms: C_18  and  C_19
REMARK    8  A    between atoms: C_22  and  C_23
REMARK    9  A    between atoms: C_24  and  C_25
REMARK                            x       y       z     vdW  Elec       q    Type
REMARK                         _______ _______ _______ _____ _____    ______ ____
ROOT
ATOM      1  C   UNL     1       0.440  10.884  19.307  0.00  0.00    +0.000 C 
ATOM      2  C   UNL     1      -0.532  11.857  18.651  0.00  0.00    +0.000 C 
ATOM      3  C   UNL     1      -0.616  13.112  19.508  0.00  0.00    +0.000 C 
ATOM      4  N   UNL     1      -1.002  12.812  20.925  0.00  0.00    +0.000 NA
ATOM      5  C   UNL     1      -0.272  11.655  21.552  0.00  0.00    +0.000 C 
ATOM      6  C   UNL     1      -0.186  10.443  20.623  0.00  0.00    +0.000 C 
ENDROOT
BRANCH   1   8
ATOM      7  N   UNL     1       2.087   9.204  18.626  0.00  0.00    +0.000 N 
ATOM      8  C   UNL     1       0.856   9.750  18.387  0.00  0.00    +0.000 C 
ATOM      9  O   UNL     1       0.100   9.353  17.500  0.00  0.00    +0.000 OA
ATOM     10  H   UNL     1       2.669   9.562  19.368  0.00  0.00    +0.000 HD
BRANCH   7  11
ATOM     11  C   UNL     1       2.563   8.040  17.905  0.00  0.00    +0.000 C 
BRANCH  11  16
ATOM     12  C   UNL     1       1.268   3.135  20.786  0.00  0.00    +0.000 C 
ATOM     13  C   UNL     1       1.624   4.397  20.057  0.00  0.00    +0.000 A 
ATOM     14  C   UNL     1       1.750   5.613  20.737  0.00  0.00    +0.000 A 
ATOM     15  C   UNL     1       2.063   6.785  20.042  0.00  0.00    +0.000 A 
ATOM     16  C   UNL     1       2.262   6.765  18.655  0.00  0.00    +0.000 A 
ATOM     17  C   UNL     1       2.138   5.545  17.976  0.00  0.00    +0.000 A 
ATOM     18  C   UNL     1       1.821   4.374  18.671  0.00  0.00    +0.000 A 
ENDBRANCH  11  16
ENDBRANCH   7  11
ENDBRANCH   1   8
BRANCH   4  19
ATOM     19  S   UNL     1      -0.898  14.235  21.926  0.00  0.00    +0.000 S 
ATOM     20  O   UNL     1       0.360  14.197  22.638  0.00  0.00    +0.000 OA
ATOM     21  O   UNL     1      -1.264  15.373  21.114  0.00  0.00    +0.000 OA
BRANCH  19  22
ATOM     22  C   UNL     1      -2.079  14.124  23.161  0.00  0.00    +0.000 A 
ATOM     23  C   UNL     1      -1.985  14.816  24.393  0.00  0.00    +0.000 A 
ATOM     24  C   UNL     1      -0.959  15.754  24.906  0.00  0.00    +0.000 C 
ATOM     25  N   UNL     1      -3.027  14.527  25.174  0.00  0.00    +0.000 NA
ATOM     26  O   UNL     1      -3.818  13.678  24.446  0.00  0.00    +0.000 OA
ATOM     27  C   UNL     1      -3.275  13.416  23.200  0.00  0.00    +0.000 A 
BRANCH  27  28
ATOM     28  C   UNL     1      -3.943  12.562  22.270  0.00  0.00    +0.000 C 
ATOM     29  C   UNL     1      -4.579  13.089  21.203  0.00  0.00    +0.000 C 
BRANCH  29  30
ATOM     30  C   UNL     1      -5.293  12.303  20.250  0.00  0.00    +0.000 A 
ATOM     31  C   UNL     1      -6.560  11.740  20.290  0.00  0.00    +0.000 A 
ATOM     32  C   UNL     1      -6.919  11.068  19.083  0.00  0.00    +0.000 A 
ATOM     33  C   UNL     1      -5.907  11.105  18.154  0.00  0.00    +0.000 A 
ATOM     34  S   UNL     1      -4.534  11.929  18.740  0.00  0.00    +0.000 S 
ENDBRANCH  29  30
ENDBRANCH  27  28
ENDBRANCH  19  22
ENDBRANCH   4  19
TORSDOF 7
ENDMDL
MODEL 8
REMARK VINA RESULT:      -7.8      4.404     10.264
REMARK  Name = 
REMARK  9 active torsions:
REMARK  status: ('A' for Active; 'I' for Inactive)
REMARK    1  A    between atoms: C_1  and  C_2
REMARK    2  A    between atoms: C_5  and  C_6
REMARK    3  A    between atoms: C_6  and  N_7
REMARK    4  A    between atoms: C_8  and  C_10
REMARK    5  A    between atoms: N_13  and  S_14
REMARK    6  A    between atoms: S_14  and  C_17
REMARK    7  A    between atoms: C_18  and  C_19
REMARK    8  A    between atoms: C_22  and  C_23
REMARK    9  A    between atoms: C_24  and  C_25
REMARK                            x       y       z     vdW  Elec       q    Type
REMARK                         _______ _______ _______ _____ _____    ______ ____
ROOT
ATOM      1  C   UNL     1       1.843   7.638  18.676  0.00  0.00    +0.000 C 
ATOM      2  C   UNL     1       1.834   8.064  20.139  0.00  0.00    +0.000 C 
ATOM      3  C   UNL     1       0.830   9.196  20.309  0.00  0.00    +0.000 C 
ATOM      4  N   UNL     1       1.110  10.351  19.394  0.00  0.00    +0.000 NA
ATOM      5  C   UNL     1       1.418   9.976  17.970  0.00  0.00    +0.000 C 
ATOM      6  C   UNL     1       2.398   8.805  17.871  0.00  0.00    +0.000 C 
ENDROOT
BRANCH   1   8
ATOM      7  N   UNL     1       3.883   6.283  18.755  0.00  0.00    +0.000 N 
ATOM      8  C   UNL     1       2.550   6.313  18.449  0.00  0.00    +0.000 C 
ATOM      9  O   UNL     1       1.929   5.335  18.034  0.00  0.00    +0.000 OA
ATOM     10  H   UNL     1       4.346   7.111  19.097  0.00  0.00    +0.000 HD
BRANCH   7  11
ATOM     11  C   UNL     1       4.654   5.057  18.701  0.00  0.00    +0.000 C 
BRANCH  11  16
ATOM     12  C   UNL     1       7.153   4.487  13.460  0.00  0.00    +0.000 C 
ATOM     13  C   UNL     1       6.517   4.609  14.813  0.00  0.00    +0.000 A 
ATOM     14  C   UNL     1       5.340   3.918  15.123  0.00  0.00    +0.000 A 
ATOM     15  C   UNL     1       4.747   4.055  16.381  0.00  0.00    +0.000 A 
ATOM     16  C   UNL     1       5.319   4.883  17.357  0.00  0.00    +0.000 A 
ATOM     17  C   UNL     1       6.499   5.571  17.046  0.00  0.00    +0.000 A 
ATOM     18  C   UNL     1       7.090   5.436  15.786  0.00  0.00    +0.000 A 
ENDBRANCH  11  16
ENDBRANCH   7  11
ENDBRANCH   1   8
BRANCH   4  19
ATOM     19  S   UNL     1      -0.161  11.541  19.468  0.00  0.00    +0.000 S 
ATOM     20  O   UNL     1      -0.053  12.392  18.303  0.00  0.00    +0.000 OA
ATOM     21  O   UNL     1      -1.393  10.852  19.780  0.00  0.00    +0.000 OA
BRANCH  19  22
ATOM     22  C   UNL     1       0.149  12.593  20.782  0.00  0.00    +0.000 A 
ATOM     23  C   UNL     1       1.339  13.350  20.911  0.00  0.00    +0.000 A 
ATOM     24  C   UNL     1       2.525  13.456  20.028  0.00  0.00    +0.000 C 
ATOM     25  N   UNL     1       1.323  14.061  22.039  0.00  0.00    +0.000 NA
ATOM     26  O   UNL     1       0.116  13.800  22.631  0.00  0.00    +0.000 OA
ATOM     27  C   UNL     1      -0.638  12.913  21.883  0.00  0.00    +0.000 A 
BRANCH  27  28
ATOM     28  C   UNL     1      -1.941  12.511  22.310  0.00  0.00    +0.000 C 
ATOM     29  C   UNL     1      -2.930  13.422  22.416  0.00  0.00    +0.000 C 
BRANCH  29  30
ATOM     30  C   UNL     1      -4.246  13.101  22.865  0.00  0.00    +0.000 A 
ATOM     31  C   UNL     1      -4.754  12.885  24.137  0.00  0.00    +0.000 A 
ATOM     32  C   UNL     1      -6.161  12.644  24.151  0.00  0.00    +0.000 A 
ATOM     33  C   UNL     1      -6.696  12.649  22.886  0.00  0.00    +0.000 A 
ATOM     34  S   UNL     1      -5.508  12.930  21.694  0.00  0.00    +0.000 S 
ENDBRANCH  29  30
ENDBRANCH  27  28
ENDBRANCH  19  22
ENDBRANCH   4  19
TORSDOF 7
ENDMDL
MODEL 9
REMARK VINA RESULT:      -7.8      4.093      5.502
REMARK  Name = 
REMARK  9 active torsions:
REMARK  status: ('A' for Active; 'I' for Inactive)
REMARK    1  A    between atoms: C_1  and  C_2
REMARK    2  A    between atoms: C_5  and  C_6
REMARK    3  A    between atoms: C_6  and  N_7
REMARK    4  A    between atoms: C_8  and  C_10
REMARK    5  A    between atoms: N_13  and  S_14
REMARK    6  A    between atoms: S_14  and  C_17
REMARK    7  A    between atoms: C_18  and  C_19
REMARK    8  A    between atoms: C_22  and  C_23
REMARK    9  A    between atoms: C_24  and  C_25
REMARK                            x       y       z     vdW  Elec       q    Type
REMARK                         _______ _______ _______ _____ _____    ______ ____
ROOT
ATOM      1  C   UNL     1       1.557   9.572  19.392  0.00  0.00    +0.000 C 
ATOM      2  C   UNL     1       0.901   8.667  20.427  0.00  0.00    +0.000 C 
ATOM      3  C   UNL     1       1.776   7.437  20.623  0.00  0.00    +0.000 C 
ATOM      4  N   UNL     1       2.041   6.712  19.338  0.00  0.00    +0.000 NA
ATOM      5  C   UNL     1       2.420   7.591  18.177  0.00  0.00    +0.000 C 
ATOM      6  C   UNL     1       1.529   8.829  18.063  0.00  0.00    +0.000 C 
ENDROOT
BRANCH   1   8
ATOM      7  N   UNL     1      -0.410  11.031  19.364  0.00  0.00    +0.000 N 
ATOM      8  C   UNL     1       0.957  10.966  19.356  0.00  0.00    +0.000 C 
ATOM      9  O   UNL     1       1.682  11.960  19.344  0.00  0.00    +0.000 OA
ATOM     10  H   UNL     1      -0.961  10.187  19.379  0.00  0.00    +0.000 HD
BRANCH   7  11
ATOM     11  C   UNL     1      -1.116  12.295  19.453  0.00  0.00    +0.000 C 
BRANCH  11  16
ATOM     12  C   UNL     1      -4.183  12.570  24.408  0.00  0.00    +0.000 C 
ATOM     13  C   UNL     1      -3.395  12.525  23.132  0.00  0.00    +0.000 A 
ATOM     14  C   UNL     1      -3.990  12.838  21.905  0.00  0.00    +0.000 A 
ATOM     15  C   UNL     1      -3.251  12.773  20.721  0.00  0.00    +0.000 A 
ATOM     16  C   UNL     1      -1.900  12.399  20.738  0.00  0.00    +0.000 A 
ATOM     17  C   UNL     1      -1.305  12.089  21.969  0.00  0.00    +0.000 A 
ATOM     18  C   UNL     1      -2.047  12.150  23.152  0.00  0.00    +0.000 A 
ENDBRANCH  11  16
ENDBRANCH   7  11
ENDBRANCH   1   8
BRANCH   4  19
ATOM     19  S   UNL     1       3.201   5.430  19.560  0.00  0.00    +0.000 S 
ATOM     20  O   UNL     1       4.413   5.790  18.858  0.00  0.00    +0.000 OA
ATOM     21  O   UNL     1       3.222   5.094  20.965  0.00  0.00    +0.000 OA
BRANCH  19  22
ATOM     22  C   UNL     1       2.642   4.037  18.739  0.00  0.00    +0.000 A 
ATOM     23  C   UNL     1       1.731   3.111  19.304  0.00  0.00    +0.000 A 
ATOM     24  C   UNL     1       1.053   3.096  20.621  0.00  0.00    +0.000 C 
ATOM     25  N   UNL     1       1.489   2.111  18.455  0.00  0.00    +0.000 NA
ATOM     26  O   UNL     1       2.210   2.396  17.325  0.00  0.00    +0.000 OA
ATOM     27  C   UNL     1       2.921   3.575  17.456  0.00  0.00    +0.000 A 
BRANCH  27  28
ATOM     28  C   UNL     1       3.733   4.069  16.389  0.00  0.00    +0.000 C 
ATOM     29  C   UNL     1       4.934   3.510  16.138  0.00  0.00    +0.000 C 
BRANCH  29  30
ATOM     30  C   UNL     1       5.812   3.969  15.110  0.00  0.00    +0.000 A 
ATOM     31  C   UNL     1       5.861   3.688  13.753  0.00  0.00    +0.000 A 
ATOM     32  C   UNL     1       6.877   4.414  13.061  0.00  0.00    +0.000 A 
ATOM     33  C   UNL     1       7.606   5.212  13.909  0.00  0.00    +0.000 A 
ATOM     34  S   UNL     1       7.077   5.075  15.524  0.00  0.00    +0.000 S 
ENDBRANCH  29  30
ENDBRANCH  27  28
ENDBRANCH  19  22
ENDBRANCH   4  19
TORSDOF 7
ENDMDL
