MODEL 1
REMARK VINA RESULT:      -8.7      0.000      0.000
REMARK  Name = 
REMARK  5 active torsions:
REMARK  status: ('A' for Active; 'I' for Inactive)
REMARK    1  A    between atoms: C_1  and  C_2
REMARK    2  A    between atoms: C_3  and  C_4
REMARK    3  A    between atoms: C_4  and  C_6
REMARK    4  A    between atoms: C_12  and  C_13
REMARK    5  A    between atoms: C_17  and  O_18
REMARK                            x       y       z     vdW  Elec       q    Type
REMARK                         _______ _______ _______ _____ _____    ______ ____
ROOT
ATOM      1  C   UNL     1       7.985   7.847  17.004  0.00  0.00    +0.000 C 
ATOM      2  C   UNL     1       7.363   6.604  17.589  0.00  0.00    +0.000 C 
ATOM      3  C   UNL     1       6.441   5.765  17.049  0.00  0.00    +0.000 C 
ATOM      4  C   UNL     1       5.941   4.581  17.855  0.00  0.00    +0.000 C 
ATOM      5  N   UNL     1       6.361   4.636  19.240  0.00  0.00    +0.000 N 
ATOM      6  C   UNL     1       7.386   5.381  19.697  0.00  0.00    +0.000 C 
ATOM      7  O   UNL     1       7.848   5.224  20.822  0.00  0.00    +0.000 OA
ATOM      8  N   UNL     1       7.844   6.337  18.853  0.00  0.00    +0.000 N 
ATOM      9  H   UNL     1       6.053   3.912  19.873  0.00  0.00    +0.000 HD
ATOM     10  H   UNL     1       8.557   6.935  19.258  0.00  0.00    +0.000 HD
ENDROOT
BRANCH   4  11
ATOM     11  C   UNL     1       4.448   4.303  17.873  0.00  0.00    +0.000 A 
ATOM     12  C   UNL     1       3.492   5.322  17.994  0.00  0.00    +0.000 A 
ATOM     13  C   UNL     1       2.138   5.010  18.150  0.00  0.00    +0.000 A 
ATOM     14  C   UNL     1       1.727   3.680  18.228  0.00  0.00    +0.000 A 
ATOM     15  C   UNL     1       2.671   2.667  18.121  0.00  0.00    +0.000 A 
ATOM     16  C   UNL     1       4.014   2.965  17.923  0.00  0.00    +0.000 A 
BRANCH  15  17
ATOM     17  O   UNL     1       2.328   1.354  18.249  0.00  0.00    +0.000 OA
ATOM     18  H   UNL     1       3.143   0.832  18.325  0.00  0.00    +0.000 HD
ENDBRANCH  15  17
ENDBRANCH   4  11
BRANCH   3  19
ATOM     19  C   UNL     1       5.883   6.041  15.675  0.00  0.00    +0.000 C 
ATOM     20  O   UNL     1       5.098   6.975  15.500  0.00  0.00    +0.000 OA
BRANCH  19  21
ATOM     21  C   UNL     1       6.160   5.170  14.487  0.00  0.00    +0.000 A 
ATOM     22  C   UNL     1       7.349   5.420  13.776  0.00  0.00    +0.000 A 
ATOM     23  C   UNL     1       7.678   4.681  12.636  0.00  0.00    +0.000 A 
ATOM     24  C   UNL     1       6.815   3.691  12.182  0.00  0.00    +0.000 A 
ATOM     25  C   UNL     1       5.649   3.411  12.890  0.00  0.00    +0.000 A 
ATOM     26  C   UNL     1       5.342   4.120  14.059  0.00  0.00    +0.000 A 
ENDBRANCH  19  21
ENDBRANCH   3  19
TORSDOF 4
ENDMDL
MODEL 2
REMARK VINA RESULT:      -8.6      2.586      6.209
REMARK  Name = 
REMARK  5 active torsions:
REMARK  status: ('A' for Active; 'I' for Inactive)
REMARK    1  A    between atoms: C_1  and  C_2
REMARK    2  A    between atoms: C_3  and  C_4
REMARK    3  A    between atoms: C_4  and  C_6
REMARK    4  A    between atoms: C_12  and  C_13
REMARK    5  A    between atoms: C_17  and  O_18
REMARK                            x       y       z     vdW  Elec       q    Type
REMARK                         _______ _______ _______ _____ _____    ______ ____
ROOT
ATOM      1  C   UNL     1       1.074   2.778  20.090  0.00  0.00    +0.000 C 
ATOM      2  C   UNL     1       2.525   3.137  19.892  0.00  0.00    +0.000 C 
ATOM      3  C   UNL     1       3.072   4.155  19.178  0.00  0.00    +0.000 C 
ATOM      4  C   UNL     1       4.581   4.294  19.105  0.00  0.00    +0.000 C 
ATOM      5  N   UNL     1       5.271   3.139  19.641  0.00  0.00    +0.000 N 
ATOM      6  C   UNL     1       4.715   2.235  20.470  0.00  0.00    +0.000 C 
ATOM      7  O   UNL     1       5.391   1.411  21.075  0.00  0.00    +0.000 OA
ATOM      8  N   UNL     1       3.362   2.269  20.560  0.00  0.00    +0.000 N 
ATOM      9  H   UNL     1       6.280   3.115  19.609  0.00  0.00    +0.000 HD
ATOM     10  H   UNL     1       2.970   1.522  21.124  0.00  0.00    +0.000 HD
ENDROOT
BRANCH   4  11
ATOM     11  C   UNL     1       5.212   4.579  17.754  0.00  0.00    +0.000 A 
ATOM     12  C   UNL     1       5.068   3.716  16.657  0.00  0.00    +0.000 A 
ATOM     13  C   UNL     1       5.782   3.943  15.477  0.00  0.00    +0.000 A 
ATOM     14  C   UNL     1       6.678   5.009  15.390  0.00  0.00    +0.000 A 
ATOM     15  C   UNL     1       6.833   5.859  16.478  0.00  0.00    +0.000 A 
ATOM     16  C   UNL     1       6.096   5.668  17.640  0.00  0.00    +0.000 A 
BRANCH  15  17
ATOM     17  O   UNL     1       7.737   6.879  16.463  0.00  0.00    +0.000 OA
ATOM     18  H   UNL     1       7.675   7.329  15.605  0.00  0.00    +0.000 HD
ENDBRANCH  15  17
ENDBRANCH   4  11
BRANCH   3  19
ATOM     19  C   UNL     1       2.182   5.110  18.422  0.00  0.00    +0.000 C 
ATOM     20  O   UNL     1       1.598   4.738  17.403  0.00  0.00    +0.000 OA
BRANCH  19  21
ATOM     21  C   UNL     1       2.028   6.554  18.792  0.00  0.00    +0.000 A 
ATOM     22  C   UNL     1       1.756   6.841  20.143  0.00  0.00    +0.000 A 
ATOM     23  C   UNL     1       1.564   8.155  20.578  0.00  0.00    +0.000 A 
ATOM     24  C   UNL     1       1.626   9.201  19.666  0.00  0.00    +0.000 A 
ATOM     25  C   UNL     1       1.924   8.938  18.331  0.00  0.00    +0.000 A 
ATOM     26  C   UNL     1       2.161   7.625  17.903  0.00  0.00    +0.000 A 
ENDBRANCH  19  21
ENDBRANCH   3  19
TORSDOF 4
ENDMDL
MODEL 3
REMARK VINA RESULT:      -8.5      0.135      1.010
REMARK  Name = 
REMARK  5 active torsions:
REMARK  status: ('A' for Active; 'I' for Inactive)
REMARK    1  A    between atoms: C_1  and  C_2
REMARK    2  A    between atoms: C_3  and  C_4
REMARK    3  A    between atoms: C_4  and  C_6
REMARK    4  A    between atoms: C_12  and  C_13
REMARK    5  A    between atoms: C_17  and  O_18
REMARK                            x       y       z     vdW  Elec       q    Type
REMARK                         _______ _______ _______ _____ _____    ______ ____
ROOT
ATOM      1  C   UNL     1       8.017   7.847  17.060  0.00  0.00    +0.000 C 
ATOM      2  C   UNL     1       7.382   6.608  17.639  0.00  0.00    +0.000 C 
ATOM      3  C   UNL     1       6.442   5.788  17.099  0.00  0.00    +0.000 C 
ATOM      4  C   UNL     1       5.933   4.604  17.899  0.00  0.00    +0.000 C 
ATOM      5  N   UNL     1       6.365   4.640  19.280  0.00  0.00    +0.000 N 
ATOM      6  C   UNL     1       7.405   5.365  19.735  0.00  0.00    +0.000 C 
ATOM      7  O   UNL     1       7.874   5.191  20.854  0.00  0.00    +0.000 OA
ATOM      8  N   UNL     1       7.870   6.323  18.896  0.00  0.00    +0.000 N 
ATOM      9  H   UNL     1       6.051   3.914  19.909  0.00  0.00    +0.000 HD
ATOM     10  H   UNL     1       8.594   6.907  19.301  0.00  0.00    +0.000 HD
ENDROOT
BRANCH   4  11
ATOM     11  C   UNL     1       4.436   4.348  17.927  0.00  0.00    +0.000 A 
ATOM     12  C   UNL     1       3.500   5.366  18.162  0.00  0.00    +0.000 A 
ATOM     13  C   UNL     1       2.145   5.061  18.321  0.00  0.00    +0.000 A 
ATOM     14  C   UNL     1       1.713   3.736  18.289  0.00  0.00    +0.000 A 
ATOM     15  C   UNL     1       2.638   2.722  18.070  0.00  0.00    +0.000 A 
ATOM     16  C   UNL     1       3.980   3.017  17.867  0.00  0.00    +0.000 A 
BRANCH  15  17
ATOM     17  O   UNL     1       2.275   1.408  18.088  0.00  0.00    +0.000 OA
ATOM     18  H   UNL     1       2.966   0.907  18.551  0.00  0.00    +0.000 HD
ENDBRANCH  15  17
ENDBRANCH   4  11
BRANCH   3  19
ATOM     19  C   UNL     1       5.877   6.085  15.732  0.00  0.00    +0.000 C 
ATOM     20  O   UNL     1       5.063   6.997  15.583  0.00  0.00    +0.000 OA
BRANCH  19  21
ATOM     21  C   UNL     1       6.183   5.257  14.521  0.00  0.00    +0.000 A 
ATOM     22  C   UNL     1       5.221   4.302  14.142  0.00  0.00    +0.000 A 
ATOM     23  C   UNL     1       5.431   3.460  13.046  0.00  0.00    +0.000 A 
ATOM     24  C   UNL     1       6.613   3.552  12.321  0.00  0.00    +0.000 A 
ATOM     25  C   UNL     1       7.563   4.512  12.665  0.00  0.00    +0.000 A 
ATOM     26  C   UNL     1       7.332   5.386  13.735  0.00  0.00    +0.000 A 
ENDBRANCH  19  21
ENDBRANCH   3  19
TORSDOF 4
ENDMDL
MODEL 4
REMARK VINA RESULT:      -8.4      2.626      6.245
REMARK  Name = 
REMARK  5 active torsions:
REMARK  status: ('A' for Active; 'I' for Inactive)
REMARK    1  A    between atoms: C_1  and  C_2
REMARK    2  A    between atoms: C_3  and  C_4
REMARK    3  A    between atoms: C_4  and  C_6
REMARK    4  A    between atoms: C_12  and  C_13
REMARK    5  A    between atoms: C_17  and  O_18
REMARK                            x       y       z     vdW  Elec       q    Type
REMARK                         _______ _______ _______ _____ _____    ______ ____
ROOT
ATOM      1  C   UNL     1       1.100   2.824  20.231  0.00  0.00    +0.000 C 
ATOM      2  C   UNL     1       2.548   3.153  19.975  0.00  0.00    +0.000 C 
ATOM      3  C   UNL     1       3.088   4.173  19.257  0.00  0.00    +0.000 C 
ATOM      4  C   UNL     1       4.594   4.279  19.119  0.00  0.00    +0.000 C 
ATOM      5  N   UNL     1       5.279   3.097  19.599  0.00  0.00    +0.000 N 
ATOM      6  C   UNL     1       4.740   2.189  20.435  0.00  0.00    +0.000 C 
ATOM      7  O   UNL     1       5.422   1.337  20.992  0.00  0.00    +0.000 OA
ATOM      8  N   UNL     1       3.394   2.253  20.587  0.00  0.00    +0.000 N 
ATOM      9  H   UNL     1       6.286   3.050  19.521  0.00  0.00    +0.000 HD
ATOM     10  H   UNL     1       3.009   1.504  21.153  0.00  0.00    +0.000 HD
ENDROOT
BRANCH   4  11
ATOM     11  C   UNL     1       5.170   4.577  17.746  0.00  0.00    +0.000 A 
ATOM     12  C   UNL     1       4.939   3.753  16.635  0.00  0.00    +0.000 A 
ATOM     13  C   UNL     1       5.604   3.986  15.427  0.00  0.00    +0.000 A 
ATOM     14  C   UNL     1       6.537   5.017  15.325  0.00  0.00    +0.000 A 
ATOM     15  C   UNL     1       6.780   5.829  16.426  0.00  0.00    +0.000 A 
ATOM     16  C   UNL     1       6.093   5.633  17.618  0.00  0.00    +0.000 A 
BRANCH  15  17
ATOM     17  O   UNL     1       7.723   6.812  16.395  0.00  0.00    +0.000 OA
ATOM     18  H   UNL     1       8.435   6.532  15.796  0.00  0.00    +0.000 HD
ENDBRANCH  15  17
ENDBRANCH   4  11
BRANCH   3  19
ATOM     19  C   UNL     1       2.187   5.164  18.561  0.00  0.00    +0.000 C 
ATOM     20  O   UNL     1       1.676   4.882  17.477  0.00  0.00    +0.000 OA
BRANCH  19  21
ATOM     21  C   UNL     1       1.939   6.549  19.078  0.00  0.00    +0.000 A 
ATOM     22  C   UNL     1       2.013   7.600  18.145  0.00  0.00    +0.000 A 
ATOM     23  C   UNL     1       1.828   8.929  18.537  0.00  0.00    +0.000 A 
ATOM     24  C   UNL     1       1.583   9.228  19.872  0.00  0.00    +0.000 A 
ATOM     25  C   UNL     1       1.477   8.197  20.803  0.00  0.00    +0.000 A 
ATOM     26  C   UNL     1       1.616   6.862  20.402  0.00  0.00    +0.000 A 
ENDBRANCH  19  21
ENDBRANCH   3  19
TORSDOF 4
ENDMDL
MODEL 5
REMARK VINA RESULT:      -8.4      1.062      1.335
REMARK  Name = 
REMARK  5 active torsions:
REMARK  status: ('A' for Active; 'I' for Inactive)
REMARK    1  A    between atoms: C_1  and  C_2
REMARK    2  A    between atoms: C_3  and  C_4
REMARK    3  A    between atoms: C_4  and  C_6
REMARK    4  A    between atoms: C_12  and  C_13
REMARK    5  A    between atoms: C_17  and  O_18
REMARK                            x       y       z     vdW  Elec       q    Type
REMARK                         _______ _______ _______ _____ _____    ______ ____
ROOT
ATOM      1  C   UNL     1       7.837   7.894  17.107  0.00  0.00    +0.000 C 
ATOM      2  C   UNL     1       7.330   6.621  17.736  0.00  0.00    +0.000 C 
ATOM      3  C   UNL     1       6.420   5.728  17.265  0.00  0.00    +0.000 C 
ATOM      4  C   UNL     1       6.048   4.522  18.106  0.00  0.00    +0.000 C 
ATOM      5  N   UNL     1       6.561   4.608  19.457  0.00  0.00    +0.000 N 
ATOM      6  C   UNL     1       7.571   5.412  19.840  0.00  0.00    +0.000 C 
ATOM      7  O   UNL     1       8.120   5.288  20.929  0.00  0.00    +0.000 OA
ATOM      8  N   UNL     1       7.913   6.388  18.964  0.00  0.00    +0.000 N 
ATOM      9  H   UNL     1       6.340   3.871  20.111  0.00  0.00    +0.000 HD
ATOM     10  H   UNL     1       8.618   7.028  19.317  0.00  0.00    +0.000 HD
ENDROOT
BRANCH   4  11
ATOM     11  C   UNL     1       4.578   4.159  18.230  0.00  0.00    +0.000 A 
ATOM     12  C   UNL     1       3.932   3.305  17.324  0.00  0.00    +0.000 A 
ATOM     13  C   UNL     1       2.549   3.113  17.392  0.00  0.00    +0.000 A 
ATOM     14  C   UNL     1       1.788   3.801  18.337  0.00  0.00    +0.000 A 
ATOM     15  C   UNL     1       2.421   4.659  19.228  0.00  0.00    +0.000 A 
ATOM     16  C   UNL     1       3.801   4.824  19.198  0.00  0.00    +0.000 A 
BRANCH  15  17
ATOM     17  O   UNL     1       1.717   5.397  20.131  0.00  0.00    +0.000 OA
ATOM     18  H   UNL     1       1.449   6.227  19.704  0.00  0.00    +0.000 HD
ENDBRANCH  15  17
ENDBRANCH   4  11
BRANCH   3  19
ATOM     19  C   UNL     1       5.752   5.964  15.933  0.00  0.00    +0.000 C 
ATOM     20  O   UNL     1       4.827   6.772  15.839  0.00  0.00    +0.000 OA
BRANCH  19  21
ATOM     21  C   UNL     1       6.091   5.188  14.696  0.00  0.00    +0.000 A 
ATOM     22  C   UNL     1       7.320   5.482  14.076  0.00  0.00    +0.000 A 
ATOM     23  C   UNL     1       7.709   4.835  12.900  0.00  0.00    +0.000 A 
ATOM     24  C   UNL     1       6.868   3.894  12.319  0.00  0.00    +0.000 A 
ATOM     25  C   UNL     1       5.662   3.570  12.936  0.00  0.00    +0.000 A 
ATOM     26  C   UNL     1       5.293   4.185  14.139  0.00  0.00    +0.000 A 
ENDBRANCH  19  21
ENDBRANCH   3  19
TORSDOF 4
ENDMDL
MODEL 6
REMARK VINA RESULT:      -8.2      1.081      1.687
REMARK  Name = 
REMARK  5 active torsions:
REMARK  status: ('A' for Active; 'I' for Inactive)
REMARK    1  A    between atoms: C_1  and  C_2
REMARK    2  A    between atoms: C_3  and  C_4
REMARK    3  A    between atoms: C_4  and  C_6
REMARK    4  A    between atoms: C_12  and  C_13
REMARK    5  A    between atoms: C_17  and  O_18
REMARK                            x       y       z     vdW  Elec       q    Type
REMARK                         _______ _______ _______ _____ _____    ______ ____
ROOT
ATOM      1  C   UNL     1       7.838   7.915  17.122  0.00  0.00    +0.000 C 
ATOM      2  C   UNL     1       7.335   6.640  17.751  0.00  0.00    +0.000 C 
ATOM      3  C   UNL     1       6.419   5.751  17.285  0.00  0.00    +0.000 C 
ATOM      4  C   UNL     1       6.053   4.542  18.124  0.00  0.00    +0.000 C 
ATOM      5  N   UNL     1       6.581   4.621  19.470  0.00  0.00    +0.000 N 
ATOM      6  C   UNL     1       7.597   5.421  19.845  0.00  0.00    +0.000 C 
ATOM      7  O   UNL     1       8.157   5.290  20.928  0.00  0.00    +0.000 OA
ATOM      8  N   UNL     1       7.932   6.401  18.970  0.00  0.00    +0.000 N 
ATOM      9  H   UNL     1       6.366   3.880  20.123  0.00  0.00    +0.000 HD
ATOM     10  H   UNL     1       8.641   7.037  19.319  0.00  0.00    +0.000 HD
ENDROOT
BRANCH   4  11
ATOM     11  C   UNL     1       4.584   4.182  18.263  0.00  0.00    +0.000 A 
ATOM     12  C   UNL     1       3.940   3.291  17.391  0.00  0.00    +0.000 A 
ATOM     13  C   UNL     1       2.557   3.100  17.467  0.00  0.00    +0.000 A 
ATOM     14  C   UNL     1       1.795   3.823  18.384  0.00  0.00    +0.000 A 
ATOM     15  C   UNL     1       2.426   4.716  19.241  0.00  0.00    +0.000 A 
ATOM     16  C   UNL     1       3.805   4.882  19.204  0.00  0.00    +0.000 A 
BRANCH  15  17
ATOM     17  O   UNL     1       1.720   5.488  20.114  0.00  0.00    +0.000 OA
ATOM     18  H   UNL     1       1.953   5.217  21.018  0.00  0.00    +0.000 HD
ENDBRANCH  15  17
ENDBRANCH   4  11
BRANCH   3  19
ATOM     19  C   UNL     1       5.736   5.995  15.962  0.00  0.00    +0.000 C 
ATOM     20  O   UNL     1       4.799   6.791  15.886  0.00  0.00    +0.000 OA
BRANCH  19  21
ATOM     21  C   UNL     1       6.076   5.241  14.712  0.00  0.00    +0.000 A 
ATOM     22  C   UNL     1       5.086   4.385  14.194  0.00  0.00    +0.000 A 
ATOM     23  C   UNL     1       5.322   3.616  13.051  0.00  0.00    +0.000 A 
ATOM     24  C   UNL     1       6.557   3.680  12.418  0.00  0.00    +0.000 A 
ATOM     25  C   UNL     1       7.538   4.544  12.900  0.00  0.00    +0.000 A 
ATOM     26  C   UNL     1       7.285   5.349  14.018  0.00  0.00    +0.000 A 
ENDBRANCH  19  21
ENDBRANCH   3  19
TORSDOF 4
ENDMDL
MODEL 7
REMARK VINA RESULT:      -8.1      2.751      5.628
REMARK  Name = 
REMARK  5 active torsions:
REMARK  status: ('A' for Active; 'I' for Inactive)
REMARK    1  A    between atoms: C_1  and  C_2
REMARK    2  A    between atoms: C_3  and  C_4
REMARK    3  A    between atoms: C_4  and  C_6
REMARK    4  A    between atoms: C_12  and  C_13
REMARK    5  A    between atoms: C_17  and  O_18
REMARK                            x       y       z     vdW  Elec       q    Type
REMARK                         _______ _______ _______ _____ _____    ______ ____
ROOT
ATOM      1  C   UNL     1       5.398   3.206  15.451  0.00  0.00    +0.000 C 
ATOM      2  C   UNL     1       5.388   4.364  16.417  0.00  0.00    +0.000 C 
ATOM      3  C   UNL     1       4.471   4.688  17.366  0.00  0.00    +0.000 C 
ATOM      4  C   UNL     1       4.669   5.935  18.205  0.00  0.00    +0.000 C 
ATOM      5  N   UNL     1       5.737   6.776  17.706  0.00  0.00    +0.000 N 
ATOM      6  C   UNL     1       6.711   6.359  16.875  0.00  0.00    +0.000 C 
ATOM      7  O   UNL     1       7.712   7.034  16.663  0.00  0.00    +0.000 OA
ATOM      8  N   UNL     1       6.496   5.169  16.262  0.00  0.00    +0.000 N 
ATOM      9  H   UNL     1       5.929   7.651  18.174  0.00  0.00    +0.000 HD
ATOM     10  H   UNL     1       7.206   4.925  15.580  0.00  0.00    +0.000 HD
ENDROOT
BRANCH   4  11
ATOM     11  C   UNL     1       3.476   6.847  18.428  0.00  0.00    +0.000 A 
ATOM     12  C   UNL     1       3.056   7.788  17.476  0.00  0.00    +0.000 A 
ATOM     13  C   UNL     1       2.045   8.703  17.780  0.00  0.00    +0.000 A 
ATOM     14  C   UNL     1       1.468   8.720  19.050  0.00  0.00    +0.000 A 
ATOM     15  C   UNL     1       1.889   7.799  20.001  0.00  0.00    +0.000 A 
ATOM     16  C   UNL     1       2.863   6.856  19.696  0.00  0.00    +0.000 A 
BRANCH  15  17
ATOM     17  O   UNL     1       1.398   7.811  21.273  0.00  0.00    +0.000 OA
ATOM     18  H   UNL     1       1.796   8.561  21.746  0.00  0.00    +0.000 HD
ENDBRANCH  15  17
ENDBRANCH   4  11
BRANCH   3  19
ATOM     19  C   UNL     1       3.239   3.835  17.547  0.00  0.00    +0.000 C 
ATOM     20  O   UNL     1       2.569   3.499  16.569  0.00  0.00    +0.000 OA
BRANCH  19  21
ATOM     21  C   UNL     1       2.711   3.432  18.890  0.00  0.00    +0.000 A 
ATOM     22  C   UNL     1       1.331   3.602  19.110  0.00  0.00    +0.000 A 
ATOM     23  C   UNL     1       0.751   3.285  20.342  0.00  0.00    +0.000 A 
ATOM     24  C   UNL     1       1.545   2.809  21.377  0.00  0.00    +0.000 A 
ATOM     25  C   UNL     1       2.908   2.607  21.167  0.00  0.00    +0.000 A 
ATOM     26  C   UNL     1       3.481   2.880  19.919  0.00  0.00    +0.000 A 
ENDBRANCH  19  21
ENDBRANCH   3  19
TORSDOF 4
ENDMDL
MODEL 8
REMARK VINA RESULT:      -8.0      2.610      5.024
REMARK  Name = 
REMARK  5 active torsions:
REMARK  status: ('A' for Active; 'I' for Inactive)
REMARK    1  A    between atoms: C_1  and  C_2
REMARK    2  A    between atoms: C_3  and  C_4
REMARK    3  A    between atoms: C_4  and  C_6
REMARK    4  A    between atoms: C_12  and  C_13
REMARK    5  A    between atoms: C_17  and  O_18
REMARK                            x       y       z     vdW  Elec       q    Type
REMARK                         _______ _______ _______ _____ _____    ______ ____
ROOT
ATOM      1  C   UNL     1       4.586   1.244  19.208  0.00  0.00    +0.000 C 
ATOM      2  C   UNL     1       3.527   2.251  18.834  0.00  0.00    +0.000 C 
ATOM      3  C   UNL     1       3.666   3.545  18.443  0.00  0.00    +0.000 C 
ATOM      4  C   UNL     1       2.433   4.375  18.144  0.00  0.00    +0.000 C 
ATOM      5  N   UNL     1       1.209   3.718  18.554  0.00  0.00    +0.000 N 
ATOM      6  C   UNL     1       1.094   2.396  18.787  0.00  0.00    +0.000 C 
ATOM      7  O   UNL     1       0.002   1.854  18.907  0.00  0.00    +0.000 OA
ATOM      8  N   UNL     1       2.259   1.716  18.920  0.00  0.00    +0.000 N 
ATOM      9  H   UNL     1       0.331   4.201  18.431  0.00  0.00    +0.000 HD
ATOM     10  H   UNL     1       2.139   0.743  19.180  0.00  0.00    +0.000 HD
ENDROOT
BRANCH   4  11
ATOM     11  C   UNL     1       2.365   5.787  18.699  0.00  0.00    +0.000 A 
ATOM     12  C   UNL     1       2.091   6.055  20.048  0.00  0.00    +0.000 A 
ATOM     13  C   UNL     1       1.897   7.369  20.485  0.00  0.00    +0.000 A 
ATOM     14  C   UNL     1       1.933   8.426  19.576  0.00  0.00    +0.000 A 
ATOM     15  C   UNL     1       2.192   8.165  18.236  0.00  0.00    +0.000 A 
ATOM     16  C   UNL     1       2.429   6.868  17.799  0.00  0.00    +0.000 A 
BRANCH  15  17
ATOM     17  O   UNL     1       2.180   9.155  17.300  0.00  0.00    +0.000 OA
ATOM     18  H   UNL     1       2.193   8.743  16.421  0.00  0.00    +0.000 HD
ENDBRANCH  15  17
ENDBRANCH   4  11
BRANCH   3  19
ATOM     19  C   UNL     1       5.040   4.163  18.357  0.00  0.00    +0.000 C 
ATOM     20  O   UNL     1       5.612   4.547  19.377  0.00  0.00    +0.000 OA
BRANCH  19  21
ATOM     21  C   UNL     1       5.738   4.430  17.058  0.00  0.00    +0.000 A 
ATOM     22  C   UNL     1       4.995   4.226  15.880  0.00  0.00    +0.000 A 
ATOM     23  C   UNL     1       5.569   4.417  14.620  0.00  0.00    +0.000 A 
ATOM     24  C   UNL     1       6.901   4.801  14.519  0.00  0.00    +0.000 A 
ATOM     25  C   UNL     1       7.642   5.036  15.675  0.00  0.00    +0.000 A 
ATOM     26  C   UNL     1       7.054   4.889  16.937  0.00  0.00    +0.000 A 
ENDBRANCH  19  21
ENDBRANCH   3  19
TORSDOF 4
ENDMDL
MODEL 9
REMARK VINA RESULT:      -8.0      2.634      6.061
REMARK  Name = 
REMARK  5 active torsions:
REMARK  status: ('A' for Active; 'I' for Inactive)
REMARK    1  A    between atoms: C_1  and  C_2
REMARK    2  A    between atoms: C_3  and  C_4
REMARK    3  A    between atoms: C_4  and  C_6
REMARK    4  A    between atoms: C_12  and  C_13
REMARK    5  A    between atoms: C_17  and  O_18
REMARK                            x       y       z     vdW  Elec       q    Type
REMARK                         _______ _______ _______ _____ _____    ______ ____
ROOT
ATOM      1  C   UNL     1       1.021   2.604  19.825  0.00  0.00    +0.000 C 
ATOM      2  C   UNL     1       2.453   3.051  19.676  0.00  0.00    +0.000 C 
ATOM      3  C   UNL     1       2.953   4.159  19.068  0.00  0.00    +0.000 C 
ATOM      4  C   UNL     1       4.452   4.378  19.023  0.00  0.00    +0.000 C 
ATOM      5  N   UNL     1       5.197   3.212  19.451  0.00  0.00    +0.000 N 
ATOM      6  C   UNL     1       4.683   2.206  20.185  0.00  0.00    +0.000 C 
ATOM      7  O   UNL     1       5.396   1.362  20.714  0.00  0.00    +0.000 OA
ATOM      8  N   UNL     1       3.330   2.165  20.265  0.00  0.00    +0.000 N 
ATOM      9  H   UNL     1       6.206   3.241  19.426  0.00  0.00    +0.000 HD
ATOM     10  H   UNL     1       2.972   1.350  20.752  0.00  0.00    +0.000 HD
ENDROOT
BRANCH   4  11
ATOM     11  C   UNL     1       5.074   4.822  17.710  0.00  0.00    +0.000 A 
ATOM     12  C   UNL     1       5.162   6.171  17.335  0.00  0.00    +0.000 A 
ATOM     13  C   UNL     1       5.610   6.525  16.059  0.00  0.00    +0.000 A 
ATOM     14  C   UNL     1       5.936   5.539  15.128  0.00  0.00    +0.000 A 
ATOM     15  C   UNL     1       5.839   4.201  15.491  0.00  0.00    +0.000 A 
ATOM     16  C   UNL     1       5.437   3.839  16.770  0.00  0.00    +0.000 A 
BRANCH  15  17
ATOM     17  O   UNL     1       6.091   3.200  14.601  0.00  0.00    +0.000 OA
ATOM     18  H   UNL     1       6.825   3.478  14.028  0.00  0.00    +0.000 HD
ENDBRANCH  15  17
ENDBRANCH   4  11
BRANCH   3  19
ATOM     19  C   UNL     1       2.019   5.138  18.399  0.00  0.00    +0.000 C 
ATOM     20  O   UNL     1       1.380   4.802  17.401  0.00  0.00    +0.000 OA
BRANCH  19  21
ATOM     21  C   UNL     1       1.881   6.566  18.832  0.00  0.00    +0.000 A 
ATOM     22  C   UNL     1       1.724   6.803  20.210  0.00  0.00    +0.000 A 
ATOM     23  C   UNL     1       1.556   8.098  20.706  0.00  0.00    +0.000 A 
ATOM     24  C   UNL     1       1.528   9.176  19.829  0.00  0.00    +0.000 A 
ATOM     25  C   UNL     1       1.712   8.962  18.465  0.00  0.00    +0.000 A 
ATOM     26  C   UNL     1       1.926   7.668  17.973  0.00  0.00    +0.000 A 
ENDBRANCH  19  21
ENDBRANCH   3  19
TORSDOF 4
ENDMDL
