MODEL 1
REMARK VINA RESULT:      -7.8      0.000      0.000
REMARK  Name = 
REMARK  9 active torsions:
REMARK  status: ('A' for Active; 'I' for Inactive)
REMARK    1  A    between atoms: C_1  and  C_2
REMARK    2  A    between atoms: C_2  and  O_3
REMARK    3  A    between atoms: O_3  and  C_4
REMARK    4  A    between atoms: C_8  and  C_9
REMARK    5  A    between atoms: C_9  and  N_10
REMARK    6  A    between atoms: N_13  and  C_14
REMARK    7  A    between atoms: C_14  and  C_15
REMARK    8  A    between atoms: C_15  and  O_16
REMARK    9  A    between atoms: C_15  and  C_17
REMARK                            x       y       z     vdW  Elec       q    Type
REMARK                         _______ _______ _______ _____ _____    ______ ____
ROOT
ATOM      1  N   UNL     1       5.818   5.364  16.600  0.00  0.00    +0.000 N 
ATOM      2  C   UNL     1       4.555   5.276  17.108  0.00  0.00    +0.000 C 
ATOM      3  O   UNL     1       3.926   4.228  17.192  0.00  0.00    +0.000 OA
ATOM      4  N   UNL     1       4.085   6.474  17.573  0.00  0.00    +0.000 N 
ATOM      5  H   UNL     1       6.180   6.270  16.347  0.00  0.00    +0.000 HD
ATOM      6  H   UNL     1       4.435   7.318  17.142  0.00  0.00    +0.000 HD
ENDROOT
BRANCH   1   7
ATOM      7  C   UNL     1       6.453   4.195  16.039  0.00  0.00    +0.000 C 
BRANCH   7  12
ATOM      8  C   UNL     1       5.948   3.527  12.319  0.00  0.00    +0.000 A 
ATOM      9  C   UNL     1       6.931   4.348  11.762  0.00  0.00    +0.000 A 
ATOM     10  C   UNL     1       7.744   5.135  12.583  0.00  0.00    +0.000 A 
ATOM     11  C   UNL     1       7.577   5.101  13.965  0.00  0.00    +0.000 A 
ATOM     12  C   UNL     1       6.592   4.287  14.541  0.00  0.00    +0.000 A 
ATOM     13  C   UNL     1       5.780   3.506  13.707  0.00  0.00    +0.000 A 
BRANCH   8  14
ATOM     14  O   UNL     1       5.232   2.786  11.417  0.00  0.00    +0.000 OA
BRANCH  14  16
ATOM     15  C   UNL     1       3.537   3.857  10.107  0.00  0.00    +0.000 C 
ATOM     16  C   UNL     1       3.828   3.042  11.354  0.00  0.00    +0.000 C 
ENDBRANCH  14  16
ENDBRANCH   8  14
ENDBRANCH   7  12
ENDBRANCH   1   7
BRANCH   4  17
ATOM     17  C   UNL     1       2.747   6.522  18.138  0.00  0.00    +0.000 C 
BRANCH  17  18
ATOM     18  C   UNL     1       2.733   6.339  19.665  0.00  0.00    +0.000 C 
BRANCH  18  19
ATOM     19  C   UNL     1       2.157   4.992  20.059  0.00  0.00    +0.000 A 
ATOM     20  C   UNL     1       2.439   4.457  21.328  0.00  0.00    +0.000 A 
ATOM     21  C   UNL     1       2.000   3.176  21.682  0.00  0.00    +0.000 A 
ATOM     22  C   UNL     1       1.266   2.417  20.775  0.00  0.00    +0.000 A 
ATOM     23  C   UNL     1       0.961   2.950  19.529  0.00  0.00    +0.000 A 
ATOM     24  F   UNL     1       0.255   2.222  18.654  0.00  0.00    +0.000 F 
ATOM     25  C   UNL     1       1.393   4.224  19.167  0.00  0.00    +0.000 A 
ENDBRANCH  18  19
BRANCH  18  26
ATOM     26  O   UNL     1       1.986   7.401  20.269  0.00  0.00    +0.000 OA
ATOM     27  H   UNL     1       1.192   7.549  19.728  0.00  0.00    +0.000 HD
ENDBRANCH  18  26
ENDBRANCH  17  18
ENDBRANCH   4  17
TORSDOF 8
ENDMDL
MODEL 2
REMARK VINA RESULT:      -7.5      6.384      8.071
REMARK  Name = 
REMARK  9 active torsions:
REMARK  status: ('A' for Active; 'I' for Inactive)
REMARK    1  A    between atoms: C_1  and  C_2
REMARK    2  A    between atoms: C_2  and  O_3
REMARK    3  A    between atoms: O_3  and  C_4
REMARK    4  A    between atoms: C_8  and  C_9
REMARK    5  A    between atoms: C_9  and  N_10
REMARK    6  A    between atoms: N_13  and  C_14
REMARK    7  A    between atoms: C_14  and  C_15
REMARK    8  A    between atoms: C_15  and  O_16
REMARK    9  A    between atoms: C_15  and  C_17
REMARK                            x       y       z     vdW  Elec       q    Type
REMARK                         _______ _______ _______ _____ _____    ______ ____
ROOT
ATOM      1  N   UNL     1       8.449   8.364  18.089  0.00  0.00    +0.000 N 
ATOM      2  C   UNL     1       7.555   7.450  17.612  0.00  0.00    +0.000 C 
ATOM      3  O   UNL     1       6.611   7.735  16.886  0.00  0.00    +0.000 OA
ATOM      4  N   UNL     1       7.860   6.167  17.979  0.00  0.00    +0.000 N 
ATOM      5  H   UNL     1       9.049   8.104  18.856  0.00  0.00    +0.000 HD
ATOM      6  H   UNL     1       8.359   6.031  18.847  0.00  0.00    +0.000 HD
ENDROOT
BRANCH   1   7
ATOM      7  C   UNL     1       8.258   9.769  17.818  0.00  0.00    +0.000 C 
BRANCH   7  12
ATOM      8  C   UNL     1      11.226  12.072  18.466  0.00  0.00    +0.000 A 
ATOM      9  C   UNL     1      11.229  12.122  19.862  0.00  0.00    +0.000 A 
ATOM     10  C   UNL     1      10.261  11.430  20.595  0.00  0.00    +0.000 A 
ATOM     11  C   UNL     1       9.288  10.685  19.935  0.00  0.00    +0.000 A 
ATOM     12  C   UNL     1       9.267  10.629  18.534  0.00  0.00    +0.000 A 
ATOM     13  C   UNL     1      10.240  11.330  17.810  0.00  0.00    +0.000 A 
BRANCH   8  14
ATOM     14  O   UNL     1      12.236  12.770  17.858  0.00  0.00    +0.000 OA
BRANCH  14  16
ATOM     15  C   UNL     1      11.531  14.950  17.161  0.00  0.00    +0.000 C 
ATOM     16  C   UNL     1      12.333  14.158  18.178  0.00  0.00    +0.000 C 
ENDBRANCH  14  16
ENDBRANCH   8  14
ENDBRANCH   7  12
ENDBRANCH   1   7
BRANCH   4  17
ATOM     17  C   UNL     1       6.984   5.094  17.541  0.00  0.00    +0.000 C 
BRANCH  17  18
ATOM     18  C   UNL     1       6.188   4.459  18.693  0.00  0.00    +0.000 C 
BRANCH  18  19
ATOM     19  C   UNL     1       4.693   4.549  18.452  0.00  0.00    +0.000 A 
ATOM     20  C   UNL     1       4.042   3.539  17.723  0.00  0.00    +0.000 A 
ATOM     21  C   UNL     1       2.683   3.643  17.405  0.00  0.00    +0.000 A 
ATOM     22  C   UNL     1       1.955   4.755  17.819  0.00  0.00    +0.000 A 
ATOM     23  C   UNL     1       2.586   5.744  18.562  0.00  0.00    +0.000 A 
ATOM     24  F   UNL     1       1.889   6.816  18.962  0.00  0.00    +0.000 F 
ATOM     25  C   UNL     1       3.937   5.650  18.884  0.00  0.00    +0.000 A 
ENDBRANCH  18  19
BRANCH  18  26
ATOM     26  O   UNL     1       6.537   5.097  19.926  0.00  0.00    +0.000 OA
ATOM     27  H   UNL     1       6.320   4.483  20.649  0.00  0.00    +0.000 HD
ENDBRANCH  18  26
ENDBRANCH  17  18
ENDBRANCH   4  17
TORSDOF 8
ENDMDL
MODEL 3
REMARK VINA RESULT:      -7.4      6.174      8.011
REMARK  Name = 
REMARK  9 active torsions:
REMARK  status: ('A' for Active; 'I' for Inactive)
REMARK    1  A    between atoms: C_1  and  C_2
REMARK    2  A    between atoms: C_2  and  O_3
REMARK    3  A    between atoms: O_3  and  C_4
REMARK    4  A    between atoms: C_8  and  C_9
REMARK    5  A    between atoms: C_9  and  N_10
REMARK    6  A    between atoms: N_13  and  C_14
REMARK    7  A    between atoms: C_14  and  C_15
REMARK    8  A    between atoms: C_15  and  O_16
REMARK    9  A    between atoms: C_15  and  C_17
REMARK                            x       y       z     vdW  Elec       q    Type
REMARK                         _______ _______ _______ _____ _____    ______ ____
ROOT
ATOM      1  N   UNL     1       8.214   9.355  17.902  0.00  0.00    +0.000 N 
ATOM      2  C   UNL     1       7.976   8.013  17.953  0.00  0.00    +0.000 C 
ATOM      3  O   UNL     1       8.399   7.279  18.837  0.00  0.00    +0.000 OA
ATOM      4  N   UNL     1       7.159   7.580  16.944  0.00  0.00    +0.000 N 
ATOM      5  H   UNL     1       8.040   9.849  17.041  0.00  0.00    +0.000 HD
ATOM      6  H   UNL     1       7.172   8.092  16.074  0.00  0.00    +0.000 HD
ENDROOT
BRANCH   1   7
ATOM      7  C   UNL     1       9.082   9.971  18.878  0.00  0.00    +0.000 C 
BRANCH   7  12
ATOM      8  C   UNL     1       9.206  13.682  18.016  0.00  0.00    +0.000 A 
ATOM      9  C   UNL     1      10.477  13.785  17.446  0.00  0.00    +0.000 A 
ATOM     10  C   UNL     1      11.304  12.662  17.358  0.00  0.00    +0.000 A 
ATOM     11  C   UNL     1      10.862  11.432  17.839  0.00  0.00    +0.000 A 
ATOM     12  C   UNL     1       9.592  11.313  18.419  0.00  0.00    +0.000 A 
ATOM     13  C   UNL     1       8.773  12.447  18.505  0.00  0.00    +0.000 A 
BRANCH   8  14
ATOM     14  O   UNL     1       8.479  14.844  18.026  0.00  0.00    +0.000 OA
BRANCH  14  16
ATOM     15  C   UNL     1       6.263  15.304  18.810  0.00  0.00    +0.000 C 
ATOM     16  C   UNL     1       7.098  14.734  17.677  0.00  0.00    +0.000 C 
ENDBRANCH  14  16
ENDBRANCH   8  14
ENDBRANCH   7  12
ENDBRANCH   1   7
BRANCH   4  17
ATOM     17  C   UNL     1       6.827   6.166  16.878  0.00  0.00    +0.000 C 
BRANCH  17  18
ATOM     18  C   UNL     1       5.605   5.877  15.991  0.00  0.00    +0.000 C 
BRANCH  18  19
ATOM     19  C   UNL     1       4.457   5.299  16.797  0.00  0.00    +0.000 A 
ATOM     20  C   UNL     1       3.745   6.122  17.686  0.00  0.00    +0.000 A 
ATOM     21  C   UNL     1       2.744   5.594  18.510  0.00  0.00    +0.000 A 
ATOM     22  C   UNL     1       2.437   4.238  18.450  0.00  0.00    +0.000 A 
ATOM     23  C   UNL     1       3.118   3.425  17.554  0.00  0.00    +0.000 A 
ATOM     24  F   UNL     1       2.825   2.119  17.494  0.00  0.00    +0.000 F 
ATOM     25  C   UNL     1       4.115   3.939  16.729  0.00  0.00    +0.000 A 
ENDBRANCH  18  19
BRANCH  18  26
ATOM     26  O   UNL     1       5.977   4.984  14.936  0.00  0.00    +0.000 OA
ATOM     27  H   UNL     1       6.360   4.188  15.343  0.00  0.00    +0.000 HD
ENDBRANCH  18  26
ENDBRANCH  17  18
ENDBRANCH   4  17
TORSDOF 8
ENDMDL
MODEL 4
REMARK VINA RESULT:      -7.3      3.155      8.807
REMARK  Name = 
REMARK  9 active torsions:
REMARK  status: ('A' for Active; 'I' for Inactive)
REMARK    1  A    between atoms: C_1  and  C_2
REMARK    2  A    between atoms: C_2  and  O_3
REMARK    3  A    between atoms: O_3  and  C_4
REMARK    4  A    between atoms: C_8  and  C_9
REMARK    5  A    between atoms: C_9  and  N_10
REMARK    6  A    between atoms: N_13  and  C_14
REMARK    7  A    between atoms: C_14  and  C_15
REMARK    8  A    between atoms: C_15  and  O_16
REMARK    9  A    between atoms: C_15  and  C_17
REMARK                            x       y       z     vdW  Elec       q    Type
REMARK                         _______ _______ _______ _____ _____    ______ ____
ROOT
ATOM      1  N   UNL     1       2.899   5.611  18.268  0.00  0.00    +0.000 N 
ATOM      2  C   UNL     1       4.106   4.985  18.159  0.00  0.00    +0.000 C 
ATOM      3  O   UNL     1       4.882   4.832  19.093  0.00  0.00    +0.000 OA
ATOM      4  N   UNL     1       4.334   4.489  16.903  0.00  0.00    +0.000 N 
ATOM      5  H   UNL     1       2.424   5.906  17.430  0.00  0.00    +0.000 HD
ATOM      6  H   UNL     1       3.897   4.959  16.123  0.00  0.00    +0.000 HD
ENDROOT
BRANCH   1   7
ATOM      7  C   UNL     1       2.514   6.218  19.520  0.00  0.00    +0.000 C 
BRANCH   7  12
ATOM      8  C   UNL     1       0.981   9.633  20.247  0.00  0.00    +0.000 A 
ATOM      9  C   UNL     1       1.063  10.239  18.991  0.00  0.00    +0.000 A 
ATOM     10  C   UNL     1       1.632   9.554  17.913  0.00  0.00    +0.000 A 
ATOM     11  C   UNL     1       2.120   8.262  18.088  0.00  0.00    +0.000 A 
ATOM     12  C   UNL     1       2.051   7.642  19.343  0.00  0.00    +0.000 A 
ATOM     13  C   UNL     1       1.482   8.339  20.417  0.00  0.00    +0.000 A 
BRANCH   8  14
ATOM     14  O   UNL     1       0.384  10.391  21.219  0.00  0.00    +0.000 OA
BRANCH  14  16
ATOM     15  C   UNL     1      -0.987  10.404  23.182  0.00  0.00    +0.000 C 
ATOM     16  C   UNL     1       0.209   9.772  22.494  0.00  0.00    +0.000 C 
ENDBRANCH  14  16
ENDBRANCH   8  14
ENDBRANCH   7  12
ENDBRANCH   1   7
BRANCH   4  17
ATOM     17  C   UNL     1       5.588   3.801  16.647  0.00  0.00    +0.000 C 
BRANCH  17  18
ATOM     18  C   UNL     1       6.669   4.722  16.057  0.00  0.00    +0.000 C 
BRANCH  18  19
ATOM     19  C   UNL     1       6.823   4.513  14.562  0.00  0.00    +0.000 A 
ATOM     20  C   UNL     1       7.689   5.340  13.827  0.00  0.00    +0.000 A 
ATOM     21  C   UNL     1       7.779   5.231  12.435  0.00  0.00    +0.000 A 
ATOM     22  C   UNL     1       7.009   4.288  11.760  0.00  0.00    +0.000 A 
ATOM     23  C   UNL     1       6.171   3.450  12.482  0.00  0.00    +0.000 A 
ATOM     24  F   UNL     1       5.428   2.541  11.836  0.00  0.00    +0.000 F 
ATOM     25  C   UNL     1       6.074   3.549  13.868  0.00  0.00    +0.000 A 
ENDBRANCH  18  19
BRANCH  18  26
ATOM     26  O   UNL     1       7.913   4.494  16.726  0.00  0.00    +0.000 OA
ATOM     27  H   UNL     1       7.822   3.681  17.252  0.00  0.00    +0.000 HD
ENDBRANCH  18  26
ENDBRANCH  17  18
ENDBRANCH   4  17
TORSDOF 8
ENDMDL
MODEL 5
REMARK VINA RESULT:      -7.3      6.617      8.352
REMARK  Name = 
REMARK  9 active torsions:
REMARK  status: ('A' for Active; 'I' for Inactive)
REMARK    1  A    between atoms: C_1  and  C_2
REMARK    2  A    between atoms: C_2  and  O_3
REMARK    3  A    between atoms: O_3  and  C_4
REMARK    4  A    between atoms: C_8  and  C_9
REMARK    5  A    between atoms: C_9  and  N_10
REMARK    6  A    between atoms: N_13  and  C_14
REMARK    7  A    between atoms: C_14  and  C_15
REMARK    8  A    between atoms: C_15  and  O_16
REMARK    9  A    between atoms: C_15  and  C_17
REMARK                            x       y       z     vdW  Elec       q    Type
REMARK                         _______ _______ _______ _____ _____    ______ ____
ROOT
ATOM      1  N   UNL     1       8.375   8.632  18.305  0.00  0.00    +0.000 N 
ATOM      2  C   UNL     1       7.649   7.646  17.703  0.00  0.00    +0.000 C 
ATOM      3  O   UNL     1       6.916   7.831  16.740  0.00  0.00    +0.000 OA
ATOM      4  N   UNL     1       7.873   6.412  18.251  0.00  0.00    +0.000 N 
ATOM      5  H   UNL     1       8.765   8.462  19.219  0.00  0.00    +0.000 HD
ATOM      6  H   UNL     1       8.137   6.369  19.225  0.00  0.00    +0.000 HD
ENDROOT
BRANCH   1   7
ATOM      7  C   UNL     1       8.234  10.001  17.868  0.00  0.00    +0.000 C 
BRANCH   7  12
ATOM      8  C   UNL     1      10.615  12.876  18.640  0.00  0.00    +0.000 A 
ATOM      9  C   UNL     1      10.949  12.601  19.968  0.00  0.00    +0.000 A 
ATOM     10  C   UNL     1      10.390  11.500  20.623  0.00  0.00    +0.000 A 
ATOM     11  C   UNL     1       9.497  10.670  19.951  0.00  0.00    +0.000 A 
ATOM     12  C   UNL     1       9.147  10.935  18.620  0.00  0.00    +0.000 A 
ATOM     13  C   UNL     1       9.710  12.044  17.975  0.00  0.00    +0.000 A 
BRANCH   8  14
ATOM     14  O   UNL     1      11.244  13.966  18.098  0.00  0.00    +0.000 OA
BRANCH  14  16
ATOM     15  C   UNL     1      12.328  15.892  19.020  0.00  0.00    +0.000 C 
ATOM     16  C   UNL     1      10.997  15.223  18.730  0.00  0.00    +0.000 C 
ENDBRANCH  14  16
ENDBRANCH   8  14
ENDBRANCH   7  12
ENDBRANCH   1   7
BRANCH   4  17
ATOM     17  C   UNL     1       7.157   5.271  17.706  0.00  0.00    +0.000 C 
BRANCH  17  18
ATOM     18  C   UNL     1       6.278   4.559  18.748  0.00  0.00    +0.000 C 
BRANCH  18  19
ATOM     19  C   UNL     1       4.821   4.539  18.327  0.00  0.00    +0.000 A 
ATOM     20  C   UNL     1       4.064   5.723  18.376  0.00  0.00    +0.000 A 
ATOM     21  C   UNL     1       2.696   5.713  18.084  0.00  0.00    +0.000 A 
ATOM     22  C   UNL     1       2.067   4.522  17.731  0.00  0.00    +0.000 A 
ATOM     23  C   UNL     1       2.815   3.354  17.655  0.00  0.00    +0.000 A 
ATOM     24  F   UNL     1       2.213   2.206  17.316  0.00  0.00    +0.000 F 
ATOM     25  C   UNL     1       4.177   3.352  17.943  0.00  0.00    +0.000 A 
ENDBRANCH  18  19
BRANCH  18  26
ATOM     26  O   UNL     1       6.425   5.201  20.019  0.00  0.00    +0.000 OA
ATOM     27  H   UNL     1       7.373   5.371  20.157  0.00  0.00    +0.000 HD
ENDBRANCH  18  26
ENDBRANCH  17  18
ENDBRANCH   4  17
TORSDOF 8
ENDMDL
MODEL 6
REMARK VINA RESULT:      -7.2      6.665      9.158
REMARK  Name = 
REMARK  9 active torsions:
REMARK  status: ('A' for Active; 'I' for Inactive)
REMARK    1  A    between atoms: C_1  and  C_2
REMARK    2  A    between atoms: C_2  and  O_3
REMARK    3  A    between atoms: O_3  and  C_4
REMARK    4  A    between atoms: C_8  and  C_9
REMARK    5  A    between atoms: C_9  and  N_10
REMARK    6  A    between atoms: N_13  and  C_14
REMARK    7  A    between atoms: C_14  and  C_15
REMARK    8  A    between atoms: C_15  and  O_16
REMARK    9  A    between atoms: C_15  and  C_17
REMARK                            x       y       z     vdW  Elec       q    Type
REMARK                         _______ _______ _______ _____ _____    ______ ____
ROOT
ATOM      1  N   UNL     1       6.924   7.657  16.979  0.00  0.00    +0.000 N 
ATOM      2  C   UNL     1       7.840   7.868  17.967  0.00  0.00    +0.000 C 
ATOM      3  O   UNL     1       8.300   6.979  18.672  0.00  0.00    +0.000 OA
ATOM      4  N   UNL     1       8.240   9.175  18.050  0.00  0.00    +0.000 N 
ATOM      5  H   UNL     1       6.422   8.445  16.602  0.00  0.00    +0.000 HD
ATOM      6  H   UNL     1       7.586   9.888  17.759  0.00  0.00    +0.000 HD
ENDROOT
BRANCH   1   7
ATOM      7  C   UNL     1       6.375   6.337  16.775  0.00  0.00    +0.000 C 
BRANCH   7  12
ATOM      8  C   UNL     1       3.706   4.736  18.977  0.00  0.00    +0.000 A 
ATOM      9  C   UNL     1       2.671   5.667  18.866  0.00  0.00    +0.000 A 
ATOM     10  C   UNL     1       2.840   6.823  18.099  0.00  0.00    +0.000 A 
ATOM     11  C   UNL     1       4.044   7.051  17.438  0.00  0.00    +0.000 A 
ATOM     12  C   UNL     1       5.095   6.129  17.543  0.00  0.00    +0.000 A 
ATOM     13  C   UNL     1       4.916   4.976  18.319  0.00  0.00    +0.000 A 
BRANCH   8  14
ATOM     14  O   UNL     1       3.416   3.633  19.736  0.00  0.00    +0.000 OA
BRANCH  14  16
ATOM     15  C   UNL     1       2.668   2.072  18.080  0.00  0.00    +0.000 C 
ATOM     16  C   UNL     1       3.704   2.363  19.151  0.00  0.00    +0.000 C 
ENDBRANCH  14  16
ENDBRANCH   8  14
ENDBRANCH   7  12
ENDBRANCH   1   7
BRANCH   4  17
ATOM     17  C   UNL     1       9.212   9.540  19.067  0.00  0.00    +0.000 C 
BRANCH  17  18
ATOM     18  C   UNL     1       9.008  10.964  19.608  0.00  0.00    +0.000 C 
BRANCH  18  19
ATOM     19  C   UNL     1       9.657  12.000  18.709  0.00  0.00    +0.000 A 
ATOM     20  C   UNL     1      10.754  11.639  17.907  0.00  0.00    +0.000 A 
ATOM     21  C   UNL     1      11.430  12.595  17.141  0.00  0.00    +0.000 A 
ATOM     22  C   UNL     1      11.014  13.923  17.160  0.00  0.00    +0.000 A 
ATOM     23  C   UNL     1       9.914  14.281  17.930  0.00  0.00    +0.000 A 
ATOM     24  F   UNL     1       9.511  15.559  17.951  0.00  0.00    +0.000 F 
ATOM     25  C   UNL     1       9.234  13.338  18.696  0.00  0.00    +0.000 A 
ENDBRANCH  18  19
BRANCH  18  26
ATOM     26  O   UNL     1       9.533  11.053  20.937  0.00  0.00    +0.000 OA
ATOM     27  H   UNL     1      10.152  11.803  20.961  0.00  0.00    +0.000 HD
ENDBRANCH  18  26
ENDBRANCH  17  18
ENDBRANCH   4  17
TORSDOF 8
ENDMDL
MODEL 7
REMARK VINA RESULT:      -7.2      6.053      8.379
REMARK  Name = 
REMARK  9 active torsions:
REMARK  status: ('A' for Active; 'I' for Inactive)
REMARK    1  A    between atoms: C_1  and  C_2
REMARK    2  A    between atoms: C_2  and  O_3
REMARK    3  A    between atoms: O_3  and  C_4
REMARK    4  A    between atoms: C_8  and  C_9
REMARK    5  A    between atoms: C_9  and  N_10
REMARK    6  A    between atoms: N_13  and  C_14
REMARK    7  A    between atoms: C_14  and  C_15
REMARK    8  A    between atoms: C_15  and  O_16
REMARK    9  A    between atoms: C_15  and  C_17
REMARK                            x       y       z     vdW  Elec       q    Type
REMARK                         _______ _______ _______ _____ _____    ______ ____
ROOT
ATOM      1  N   UNL     1       8.595   8.583  18.405  0.00  0.00    +0.000 N 
ATOM      2  C   UNL     1       7.777   7.695  17.770  0.00  0.00    +0.000 C 
ATOM      3  O   UNL     1       7.052   7.989  16.829  0.00  0.00    +0.000 OA
ATOM      4  N   UNL     1       7.897   6.422  18.258  0.00  0.00    +0.000 N 
ATOM      5  H   UNL     1       8.980   8.337  19.303  0.00  0.00    +0.000 HD
ATOM      6  H   UNL     1       8.168   6.310  19.224  0.00  0.00    +0.000 HD
ENDROOT
BRANCH   1   7
ATOM      7  C   UNL     1       8.572   9.978  18.032  0.00  0.00    +0.000 C 
BRANCH   7  12
ATOM      8  C   UNL     1       9.905  11.977  20.992  0.00  0.00    +0.000 A 
ATOM      9  C   UNL     1      11.099  12.476  20.466  0.00  0.00    +0.000 A 
ATOM     10  C   UNL     1      11.486  12.150  19.163  0.00  0.00    +0.000 A 
ATOM     11  C   UNL     1      10.680  11.327  18.382  0.00  0.00    +0.000 A 
ATOM     12  C   UNL     1       9.481  10.813  18.897  0.00  0.00    +0.000 A 
ATOM     13  C   UNL     1       9.105  11.143  20.206  0.00  0.00    +0.000 A 
BRANCH   8  14
ATOM     14  O   UNL     1       9.621  12.383  22.269  0.00  0.00    +0.000 OA
BRANCH  14  16
ATOM     15  C   UNL     1       8.394  12.101  24.307  0.00  0.00    +0.000 C 
ATOM     16  C   UNL     1       8.349  11.997  22.793  0.00  0.00    +0.000 C 
ENDBRANCH  14  16
ENDBRANCH   8  14
ENDBRANCH   7  12
ENDBRANCH   1   7
BRANCH   4  17
ATOM     17  C   UNL     1       7.076   5.375  17.672  0.00  0.00    +0.000 C 
BRANCH  17  18
ATOM     18  C   UNL     1       6.280   4.580  18.720  0.00  0.00    +0.000 C 
BRANCH  18  19
ATOM     19  C   UNL     1       4.787   4.658  18.462  0.00  0.00    +0.000 A 
ATOM     20  C   UNL     1       4.001   5.572  19.185  0.00  0.00    +0.000 A 
ATOM     21  C   UNL     1       2.610   5.600  19.035  0.00  0.00    +0.000 A 
ATOM     22  C   UNL     1       1.987   4.719  18.154  0.00  0.00    +0.000 A 
ATOM     23  C   UNL     1       2.761   3.832  17.418  0.00  0.00    +0.000 A 
ATOM     24  F   UNL     1       2.165   2.984  16.570  0.00  0.00    +0.000 F 
ATOM     25  C   UNL     1       4.146   3.796  17.559  0.00  0.00    +0.000 A 
ENDBRANCH  18  19
BRANCH  18  26
ATOM     26  O   UNL     1       6.589   5.067  20.031  0.00  0.00    +0.000 OA
ATOM     27  H   UNL     1       5.768   5.058  20.551  0.00  0.00    +0.000 HD
ENDBRANCH  18  26
ENDBRANCH  17  18
ENDBRANCH   4  17
TORSDOF 8
ENDMDL
MODEL 8
REMARK VINA RESULT:      -7.2      6.308      8.241
REMARK  Name = 
REMARK  9 active torsions:
REMARK  status: ('A' for Active; 'I' for Inactive)
REMARK    1  A    between atoms: C_1  and  C_2
REMARK    2  A    between atoms: C_2  and  O_3
REMARK    3  A    between atoms: O_3  and  C_4
REMARK    4  A    between atoms: C_8  and  C_9
REMARK    5  A    between atoms: C_9  and  N_10
REMARK    6  A    between atoms: N_13  and  C_14
REMARK    7  A    between atoms: C_14  and  C_15
REMARK    8  A    between atoms: C_15  and  O_16
REMARK    9  A    between atoms: C_15  and  C_17
REMARK                            x       y       z     vdW  Elec       q    Type
REMARK                         _______ _______ _______ _____ _____    ______ ____
ROOT
ATOM      1  N   UNL     1       8.198   9.221  17.826  0.00  0.00    +0.000 N 
ATOM      2  C   UNL     1       7.954   7.880  17.889  0.00  0.00    +0.000 C 
ATOM      3  O   UNL     1       8.318   7.164  18.813  0.00  0.00    +0.000 OA
ATOM      4  N   UNL     1       7.202   7.427  16.838  0.00  0.00    +0.000 N 
ATOM      5  H   UNL     1       8.080   9.697  16.946  0.00  0.00    +0.000 HD
ATOM      6  H   UNL     1       7.273   7.922  15.961  0.00  0.00    +0.000 HD
ENDROOT
BRANCH   1   7
ATOM      7  C   UNL     1       9.003   9.856  18.843  0.00  0.00    +0.000 C 
BRANCH   7  12
ATOM      8  C   UNL     1       9.135  13.559  17.948  0.00  0.00    +0.000 A 
ATOM      9  C   UNL     1      10.437  13.671  17.453  0.00  0.00    +0.000 A 
ATOM     10  C   UNL     1      11.280  12.557  17.427  0.00  0.00    +0.000 A 
ATOM     11  C   UNL     1      10.825  11.327  17.895  0.00  0.00    +0.000 A 
ATOM     12  C   UNL     1       9.523  11.199  18.400  0.00  0.00    +0.000 A 
ATOM     13  C   UNL     1       8.688  12.324  18.425  0.00  0.00    +0.000 A 
BRANCH   8  14
ATOM     14  O   UNL     1       8.397  14.712  17.901  0.00  0.00    +0.000 OA
BRANCH  14  16
ATOM     15  C   UNL     1       8.760  15.672  20.065  0.00  0.00    +0.000 C 
ATOM     16  C   UNL     1       7.734  15.093  19.107  0.00  0.00    +0.000 C 
ENDBRANCH  14  16
ENDBRANCH   8  14
ENDBRANCH   7  12
ENDBRANCH   1   7
BRANCH   4  17
ATOM     17  C   UNL     1       6.873   6.013  16.780  0.00  0.00    +0.000 C 
BRANCH  17  18
ATOM     18  C   UNL     1       5.573   5.731  16.008  0.00  0.00    +0.000 C 
BRANCH  18  19
ATOM     19  C   UNL     1       4.412   5.471  16.949  0.00  0.00    +0.000 A 
ATOM     20  C   UNL     1       3.861   4.181  17.039  0.00  0.00    +0.000 A 
ATOM     21  C   UNL     1       2.731   3.935  17.827  0.00  0.00    +0.000 A 
ATOM     22  C   UNL     1       2.142   4.974  18.542  0.00  0.00    +0.000 A 
ATOM     23  C   UNL     1       2.697   6.245  18.479  0.00  0.00    +0.000 A 
ATOM     24  F   UNL     1       2.132   7.247  19.166  0.00  0.00    +0.000 F 
ATOM     25  C   UNL     1       3.821   6.501  17.699  0.00  0.00    +0.000 A 
ENDBRANCH  18  19
BRANCH  18  26
ATOM     26  O   UNL     1       5.767   4.617  15.131  0.00  0.00    +0.000 OA
ATOM     27  H   UNL     1       6.725   4.492  15.018  0.00  0.00    +0.000 HD
ENDBRANCH  18  26
ENDBRANCH  17  18
ENDBRANCH   4  17
TORSDOF 8
ENDMDL
MODEL 9
REMARK VINA RESULT:      -7.2      4.876      7.357
REMARK  Name = 
REMARK  9 active torsions:
REMARK  status: ('A' for Active; 'I' for Inactive)
REMARK    1  A    between atoms: C_1  and  C_2
REMARK    2  A    between atoms: C_2  and  O_3
REMARK    3  A    between atoms: O_3  and  C_4
REMARK    4  A    between atoms: C_8  and  C_9
REMARK    5  A    between atoms: C_9  and  N_10
REMARK    6  A    between atoms: N_13  and  C_14
REMARK    7  A    between atoms: C_14  and  C_15
REMARK    8  A    between atoms: C_15  and  O_16
REMARK    9  A    between atoms: C_15  and  C_17
REMARK                            x       y       z     vdW  Elec       q    Type
REMARK                         _______ _______ _______ _____ _____    ______ ____
ROOT
ATOM      1  N   UNL     1       2.468   7.805  18.473  0.00  0.00    +0.000 N 
ATOM      2  C   UNL     1       1.919   9.031  18.236  0.00  0.00    +0.000 C 
ATOM      3  O   UNL     1       2.248   9.757  17.307  0.00  0.00    +0.000 OA
ATOM      4  N   UNL     1       0.915   9.341  19.113  0.00  0.00    +0.000 N 
ATOM      5  H   UNL     1       2.323   7.370  19.371  0.00  0.00    +0.000 HD
ATOM      6  H   UNL     1       0.955   8.938  20.038  0.00  0.00    +0.000 HD
ENDROOT
BRANCH   1   7
ATOM      7  C   UNL     1       3.562   7.335  17.657  0.00  0.00    +0.000 C 
BRANCH   7  12
ATOM      8  C   UNL     1       2.966   3.669  18.518  0.00  0.00    +0.000 A 
ATOM      9  C   UNL     1       3.877   3.040  17.666  0.00  0.00    +0.000 A 
ATOM     10  C   UNL     1       4.669   3.796  16.797  0.00  0.00    +0.000 A 
ATOM     11  C   UNL     1       4.554   5.183  16.779  0.00  0.00    +0.000 A 
ATOM     12  C   UNL     1       3.641   5.830  17.624  0.00  0.00    +0.000 A 
ATOM     13  C   UNL     1       2.849   5.061  18.487  0.00  0.00    +0.000 A 
BRANCH   8  14
ATOM     14  O   UNL     1       2.264   2.826  19.338  0.00  0.00    +0.000 OA
BRANCH  14  16
ATOM     15  C   UNL     1       1.480   2.708  21.598  0.00  0.00    +0.000 C 
ATOM     16  C   UNL     1       2.700   2.749  20.696  0.00  0.00    +0.000 C 
ENDBRANCH  14  16
ENDBRANCH   8  14
ENDBRANCH   7  12
ENDBRANCH   1   7
BRANCH   4  17
ATOM     17  C   UNL     1       0.246  10.624  18.976  0.00  0.00    +0.000 C 
BRANCH  17  18
ATOM     18  C   UNL     1      -1.232  10.579  19.396  0.00  0.00    +0.000 C 
BRANCH  18  19
ATOM     19  C   UNL     1      -2.155  10.729  18.202  0.00  0.00    +0.000 A 
ATOM     20  C   UNL     1      -3.326  11.498  18.317  0.00  0.00    +0.000 A 
ATOM     21  C   UNL     1      -4.242  11.577  17.261  0.00  0.00    +0.000 A 
ATOM     22  C   UNL     1      -3.995  10.893  16.074  0.00  0.00    +0.000 A 
ATOM     23  C   UNL     1      -2.827  10.154  15.944  0.00  0.00    +0.000 A 
ATOM     24  F   UNL     1      -2.586   9.495  14.803  0.00  0.00    +0.000 F 
ATOM     25  C   UNL     1      -1.909  10.069  16.987  0.00  0.00    +0.000 A 
ENDBRANCH  18  19
BRANCH  18  26
ATOM     26  O   UNL     1      -1.489  11.604  20.362  0.00  0.00    +0.000 OA
ATOM     27  H   UNL     1      -1.700  11.169  21.206  0.00  0.00    +0.000 HD
ENDBRANCH  18  26
ENDBRANCH  17  18
ENDBRANCH   4  17
TORSDOF 8
ENDMDL
