MODEL 1
REMARK VINA RESULT:      -7.8      0.000      0.000
REMARK  Name = 
REMARK  7 active torsions:
REMARK  status: ('A' for Active; 'I' for Inactive)
REMARK    1  A    between atoms: C_1  and  C_2
REMARK    2  A    between atoms: C_6  and  C_7
REMARK    3  A    between atoms: N_11  and  C_12
REMARK    4  A    between atoms: C_15  and  N_16
REMARK    5  A    between atoms: N_16  and  C_17
REMARK    6  A    between atoms: N_16  and  C_18
REMARK    7  A    between atoms: C_22  and  C_23
REMARK                            x       y       z     vdW  Elec       q    Type
REMARK                         _______ _______ _______ _____ _____    ______ ____
ROOT
ATOM      1  C   UNL     1       4.934   5.212  18.166  0.00  0.00    +0.000 A 
ATOM      2  C   UNL     1       4.960   4.175  19.072  0.00  0.00    +0.000 A 
ATOM      3  S   UNL     1       3.636   4.296  20.154  0.00  0.00    +0.000 S 
ATOM      4  C   UNL     1       3.141   5.747  19.370  0.00  0.00    +0.000 A 
ATOM      5  N   UNL     1       2.068   6.436  19.824  0.00  0.00    +0.000 N 
ATOM      6  N   UNL     1       3.872   6.072  18.324  0.00  0.00    +0.000 NA
ATOM      7  H   UNL     1       1.466   6.015  20.519  0.00  0.00    +0.000 HD
ENDROOT
BRANCH   1  13
ATOM      8  C   UNL     1       6.648   3.393  11.876  0.00  0.00    +0.000 C 
ATOM      9  C   UNL     1       6.414   3.938  13.254  0.00  0.00    +0.000 A 
ATOM     10  C   UNL     1       5.222   3.505  13.974  0.00  0.00    +0.000 A 
ATOM     11  C   UNL     1       4.993   3.965  15.215  0.00  0.00    +0.000 A 
ATOM     12  N   UNL     1       5.894   4.855  15.808  0.00  0.00    +0.000 N 
ATOM     13  C   UNL     1       5.931   5.420  17.073  0.00  0.00    +0.000 A 
ATOM     14  C   UNL     1       7.068   6.217  17.082  0.00  0.00    +0.000 A 
ATOM     15  C   UNL     1       7.598   7.162  18.094  0.00  0.00    +0.000 C 
ATOM     16  N   UNL     1       7.747   6.111  15.887  0.00  0.00    +0.000 NA
ATOM     17  C   UNL     1       7.039   5.292  15.144  0.00  0.00    +0.000 A 
ATOM     18  C   UNL     1       7.276   4.803  13.830  0.00  0.00    +0.000 A 
ENDBRANCH   1  13
BRANCH   5  19
ATOM     19  C   UNL     1       1.843   7.802  19.590  0.00  0.00    +0.000 A 
ATOM     20  C   UNL     1       1.300   8.603  20.592  0.00  0.00    +0.000 A 
ATOM     21  C   UNL     1       0.936   9.934  20.329  0.00  0.00    +0.000 A 
ATOM     22  C   UNL     1       1.099  10.526  19.064  0.00  0.00    +0.000 A 
ATOM     23  C   UNL     1       1.692   9.715  18.089  0.00  0.00    +0.000 A 
ATOM     24  C   UNL     1       2.050   8.387  18.340  0.00  0.00    +0.000 A 
BRANCH  22  25
ATOM     25  N   UNL     1       0.671  11.812  18.780  0.00  0.00    +0.000 N 
ATOM     26  C   UNL     1       1.596  12.938  18.688  0.00  0.00    +0.000 C 
ATOM     27  C   UNL     1      -0.740  12.163  18.673  0.00  0.00    +0.000 C 
ENDBRANCH  22  25
ENDBRANCH   5  19
TORSDOF 3
ENDMDL
MODEL 2
REMARK VINA RESULT:      -7.8      1.008      1.035
REMARK  Name = 
REMARK  7 active torsions:
REMARK  status: ('A' for Active; 'I' for Inactive)
REMARK    1  A    between atoms: C_1  and  C_2
REMARK    2  A    between atoms: C_6  and  C_7
REMARK    3  A    between atoms: N_11  and  C_12
REMARK    4  A    between atoms: C_15  and  N_16
REMARK    5  A    between atoms: N_16  and  C_17
REMARK    6  A    between atoms: N_16  and  C_18
REMARK    7  A    between atoms: C_22  and  C_23
REMARK                            x       y       z     vdW  Elec       q    Type
REMARK                         _______ _______ _______ _____ _____    ______ ____
ROOT
ATOM      1  C   UNL     1       4.666   4.534  18.747  0.00  0.00    +0.000 A 
ATOM      2  C   UNL     1       4.494   3.402  19.513  0.00  0.00    +0.000 A 
ATOM      3  S   UNL     1       3.060   3.525  20.446  0.00  0.00    +0.000 S 
ATOM      4  C   UNL     1       2.788   5.097  19.800  0.00  0.00    +0.000 A 
ATOM      5  N   UNL     1       1.727   5.831  20.212  0.00  0.00    +0.000 N 
ATOM      6  N   UNL     1       3.666   5.469  18.891  0.00  0.00    +0.000 NA
ATOM      7  H   UNL     1       1.011   5.393  20.777  0.00  0.00    +0.000 HD
ENDROOT
BRANCH   1  13
ATOM      8  C   UNL     1       6.682   3.967  12.311  0.00  0.00    +0.000 C 
ATOM      9  C   UNL     1       6.408   4.196  13.768  0.00  0.00    +0.000 A 
ATOM     10  C   UNL     1       5.077   3.886  14.278  0.00  0.00    +0.000 A 
ATOM     11  C   UNL     1       4.807   4.067  15.580  0.00  0.00    +0.000 A 
ATOM     12  N   UNL     1       5.797   4.554  16.439  0.00  0.00    +0.000 N 
ATOM     13  C   UNL     1       5.803   4.768  17.809  0.00  0.00    +0.000 A 
ATOM     14  C   UNL     1       7.072   5.255  18.094  0.00  0.00    +0.000 A 
ATOM     15  C   UNL     1       7.665   5.777  19.349  0.00  0.00    +0.000 C 
ATOM     16  N   UNL     1       7.847   5.292  16.955  0.00  0.00    +0.000 NA
ATOM     17  C   UNL     1       7.076   4.865  15.982  0.00  0.00    +0.000 A 
ATOM     18  C   UNL     1       7.358   4.673  14.601  0.00  0.00    +0.000 A 
ENDBRANCH   1  13
BRANCH   5  19
ATOM     19  C   UNL     1       1.646   7.230  20.128  0.00  0.00    +0.000 A 
ATOM     20  C   UNL     1       1.210   7.972  21.222  0.00  0.00    +0.000 A 
ATOM     21  C   UNL     1       0.986   9.355  21.109  0.00  0.00    +0.000 A 
ATOM     22  C   UNL     1       1.190  10.058  19.908  0.00  0.00    +0.000 A 
ATOM     23  C   UNL     1       1.675   9.297  18.838  0.00  0.00    +0.000 A 
ATOM     24  C   UNL     1       1.893   7.919  18.940  0.00  0.00    +0.000 A 
BRANCH  22  25
ATOM     25  N   UNL     1       0.898  11.404  19.771  0.00  0.00    +0.000 N 
ATOM     26  C   UNL     1       1.493  12.227  18.722  0.00  0.00    +0.000 C 
ATOM     27  C   UNL     1       0.076  12.130  20.732  0.00  0.00    +0.000 C 
ENDBRANCH  22  25
ENDBRANCH   5  19
TORSDOF 3
ENDMDL
MODEL 3
REMARK VINA RESULT:      -7.8      1.680      8.434
REMARK  Name = 
REMARK  7 active torsions:
REMARK  status: ('A' for Active; 'I' for Inactive)
REMARK    1  A    between atoms: C_1  and  C_2
REMARK    2  A    between atoms: C_6  and  C_7
REMARK    3  A    between atoms: N_11  and  C_12
REMARK    4  A    between atoms: C_15  and  N_16
REMARK    5  A    between atoms: N_16  and  C_17
REMARK    6  A    between atoms: N_16  and  C_18
REMARK    7  A    between atoms: C_22  and  C_23
REMARK                            x       y       z     vdW  Elec       q    Type
REMARK                         _______ _______ _______ _____ _____    ______ ____
ROOT
ATOM      1  C   UNL     1       2.230   6.525  20.050  0.00  0.00    +0.000 A 
ATOM      2  C   UNL     1       1.687   5.621  20.937  0.00  0.00    +0.000 A 
ATOM      3  S   UNL     1       2.547   4.139  20.878  0.00  0.00    +0.000 S 
ATOM      4  C   UNL     1       3.557   4.786  19.643  0.00  0.00    +0.000 A 
ATOM      5  N   UNL     1       4.517   4.019  19.074  0.00  0.00    +0.000 N 
ATOM      6  N   UNL     1       3.317   6.048  19.353  0.00  0.00    +0.000 NA
ATOM      7  H   UNL     1       4.743   3.123  19.485  0.00  0.00    +0.000 HD
ENDROOT
BRANCH   1  13
ATOM      8  C   UNL     1      -1.134  11.651  22.915  0.00  0.00    +0.000 C 
ATOM      9  C   UNL     1      -0.344  10.646  22.130  0.00  0.00    +0.000 A 
ATOM     10  C   UNL     1      -0.002   9.383  22.773  0.00  0.00    +0.000 A 
ATOM     11  C   UNL     1       0.692   8.458  22.091  0.00  0.00    +0.000 A 
ATOM     12  N   UNL     1       1.084   8.710  20.773  0.00  0.00    +0.000 N 
ATOM     13  C   UNL     1       1.739   7.919  19.840  0.00  0.00    +0.000 A 
ATOM     14  C   UNL     1       1.844   8.710  18.704  0.00  0.00    +0.000 A 
ATOM     15  C   UNL     1       2.534   8.486  17.411  0.00  0.00    +0.000 C 
ATOM     16  N   UNL     1       1.230   9.929  18.900  0.00  0.00    +0.000 NA
ATOM     17  C   UNL     1       0.779   9.909  20.132  0.00  0.00    +0.000 A 
ATOM     18  C   UNL     1       0.044  10.886  20.859  0.00  0.00    +0.000 A 
ENDBRANCH   1  13
BRANCH   5  19
ATOM     19  C   UNL     1       5.072   4.249  17.805  0.00  0.00    +0.000 A 
ATOM     20  C   UNL     1       4.294   4.084  16.662  0.00  0.00    +0.000 A 
ATOM     21  C   UNL     1       4.870   4.170  15.383  0.00  0.00    +0.000 A 
ATOM     22  C   UNL     1       6.238   4.428  15.187  0.00  0.00    +0.000 A 
ATOM     23  C   UNL     1       6.988   4.638  16.351  0.00  0.00    +0.000 A 
ATOM     24  C   UNL     1       6.424   4.547  17.627  0.00  0.00    +0.000 A 
BRANCH  22  25
ATOM     25  N   UNL     1       6.825   4.437  13.932  0.00  0.00    +0.000 N 
ATOM     26  C   UNL     1       7.904   5.356  13.585  0.00  0.00    +0.000 C 
ATOM     27  C   UNL     1       6.330   3.621  12.830  0.00  0.00    +0.000 C 
ENDBRANCH  22  25
ENDBRANCH   5  19
TORSDOF 3
ENDMDL
MODEL 4
REMARK VINA RESULT:      -7.6      3.245      8.528
REMARK  Name = 
REMARK  7 active torsions:
REMARK  status: ('A' for Active; 'I' for Inactive)
REMARK    1  A    between atoms: C_1  and  C_2
REMARK    2  A    between atoms: C_6  and  C_7
REMARK    3  A    between atoms: N_11  and  C_12
REMARK    4  A    between atoms: C_15  and  N_16
REMARK    5  A    between atoms: N_16  and  C_17
REMARK    6  A    between atoms: N_16  and  C_18
REMARK    7  A    between atoms: C_22  and  C_23
REMARK                            x       y       z     vdW  Elec       q    Type
REMARK                         _______ _______ _______ _____ _____    ______ ____
ROOT
ATOM      1  C   UNL     1      -0.182  10.377  20.505  0.00  0.00    +0.000 A 
ATOM      2  C   UNL     1      -0.533  10.586  21.821  0.00  0.00    +0.000 A 
ATOM      3  S   UNL     1       0.212   9.416  22.829  0.00  0.00    +0.000 S 
ATOM      4  C   UNL     1       0.917   8.683  21.440  0.00  0.00    +0.000 A 
ATOM      5  N   UNL     1       1.669   7.564  21.565  0.00  0.00    +0.000 N 
ATOM      6  N   UNL     1       0.674   9.317  20.311  0.00  0.00    +0.000 NA
ATOM      7  H   UNL     1       1.946   7.254  22.487  0.00  0.00    +0.000 HD
ENDROOT
BRANCH   1  13
ATOM      8  C   UNL     1      -3.859  10.340  14.823  0.00  0.00    +0.000 C 
ATOM      9  C   UNL     1      -3.030  10.550  16.055  0.00  0.00    +0.000 A 
ATOM     10  C   UNL     1      -2.898   9.442  16.995  0.00  0.00    +0.000 A 
ATOM     11  C   UNL     1      -2.150   9.596  18.100  0.00  0.00    +0.000 A 
ATOM     12  N   UNL     1      -1.506  10.813  18.345  0.00  0.00    +0.000 N 
ATOM     13  C   UNL     1      -0.642  11.209  19.354  0.00  0.00    +0.000 A 
ATOM     14  C   UNL     1      -0.326  12.530  19.062  0.00  0.00    +0.000 A 
ATOM     15  C   UNL     1       0.456  13.541  19.813  0.00  0.00    +0.000 C 
ATOM     16  N   UNL     1      -0.926  12.926  17.887  0.00  0.00    +0.000 NA
ATOM     17  C   UNL     1      -1.618  11.892  17.471  0.00  0.00    +0.000 A 
ATOM     18  C   UNL     1      -2.412  11.725  16.302  0.00  0.00    +0.000 A 
ENDBRANCH   1  13
BRANCH   5  19
ATOM     19  C   UNL     1       1.904   6.643  20.532  0.00  0.00    +0.000 A 
ATOM     20  C   UNL     1       1.484   5.322  20.663  0.00  0.00    +0.000 A 
ATOM     21  C   UNL     1       1.837   4.357  19.705  0.00  0.00    +0.000 A 
ATOM     22  C   UNL     1       2.617   4.664  18.576  0.00  0.00    +0.000 A 
ATOM     23  C   UNL     1       2.985   6.008  18.442  0.00  0.00    +0.000 A 
ATOM     24  C   UNL     1       2.644   6.973  19.396  0.00  0.00    +0.000 A 
BRANCH  22  25
ATOM     25  N   UNL     1       3.031   3.702  17.670  0.00  0.00    +0.000 N 
ATOM     26  C   UNL     1       2.463   2.358  17.646  0.00  0.00    +0.000 C 
ATOM     27  C   UNL     1       4.146   3.917  16.756  0.00  0.00    +0.000 C 
ENDBRANCH  22  25
ENDBRANCH   5  19
TORSDOF 3
ENDMDL
MODEL 5
REMARK VINA RESULT:      -7.5      4.488     10.382
REMARK  Name = 
REMARK  7 active torsions:
REMARK  status: ('A' for Active; 'I' for Inactive)
REMARK    1  A    between atoms: C_1  and  C_2
REMARK    2  A    between atoms: C_6  and  C_7
REMARK    3  A    between atoms: N_11  and  C_12
REMARK    4  A    between atoms: C_15  and  N_16
REMARK    5  A    between atoms: N_16  and  C_17
REMARK    6  A    between atoms: N_16  and  C_18
REMARK    7  A    between atoms: C_22  and  C_23
REMARK                            x       y       z     vdW  Elec       q    Type
REMARK                         _______ _______ _______ _____ _____    ______ ____
ROOT
ATOM      1  C   UNL     1      -1.246  11.800  18.285  0.00  0.00    +0.000 A 
ATOM      2  C   UNL     1      -0.663  13.018  18.560  0.00  0.00    +0.000 A 
ATOM      3  S   UNL     1       1.028  12.833  18.777  0.00  0.00    +0.000 S 
ATOM      4  C   UNL     1       0.864  11.137  18.533  0.00  0.00    +0.000 A 
ATOM      5  N   UNL     1       1.943  10.325  18.631  0.00  0.00    +0.000 N 
ATOM      6  N   UNL     1      -0.359  10.750  18.233  0.00  0.00    +0.000 NA
ATOM      7  H   UNL     1       2.867  10.734  18.688  0.00  0.00    +0.000 HD
ENDROOT
BRANCH   1  13
ATOM      8  C   UNL     1      -7.430  12.399  20.969  0.00  0.00    +0.000 C 
ATOM      9  C   UNL     1      -6.154  12.221  20.199  0.00  0.00    +0.000 A 
ATOM     10  C   UNL     1      -4.907  12.653  20.820  0.00  0.00    +0.000 A 
ATOM     11  C   UNL     1      -3.749  12.493  20.162  0.00  0.00    +0.000 A 
ATOM     12  N   UNL     1      -3.742  11.918  18.887  0.00  0.00    +0.000 N 
ATOM     13  C   UNL     1      -2.702  11.586  18.033  0.00  0.00    +0.000 A 
ATOM     14  C   UNL     1      -3.313  11.039  16.912  0.00  0.00    +0.000 A 
ATOM     15  C   UNL     1      -2.761  10.597  15.609  0.00  0.00    +0.000 C 
ATOM     16  N   UNL     1      -4.680  10.981  17.082  0.00  0.00    +0.000 NA
ATOM     17  C   UNL     1      -4.916  11.501  18.264  0.00  0.00    +0.000 A 
ATOM     18  C   UNL     1      -6.142  11.673  18.965  0.00  0.00    +0.000 A 
ENDBRANCH   1  13
BRANCH   5  19
ATOM     19  C   UNL     1       1.882   8.950  18.905  0.00  0.00    +0.000 A 
ATOM     20  C   UNL     1       1.554   8.506  20.184  0.00  0.00    +0.000 A 
ATOM     21  C   UNL     1       1.629   7.142  20.512  0.00  0.00    +0.000 A 
ATOM     22  C   UNL     1       2.027   6.163  19.585  0.00  0.00    +0.000 A 
ATOM     23  C   UNL     1       2.305   6.629  18.294  0.00  0.00    +0.000 A 
ATOM     24  C   UNL     1       2.240   7.986  17.962  0.00  0.00    +0.000 A 
BRANCH  22  25
ATOM     25  N   UNL     1       2.176   4.829  19.924  0.00  0.00    +0.000 N 
ATOM     26  C   UNL     1       3.439   4.118  19.751  0.00  0.00    +0.000 C 
ATOM     27  C   UNL     1       1.058   4.002  20.362  0.00  0.00    +0.000 C 
ENDBRANCH  22  25
ENDBRANCH   5  19
TORSDOF 3
ENDMDL
MODEL 6
REMARK VINA RESULT:      -7.4      4.419     10.130
REMARK  Name = 
REMARK  7 active torsions:
REMARK  status: ('A' for Active; 'I' for Inactive)
REMARK    1  A    between atoms: C_1  and  C_2
REMARK    2  A    between atoms: C_6  and  C_7
REMARK    3  A    between atoms: N_11  and  C_12
REMARK    4  A    between atoms: C_15  and  N_16
REMARK    5  A    between atoms: N_16  and  C_17
REMARK    6  A    between atoms: N_16  and  C_18
REMARK    7  A    between atoms: C_22  and  C_23
REMARK                            x       y       z     vdW  Elec       q    Type
REMARK                         _______ _______ _______ _____ _____    ______ ____
ROOT
ATOM      1  C   UNL     1      -0.624  11.243  18.355  0.00  0.00    +0.000 A 
ATOM      2  C   UNL     1       0.134  12.380  18.522  0.00  0.00    +0.000 A 
ATOM      3  S   UNL     1       1.798  11.979  18.618  0.00  0.00    +0.000 S 
ATOM      4  C   UNL     1       1.393  10.311  18.474  0.00  0.00    +0.000 A 
ATOM      5  N   UNL     1       2.362   9.366  18.529  0.00  0.00    +0.000 N 
ATOM      6  N   UNL     1       0.110  10.081  18.289  0.00  0.00    +0.000 NA
ATOM      7  H   UNL     1       3.332   9.648  18.494  0.00  0.00    +0.000 HD
ENDROOT
BRANCH   1  13
ATOM      8  C   UNL     1      -6.425  13.051  21.336  0.00  0.00    +0.000 C 
ATOM      9  C   UNL     1      -5.254  12.599  20.514  0.00  0.00    +0.000 A 
ATOM     10  C   UNL     1      -3.912  12.913  20.993  0.00  0.00    +0.000 A 
ATOM     11  C   UNL     1      -2.845  12.509  20.287  0.00  0.00    +0.000 A 
ATOM     12  N   UNL     1      -3.022  11.794  19.098  0.00  0.00    +0.000 N 
ATOM     13  C   UNL     1      -2.112  11.216  18.227  0.00  0.00    +0.000 A 
ATOM     14  C   UNL     1      -2.882  10.638  17.227  0.00  0.00    +0.000 A 
ATOM     15  C   UNL     1      -2.505   9.971  15.958  0.00  0.00    +0.000 C 
ATOM     16  N   UNL     1      -4.225  10.801  17.491  0.00  0.00    +0.000 NA
ATOM     17  C   UNL     1      -4.290  11.485  18.610  0.00  0.00    +0.000 A 
ATOM     18  C   UNL     1      -5.419  11.916  19.362  0.00  0.00    +0.000 A 
ENDBRANCH   1  13
BRANCH   5  19
ATOM     19  C   UNL     1       2.144   8.023  18.877  0.00  0.00    +0.000 A 
ATOM     20  C   UNL     1       1.806   7.687  20.185  0.00  0.00    +0.000 A 
ATOM     21  C   UNL     1       1.727   6.341  20.583  0.00  0.00    +0.000 A 
ATOM     22  C   UNL     1       1.973   5.276  19.698  0.00  0.00    +0.000 A 
ATOM     23  C   UNL     1       2.262   5.642  18.377  0.00  0.00    +0.000 A 
ATOM     24  C   UNL     1       2.351   6.979  17.976  0.00  0.00    +0.000 A 
BRANCH  22  25
ATOM     25  N   UNL     1       1.971   3.952  20.103  0.00  0.00    +0.000 N 
ATOM     26  C   UNL     1       1.718   2.855  19.174  0.00  0.00    +0.000 C 
ATOM     27  C   UNL     1       2.098   3.560  21.501  0.00  0.00    +0.000 C 
ENDBRANCH  22  25
ENDBRANCH   5  19
TORSDOF 3
ENDMDL
MODEL 7
REMARK VINA RESULT:      -7.3      4.233     10.079
REMARK  Name = 
REMARK  7 active torsions:
REMARK  status: ('A' for Active; 'I' for Inactive)
REMARK    1  A    between atoms: C_1  and  C_2
REMARK    2  A    between atoms: C_6  and  C_7
REMARK    3  A    between atoms: N_11  and  C_12
REMARK    4  A    between atoms: C_15  and  N_16
REMARK    5  A    between atoms: N_16  and  C_17
REMARK    6  A    between atoms: N_16  and  C_18
REMARK    7  A    between atoms: C_22  and  C_23
REMARK                            x       y       z     vdW  Elec       q    Type
REMARK                         _______ _______ _______ _____ _____    ______ ____
ROOT
ATOM      1  C   UNL     1       0.507  10.875  20.135  0.00  0.00    +0.000 A 
ATOM      2  C   UNL     1       1.141  11.880  19.439  0.00  0.00    +0.000 A 
ATOM      3  S   UNL     1       2.106  11.219  18.185  0.00  0.00    +0.000 S 
ATOM      4  C   UNL     1       1.648   9.636  18.681  0.00  0.00    +0.000 A 
ATOM      5  N   UNL     1       2.159   8.549  18.055  0.00  0.00    +0.000 N 
ATOM      6  N   UNL     1       0.774   9.609  19.666  0.00  0.00    +0.000 NA
ATOM      7  H   UNL     1       2.682   8.671  17.198  0.00  0.00    +0.000 HD
ENDROOT
BRANCH   1  13
ATOM      8  C   UNL     1      -4.860  14.379  22.308  0.00  0.00    +0.000 C 
ATOM      9  C   UNL     1      -3.691  13.492  21.996  0.00  0.00    +0.000 A 
ATOM     10  C   UNL     1      -3.110  13.559  20.660  0.00  0.00    +0.000 A 
ATOM     11  C   UNL     1      -2.054  12.787  20.357  0.00  0.00    +0.000 A 
ATOM     12  N   UNL     1      -1.519  11.924  21.318  0.00  0.00    +0.000 N 
ATOM     13  C   UNL     1      -0.417  11.084  21.289  0.00  0.00    +0.000 A 
ATOM     14  C   UNL     1      -0.384  10.485  22.542  0.00  0.00    +0.000 A 
ATOM     15  C   UNL     1       0.478   9.414  23.096  0.00  0.00    +0.000 C 
ATOM     16  N   UNL     1      -1.394  10.974  23.342  0.00  0.00    +0.000 NA
ATOM     17  C   UNL     1      -2.055  11.832  22.601  0.00  0.00    +0.000 A 
ATOM     18  C   UNL     1      -3.175  12.651  22.918  0.00  0.00    +0.000 A 
ENDBRANCH   1  13
BRANCH   5  19
ATOM     19  C   UNL     1       2.237   7.267  18.623  0.00  0.00    +0.000 A 
ATOM     20  C   UNL     1       2.411   6.152  17.808  0.00  0.00    +0.000 A 
ATOM     21  C   UNL     1       2.345   4.854  18.343  0.00  0.00    +0.000 A 
ATOM     22  C   UNL     1       2.110   4.611  19.708  0.00  0.00    +0.000 A 
ATOM     23  C   UNL     1       1.988   5.750  20.513  0.00  0.00    +0.000 A 
ATOM     24  C   UNL     1       2.044   7.045  19.986  0.00  0.00    +0.000 A 
BRANCH  22  25
ATOM     25  N   UNL     1       1.969   3.335  20.226  0.00  0.00    +0.000 N 
ATOM     26  C   UNL     1       2.160   3.045  21.644  0.00  0.00    +0.000 C 
ATOM     27  C   UNL     1       1.743   2.167  19.383  0.00  0.00    +0.000 C 
ENDBRANCH  22  25
ENDBRANCH   5  19
TORSDOF 3
ENDMDL
MODEL 8
REMARK VINA RESULT:      -7.2      1.686      8.268
REMARK  Name = 
REMARK  7 active torsions:
REMARK  status: ('A' for Active; 'I' for Inactive)
REMARK    1  A    between atoms: C_1  and  C_2
REMARK    2  A    between atoms: C_6  and  C_7
REMARK    3  A    between atoms: N_11  and  C_12
REMARK    4  A    between atoms: C_15  and  N_16
REMARK    5  A    between atoms: N_16  and  C_17
REMARK    6  A    between atoms: N_16  and  C_18
REMARK    7  A    between atoms: C_22  and  C_23
REMARK                            x       y       z     vdW  Elec       q    Type
REMARK                         _______ _______ _______ _____ _____    ______ ____
ROOT
ATOM      1  C   UNL     1       2.156   6.493  20.116  0.00  0.00    +0.000 A 
ATOM      2  C   UNL     1       1.495   5.725  21.049  0.00  0.00    +0.000 A 
ATOM      3  S   UNL     1       2.224   4.178  21.172  0.00  0.00    +0.000 S 
ATOM      4  C   UNL     1       3.345   4.620  19.942  0.00  0.00    +0.000 A 
ATOM      5  N   UNL     1       4.261   3.727  19.499  0.00  0.00    +0.000 N 
ATOM      6  N   UNL     1       3.229   5.865  19.527  0.00  0.00    +0.000 NA
ATOM      7  H   UNL     1       4.389   2.859  20.001  0.00  0.00    +0.000 HD
ENDROOT
BRANCH   1  13
ATOM      8  C   UNL     1      -0.839  12.143  22.334  0.00  0.00    +0.000 C 
ATOM      9  C   UNL     1      -0.114  11.002  21.683  0.00  0.00    +0.000 A 
ATOM     10  C   UNL     1       0.092   9.783  22.457  0.00  0.00    +0.000 A 
ATOM     11  C   UNL     1       0.724   8.741  21.896  0.00  0.00    +0.000 A 
ATOM     12  N   UNL     1       1.184   8.828  20.578  0.00  0.00    +0.000 N 
ATOM     13  C   UNL     1       1.798   7.897  19.754  0.00  0.00    +0.000 A 
ATOM     14  C   UNL     1       2.013   8.561  18.554  0.00  0.00    +0.000 A 
ATOM     15  C   UNL     1       2.726   8.153  17.319  0.00  0.00    +0.000 C 
ATOM     16  N   UNL     1       1.503   9.841  18.607  0.00  0.00    +0.000 NA
ATOM     17  C   UNL     1       1.009   9.980  19.815  0.00  0.00    +0.000 A 
ATOM     18  C   UNL     1       0.339  11.083  20.414  0.00  0.00    +0.000 A 
ENDBRANCH   1  13
BRANCH   5  19
ATOM     19  C   UNL     1       4.894   3.791  18.248  0.00  0.00    +0.000 A 
ATOM     20  C   UNL     1       6.135   4.409  18.123  0.00  0.00    +0.000 A 
ATOM     21  C   UNL     1       6.715   4.609  16.858  0.00  0.00    +0.000 A 
ATOM     22  C   UNL     1       6.089   4.198  15.668  0.00  0.00    +0.000 A 
ATOM     23  C   UNL     1       4.866   3.535  15.825  0.00  0.00    +0.000 A 
ATOM     24  C   UNL     1       4.279   3.339  17.080  0.00  0.00    +0.000 A 
BRANCH  22  25
ATOM     25  N   UNL     1       6.619   4.460  14.416  0.00  0.00    +0.000 N 
ATOM     26  C   UNL     1       7.612   5.507  14.194  0.00  0.00    +0.000 C 
ATOM     27  C   UNL     1       6.140   3.799  13.208  0.00  0.00    +0.000 C 
ENDBRANCH  22  25
ENDBRANCH   5  19
TORSDOF 3
ENDMDL
MODEL 9
REMARK VINA RESULT:      -7.2      4.279      7.720
REMARK  Name = 
REMARK  7 active torsions:
REMARK  status: ('A' for Active; 'I' for Inactive)
REMARK    1  A    between atoms: C_1  and  C_2
REMARK    2  A    between atoms: C_6  and  C_7
REMARK    3  A    between atoms: N_11  and  C_12
REMARK    4  A    between atoms: C_15  and  N_16
REMARK    5  A    between atoms: N_16  and  C_17
REMARK    6  A    between atoms: N_16  and  C_18
REMARK    7  A    between atoms: C_22  and  C_23
REMARK                            x       y       z     vdW  Elec       q    Type
REMARK                         _______ _______ _______ _____ _____    ______ ____
ROOT
ATOM      1  C   UNL     1       0.215  11.311  20.120  0.00  0.00    +0.000 A 
ATOM      2  C   UNL     1      -1.078  11.750  20.305  0.00  0.00    +0.000 A 
ATOM      3  S   UNL     1      -1.236  13.374  19.779  0.00  0.00    +0.000 S 
ATOM      4  C   UNL     1       0.438  13.398  19.381  0.00  0.00    +0.000 A 
ATOM      5  N   UNL     1       1.012  14.529  18.907  0.00  0.00    +0.000 N 
ATOM      6  N   UNL     1       1.052  12.246  19.556  0.00  0.00    +0.000 NA
ATOM      7  H   UNL     1       0.425  15.307  18.639  0.00  0.00    +0.000 HD
ENDROOT
BRANCH   1  13
ATOM      8  C   UNL     1       3.411   5.866  17.683  0.00  0.00    +0.000 C 
ATOM      9  C   UNL     1       2.718   6.983  18.406  0.00  0.00    +0.000 A 
ATOM     10  C   UNL     1       2.484   8.230  17.687  0.00  0.00    +0.000 A 
ATOM     11  C   UNL     1       1.854   9.242  18.303  0.00  0.00    +0.000 A 
ATOM     12  N   UNL     1       1.427   9.099  19.627  0.00  0.00    +0.000 N 
ATOM     13  C   UNL     1       0.712   9.945  20.460  0.00  0.00    +0.000 A 
ATOM     14  C   UNL     1       0.584   9.253  21.658  0.00  0.00    +0.000 A 
ATOM     15  C   UNL     1       0.027   9.655  22.971  0.00  0.00    +0.000 C 
ATOM     16  N   UNL     1       1.151   8.000  21.559  0.00  0.00    +0.000 NA
ATOM     17  C   UNL     1       1.641   7.923  20.343  0.00  0.00    +0.000 A 
ATOM     18  C   UNL     1       2.310   6.853  19.687  0.00  0.00    +0.000 A 
ENDBRANCH   1  13
BRANCH   5  19
ATOM     19  C   UNL     1       2.385  14.816  18.979  0.00  0.00    +0.000 A 
ATOM     20  C   UNL     1       3.148  14.874  17.816  0.00  0.00    +0.000 A 
ATOM     21  C   UNL     1       4.545  15.015  17.881  0.00  0.00    +0.000 A 
ATOM     22  C   UNL     1       5.239  15.111  19.100  0.00  0.00    +0.000 A 
ATOM     23  C   UNL     1       4.443  15.100  20.252  0.00  0.00    +0.000 A 
ATOM     24  C   UNL     1       3.053  14.951  20.196  0.00  0.00    +0.000 A 
BRANCH  22  25
ATOM     25  N   UNL     1       6.620  15.174  19.171  0.00  0.00    +0.000 N 
ATOM     26  C   UNL     1       7.465  15.111  17.982  0.00  0.00    +0.000 C 
ATOM     27  C   UNL     1       7.340  15.183  20.439  0.00  0.00    +0.000 C 
ENDBRANCH  22  25
ENDBRANCH   5  19
TORSDOF 3
ENDMDL
