MODEL 1
REMARK VINA RESULT:      -7.3      0.000      0.000
REMARK  Name = 
REMARK  3 active torsions:
REMARK  status: ('A' for Active; 'I' for Inactive)
REMARK    1  A    between atoms: C_1  and  C_2
REMARK    2  A    between atoms: C_10  and  O_11
REMARK    3  A    between atoms: C_17  and  C_18
REMARK                            x       y       z     vdW  Elec       q    Type
REMARK                         _______ _______ _______ _____ _____    ______ ____
ROOT
ATOM      1  C   UNL     1       5.468   6.742  16.283  0.00  0.00    +0.000 C 
ATOM      2  C   UNL     1       4.666   6.220  17.480  0.00  0.00    +0.000 C 
ATOM      3  C   UNL     1       3.253   6.710  17.157  0.00  0.00    +0.000 C 
ATOM      4  C   UNL     1       2.211   6.328  18.149  0.00  0.00    +0.000 C 
ATOM      5  O   UNL     1       2.170   7.115  19.346  0.00  0.00    +0.000 OA
ATOM      6  C   UNL     1       1.624   6.290  20.327  0.00  0.00    +0.000 C 
ATOM      7  O   UNL     1       1.472   6.609  21.493  0.00  0.00    +0.000 OA
ATOM      8  C   UNL     1       1.227   4.982  19.676  0.00  0.00    +0.000 C 
ATOM      9  C   UNL     1       1.016   3.739  20.477  0.00  0.00    +0.000 C 
ATOM     10  C   UNL     1       2.322   3.167  20.998  0.00  0.00    +0.000 C 
ATOM     11  C   UNL     1       3.600   3.329  20.042  0.00  0.00    +0.000 C 
ATOM     12  C   UNL     1       3.509   4.269  18.799  0.00  0.00    +0.000 C 
ATOM     13  C   UNL     1       2.371   4.992  18.736  0.00  0.00    +0.000 C 
ATOM     14  C   UNL     1       4.743   4.658  17.839  0.00  0.00    +0.000 C 
ATOM     15  C   UNL     1       4.844   3.716  16.618  0.00  0.00    +0.000 C 
ATOM     16  C   UNL     1       6.321   3.654  16.207  0.00  0.00    +0.000 C 
ATOM     17  O   UNL     1       7.028   4.082  17.381  0.00  0.00    +0.000 OA
ATOM     18  C   UNL     1       6.168   4.436  18.394  0.00  0.00    +0.000 C 
ATOM     19  O   UNL     1       6.512   4.643  19.543  0.00  0.00    +0.000 OA
ENDROOT
BRANCH  16  20
ATOM     20  C   UNL     1       6.736   4.377  14.941  0.00  0.00    +0.000 A 
ATOM     21  C   UNL     1       6.225   4.205  13.605  0.00  0.00    +0.000 A 
ATOM     22  C   UNL     1       7.023   4.955  12.766  0.00  0.00    +0.000 A 
ATOM     23  O   UNL     1       7.915   5.670  13.491  0.00  0.00    +0.000 OA
ATOM     24  C   UNL     1       7.714   5.351  14.798  0.00  0.00    +0.000 A 
ENDBRANCH  16  20
BRANCH  10  25
ATOM     25  O   UNL     1       2.566   3.753  22.285  0.00  0.00    +0.000 OA
ATOM     26  H   UNL     1       3.060   3.115  22.850  0.00  0.00    +0.000 HD
ENDBRANCH  10  25
TORSDOF 2
ENDMDL
MODEL 2
REMARK VINA RESULT:      -7.3      2.998      5.982
REMARK  Name = 
REMARK  3 active torsions:
REMARK  status: ('A' for Active; 'I' for Inactive)
REMARK    1  A    between atoms: C_1  and  C_2
REMARK    2  A    between atoms: C_10  and  O_11
REMARK    3  A    between atoms: C_17  and  C_18
REMARK                            x       y       z     vdW  Elec       q    Type
REMARK                         _______ _______ _______ _____ _____    ______ ____
ROOT
ATOM      1  C   UNL     1       1.787   8.452  20.610  0.00  0.00    +0.000 C 
ATOM      2  C   UNL     1       2.219   7.061  20.131  0.00  0.00    +0.000 C 
ATOM      3  C   UNL     1       1.284   6.146  20.923  0.00  0.00    +0.000 C 
ATOM      4  C   UNL     1       1.446   4.691  20.651  0.00  0.00    +0.000 C 
ATOM      5  O   UNL     1       2.557   4.055  21.297  0.00  0.00    +0.000 OA
ATOM      6  C   UNL     1       2.892   2.965  20.496  0.00  0.00    +0.000 C 
ATOM      7  O   UNL     1       3.822   2.208  20.712  0.00  0.00    +0.000 OA
ATOM      8  C   UNL     1       1.882   2.879  19.371  0.00  0.00    +0.000 C 
ATOM      9  C   UNL     1       2.169   2.123  18.115  0.00  0.00    +0.000 C 
ATOM     10  C   UNL     1       3.191   2.830  17.243  0.00  0.00    +0.000 C 
ATOM     11  C   UNL     1       3.142   4.433  17.250  0.00  0.00    +0.000 C 
ATOM     12  C   UNL     1       2.269   5.165  18.317  0.00  0.00    +0.000 C 
ATOM     13  C   UNL     1       1.743   4.349  19.255  0.00  0.00    +0.000 C 
ATOM     14  C   UNL     1       2.239   6.758  18.555  0.00  0.00    +0.000 C 
ATOM     15  C   UNL     1       1.111   7.441  17.750  0.00  0.00    +0.000 C 
ATOM     16  C   UNL     1       1.569   8.873  17.440  0.00  0.00    +0.000 C 
ATOM     17  O   UNL     1       2.996   8.822  17.590  0.00  0.00    +0.000 OA
ATOM     18  C   UNL     1       3.423   7.580  17.996  0.00  0.00    +0.000 C 
ATOM     19  O   UNL     1       4.587   7.225  18.007  0.00  0.00    +0.000 OA
ENDROOT
BRANCH  16  20
ATOM     20  C   UNL     1       0.910  10.008  18.199  0.00  0.00    +0.000 A 
ATOM     21  C   UNL     1      -0.466  10.130  18.608  0.00  0.00    +0.000 A 
ATOM     22  C   UNL     1      -0.627  11.402  19.115  0.00  0.00    +0.000 A 
ATOM     23  O   UNL     1       0.568  12.038  19.161  0.00  0.00    +0.000 OA
ATOM     24  C   UNL     1       1.494  11.184  18.647  0.00  0.00    +0.000 A 
ENDBRANCH  16  20
BRANCH  10  25
ATOM     25  O   UNL     1       4.489   2.353  17.626  0.00  0.00    +0.000 OA
ATOM     26  H   UNL     1       4.460   2.028  18.556  0.00  0.00    +0.000 HD
ENDBRANCH  10  25
TORSDOF 2
ENDMDL
MODEL 3
REMARK VINA RESULT:      -6.7      9.597     13.891
REMARK  Name = 
REMARK  3 active torsions:
REMARK  status: ('A' for Active; 'I' for Inactive)
REMARK    1  A    between atoms: C_1  and  C_2
REMARK    2  A    between atoms: C_10  and  O_11
REMARK    3  A    between atoms: C_17  and  C_18
REMARK                            x       y       z     vdW  Elec       q    Type
REMARK                         _______ _______ _______ _____ _____    ______ ____
ROOT
ATOM      1  C   UNL     1      -5.018  14.324  21.890  0.00  0.00    +0.000 C 
ATOM      2  C   UNL     1      -4.420  13.680  20.633  0.00  0.00    +0.000 C 
ATOM      3  C   UNL     1      -3.169  12.998  21.187  0.00  0.00    +0.000 C 
ATOM      4  C   UNL     1      -2.365  12.246  20.185  0.00  0.00    +0.000 C 
ATOM      5  O   UNL     1      -1.516  13.038  19.344  0.00  0.00    +0.000 OA
ATOM      6  C   UNL     1      -1.353  12.308  18.169  0.00  0.00    +0.000 C 
ATOM      7  O   UNL     1      -0.721  12.689  17.199  0.00  0.00    +0.000 OA
ATOM      8  C   UNL     1      -2.052  10.975  18.341  0.00  0.00    +0.000 C 
ATOM      9  C   UNL     1      -2.446  10.138  17.168  0.00  0.00    +0.000 C 
ATOM     10  C   UNL     1      -3.615  10.735  16.407  0.00  0.00    +0.000 C 
ATOM     11  C   UNL     1      -4.718  11.499  17.285  0.00  0.00    +0.000 C 
ATOM     12  C   UNL     1      -4.413  11.821  18.781  0.00  0.00    +0.000 C 
ATOM     13  C   UNL     1      -3.147  11.546  19.159  0.00  0.00    +0.000 C 
ATOM     14  C   UNL     1      -5.345  12.715  19.746  0.00  0.00    +0.000 C 
ATOM     15  C   UNL     1      -6.340  11.850  20.551  0.00  0.00    +0.000 C 
ATOM     16  C   UNL     1      -7.578  12.713  20.830  0.00  0.00    +0.000 C 
ATOM     17  O   UNL     1      -7.508  13.753  19.843  0.00  0.00    +0.000 OA
ATOM     18  C   UNL     1      -6.376  13.646  19.069  0.00  0.00    +0.000 C 
ATOM     19  O   UNL     1      -6.182  14.280  18.048  0.00  0.00    +0.000 OA
ENDROOT
BRANCH  16  20
ATOM     20  C   UNL     1      -7.785  13.220  22.244  0.00  0.00    +0.000 A 
ATOM     21  C   UNL     1      -7.914  14.583  22.695  0.00  0.00    +0.000 A 
ATOM     22  C   UNL     1      -7.916  14.555  24.073  0.00  0.00    +0.000 A 
ATOM     23  O   UNL     1      -7.916  13.274  24.511  0.00  0.00    +0.000 OA
ATOM     24  C   UNL     1      -7.878  12.476  23.411  0.00  0.00    +0.000 A 
ENDBRANCH  16  20
BRANCH  10  25
ATOM     25  O   UNL     1      -3.075  11.597  15.395  0.00  0.00    +0.000 OA
ATOM     26  H   UNL     1      -3.091  12.530  15.713  0.00  0.00    +0.000 HD
ENDBRANCH  10  25
TORSDOF 2
ENDMDL
MODEL 4
REMARK VINA RESULT:      -6.4      8.797     13.266
REMARK  Name = 
REMARK  3 active torsions:
REMARK  status: ('A' for Active; 'I' for Inactive)
REMARK    1  A    between atoms: C_1  and  C_2
REMARK    2  A    between atoms: C_10  and  O_11
REMARK    3  A    between atoms: C_17  and  C_18
REMARK                            x       y       z     vdW  Elec       q    Type
REMARK                         _______ _______ _______ _____ _____    ______ ____
ROOT
ATOM      1  C   UNL     1      -4.166  13.447  23.864  0.00  0.00    +0.000 C 
ATOM      2  C   UNL     1      -3.085  13.181  22.810  0.00  0.00    +0.000 C 
ATOM      3  C   UNL     1      -2.470  11.871  23.307  0.00  0.00    +0.000 C 
ATOM      4  C   UNL     1      -1.377  11.326  22.457  0.00  0.00    +0.000 C 
ATOM      5  O   UNL     1      -0.094  11.945  22.616  0.00  0.00    +0.000 OA
ATOM      6  C   UNL     1       0.573  11.760  21.407  0.00  0.00    +0.000 C 
ATOM      7  O   UNL     1       1.684  12.191  21.156  0.00  0.00    +0.000 OA
ATOM      8  C   UNL     1      -0.303  10.909  20.511  0.00  0.00    +0.000 C 
ATOM      9  C   UNL     1      -0.112  10.873  19.030  0.00  0.00    +0.000 C 
ATOM     10  C   UNL     1      -0.557  12.162  18.365  0.00  0.00    +0.000 C 
ATOM     11  C   UNL     1      -1.826  12.896  19.017  0.00  0.00    +0.000 C 
ATOM     12  C   UNL     1      -2.350  12.422  20.408  0.00  0.00    +0.000 C 
ATOM     13  C   UNL     1      -1.562  11.507  21.012  0.00  0.00    +0.000 C 
ATOM     14  C   UNL     1      -3.505  13.152  21.262  0.00  0.00    +0.000 C 
ATOM     15  C   UNL     1      -4.900  12.549  20.980  0.00  0.00    +0.000 C 
ATOM     16  C   UNL     1      -5.934  13.662  21.199  0.00  0.00    +0.000 C 
ATOM     17  O   UNL     1      -5.170  14.873  21.093  0.00  0.00    +0.000 OA
ATOM     18  C   UNL     1      -3.832  14.618  20.900  0.00  0.00    +0.000 C 
ATOM     19  O   UNL     1      -3.013  15.462  20.588  0.00  0.00    +0.000 OA
ENDROOT
BRANCH  16  20
ATOM     20  C   UNL     1      -6.803  13.589  22.439  0.00  0.00    +0.000 A 
ATOM     21  C   UNL     1      -7.318  14.675  23.235  0.00  0.00    +0.000 A 
ATOM     22  C   UNL     1      -7.908  14.116  24.348  0.00  0.00    +0.000 A 
ATOM     23  O   UNL     1      -7.903  12.766  24.248  0.00  0.00    +0.000 OA
ATOM     24  C   UNL     1      -7.275  12.455  23.083  0.00  0.00    +0.000 A 
ENDBRANCH  16  20
BRANCH  10  25
ATOM     25  O   UNL     1       0.577  13.040  18.321  0.00  0.00    +0.000 OA
ATOM     26  H   UNL     1       1.390  12.542  18.571  0.00  0.00    +0.000 HD
ENDBRANCH  10  25
TORSDOF 2
ENDMDL
MODEL 5
REMARK VINA RESULT:      -6.2      8.822     12.948
REMARK  Name = 
REMARK  3 active torsions:
REMARK  status: ('A' for Active; 'I' for Inactive)
REMARK    1  A    between atoms: C_1  and  C_2
REMARK    2  A    between atoms: C_10  and  O_11
REMARK    3  A    between atoms: C_17  and  C_18
REMARK                            x       y       z     vdW  Elec       q    Type
REMARK                         _______ _______ _______ _____ _____    ______ ____
ROOT
ATOM      1  C   UNL     1      -3.516  15.417  21.948  0.00  0.00    +0.000 C 
ATOM      2  C   UNL     1      -2.820  14.065  21.752  0.00  0.00    +0.000 C 
ATOM      3  C   UNL     1      -1.836  14.373  20.622  0.00  0.00    +0.000 C 
ATOM      4  C   UNL     1      -0.972  13.233  20.211  0.00  0.00    +0.000 C 
ATOM      5  O   UNL     1      -1.588  12.257  19.360  0.00  0.00    +0.000 OA
ATOM      6  C   UNL     1      -0.903  11.065  19.586  0.00  0.00    +0.000 C 
ATOM      7  O   UNL     1      -1.178  10.000  19.063  0.00  0.00    +0.000 OA
ATOM      8  C   UNL     1       0.237  11.350  20.541  0.00  0.00    +0.000 C 
ATOM      9  C   UNL     1       0.896  10.262  21.324  0.00  0.00    +0.000 C 
ATOM     10  C   UNL     1       0.003   9.734  22.432  0.00  0.00    +0.000 C 
ATOM     11  C   UNL     1      -0.949  10.808  23.148  0.00  0.00    +0.000 C 
ATOM     12  C   UNL     1      -1.111  12.226  22.516  0.00  0.00    +0.000 C 
ATOM     13  C   UNL     1      -0.529  12.361  21.306  0.00  0.00    +0.000 C 
ATOM     14  C   UNL     1      -2.145  13.354  23.022  0.00  0.00    +0.000 C 
ATOM     15  C   UNL     1      -1.494  14.320  24.037  0.00  0.00    +0.000 C 
ATOM     16  C   UNL     1      -2.605  14.831  24.964  0.00  0.00    +0.000 C 
ATOM     17  O   UNL     1      -3.651  13.857  24.823  0.00  0.00    +0.000 OA
ATOM     18  C   UNL     1      -3.325  12.887  23.904  0.00  0.00    +0.000 C 
ATOM     19  O   UNL     1      -3.950  11.855  23.748  0.00  0.00    +0.000 OA
ENDROOT
BRANCH  16  20
ATOM     20  C   UNL     1      -3.071  16.264  24.791  0.00  0.00    +0.000 A 
ATOM     21  C   UNL     1      -4.396  16.800  24.971  0.00  0.00    +0.000 A 
ATOM     22  C   UNL     1      -4.365  18.109  24.538  0.00  0.00    +0.000 A 
ATOM     23  O   UNL     1      -3.098  18.461  24.214  0.00  0.00    +0.000 OA
ATOM     24  C   UNL     1      -2.318  17.363  24.405  0.00  0.00    +0.000 A 
ENDBRANCH  16  20
BRANCH  10  25
ATOM     25  O   UNL     1      -0.762   8.649  21.889  0.00  0.00    +0.000 OA
ATOM     26  H   UNL     1      -0.833   7.928  22.557  0.00  0.00    +0.000 HD
ENDBRANCH  10  25
TORSDOF 2
ENDMDL
MODEL 6
REMARK VINA RESULT:      -6.2      7.863     10.559
REMARK  Name = 
REMARK  3 active torsions:
REMARK  status: ('A' for Active; 'I' for Inactive)
REMARK    1  A    between atoms: C_1  and  C_2
REMARK    2  A    between atoms: C_10  and  O_11
REMARK    3  A    between atoms: C_17  and  C_18
REMARK                            x       y       z     vdW  Elec       q    Type
REMARK                         _______ _______ _______ _____ _____    ______ ____
ROOT
ATOM      1  C   UNL     1      -1.057  12.499  18.635  0.00  0.00    +0.000 C 
ATOM      2  C   UNL     1      -1.884  12.942  19.848  0.00  0.00    +0.000 C 
ATOM      3  C   UNL     1      -3.281  12.439  19.483  0.00  0.00    +0.000 C 
ATOM      4  C   UNL     1      -4.332  12.703  20.504  0.00  0.00    +0.000 C 
ATOM      5  O   UNL     1      -4.859  14.036  20.528  0.00  0.00    +0.000 OA
ATOM      6  C   UNL     1      -5.310  14.245  21.830  0.00  0.00    +0.000 C 
ATOM      7  O   UNL     1      -5.787  15.289  22.238  0.00  0.00    +0.000 OA
ATOM      8  C   UNL     1      -5.140  12.953  22.601  0.00  0.00    +0.000 C 
ATOM      9  C   UNL     1      -5.112  12.927  24.095  0.00  0.00    +0.000 C 
ATOM     10  C   UNL     1      -3.828  13.515  24.652  0.00  0.00    +0.000 C 
ATOM     11  C   UNL     1      -2.498  13.253  23.796  0.00  0.00    +0.000 C 
ATOM     12  C   UNL     1      -2.621  12.673  22.352  0.00  0.00    +0.000 C 
ATOM     13  C   UNL     1      -3.889  12.586  21.898  0.00  0.00    +0.000 C 
ATOM     14  C   UNL     1      -1.400  12.503  21.314  0.00  0.00    +0.000 C 
ATOM     15  C   UNL     1      -0.766  11.096  21.393  0.00  0.00    +0.000 C 
ATOM     16  C   UNL     1       0.709  11.234  20.991  0.00  0.00    +0.000 C 
ATOM     17  O   UNL     1       0.994  12.628  21.184  0.00  0.00    +0.000 OA
ATOM     18  C   UNL     1      -0.121  13.326  21.586  0.00  0.00    +0.000 C 
ATOM     19  O   UNL     1      -0.100  14.470  21.999  0.00  0.00    +0.000 OA
ENDROOT
BRANCH  16  20
ATOM     20  C   UNL     1       1.128  10.702  19.635  0.00  0.00    +0.000 A 
ATOM     21  C   UNL     1       0.842   9.415  19.052  0.00  0.00    +0.000 A 
ATOM     22  C   UNL     1       1.570   9.328  17.885  0.00  0.00    +0.000 A 
ATOM     23  O   UNL     1       2.193  10.504  17.638  0.00  0.00    +0.000 OA
ATOM     24  C   UNL     1       1.894  11.339  18.670  0.00  0.00    +0.000 A 
ENDBRANCH  16  20
BRANCH  10  25
ATOM     25  O   UNL     1      -4.046  14.919  24.848  0.00  0.00    +0.000 OA
ATOM     26  H   UNL     1      -4.447  15.308  24.037  0.00  0.00    +0.000 HD
ENDBRANCH  10  25
TORSDOF 2
ENDMDL
MODEL 7
REMARK VINA RESULT:      -6.2     11.303     14.376
REMARK  Name = 
REMARK  3 active torsions:
REMARK  status: ('A' for Active; 'I' for Inactive)
REMARK    1  A    between atoms: C_1  and  C_2
REMARK    2  A    between atoms: C_10  and  O_11
REMARK    3  A    between atoms: C_17  and  C_18
REMARK                            x       y       z     vdW  Elec       q    Type
REMARK                         _______ _______ _______ _____ _____    ______ ____
ROOT
ATOM      1  C   UNL     1      -5.968  13.804  23.955  0.00  0.00    +0.000 C 
ATOM      2  C   UNL     1      -5.822  12.973  22.675  0.00  0.00    +0.000 C 
ATOM      3  C   UNL     1      -7.275  12.835  22.216  0.00  0.00    +0.000 C 
ATOM      4  C   UNL     1      -7.467  12.078  20.949  0.00  0.00    +0.000 C 
ATOM      5  O   UNL     1      -7.404  10.650  21.059  0.00  0.00    +0.000 OA
ATOM      6  C   UNL     1      -7.000  10.188  19.808  0.00  0.00    +0.000 C 
ATOM      7  O   UNL     1      -6.799   9.017  19.535  0.00  0.00    +0.000 OA
ATOM      8  C   UNL     1      -6.908  11.376  18.873  0.00  0.00    +0.000 C 
ATOM      9  C   UNL     1      -6.111  11.322  17.611  0.00  0.00    +0.000 C 
ATOM     10  C   UNL     1      -4.618  11.322  17.878  0.00  0.00    +0.000 C 
ATOM     11  C   UNL     1      -4.121  12.190  19.132  0.00  0.00    +0.000 C 
ATOM     12  C   UNL     1      -5.174  12.743  20.142  0.00  0.00    +0.000 C 
ATOM     13  C   UNL     1      -6.430  12.294  19.932  0.00  0.00    +0.000 C 
ATOM     14  C   UNL     1      -4.828  13.491  21.527  0.00  0.00    +0.000 C 
ATOM     15  C   UNL     1      -4.777  15.026  21.357  0.00  0.00    +0.000 C 
ATOM     16  C   UNL     1      -3.792  15.571  22.401  0.00  0.00    +0.000 C 
ATOM     17  O   UNL     1      -2.989  14.433  22.751  0.00  0.00    +0.000 OA
ATOM     18  C   UNL     1      -3.406  13.295  22.100  0.00  0.00    +0.000 C 
ATOM     19  O   UNL     1      -2.778  12.253  22.074  0.00  0.00    +0.000 OA
ENDROOT
BRANCH  16  20
ATOM     20  C   UNL     1      -4.361  16.312  23.595  0.00  0.00    +0.000 A 
ATOM     21  C   UNL     1      -5.507  17.184  23.642  0.00  0.00    +0.000 A 
ATOM     22  C   UNL     1      -5.532  17.753  24.897  0.00  0.00    +0.000 A 
ATOM     23  O   UNL     1      -4.561  17.213  25.670  0.00  0.00    +0.000 OA
ATOM     24  C   UNL     1      -3.886  16.321  24.898  0.00  0.00    +0.000 A 
ENDBRANCH  16  20
BRANCH  10  25
ATOM     25  O   UNL     1      -4.200   9.955  18.000  0.00  0.00    +0.000 OA
ATOM     26  H   UNL     1      -4.550   9.577  18.840  0.00  0.00    +0.000 HD
ENDBRANCH  10  25
TORSDOF 2
ENDMDL
MODEL 8
REMARK VINA RESULT:      -6.2      9.621     12.503
REMARK  Name = 
REMARK  3 active torsions:
REMARK  status: ('A' for Active; 'I' for Inactive)
REMARK    1  A    between atoms: C_1  and  C_2
REMARK    2  A    between atoms: C_10  and  O_11
REMARK    3  A    between atoms: C_17  and  C_18
REMARK                            x       y       z     vdW  Elec       q    Type
REMARK                         _______ _______ _______ _____ _____    ______ ____
ROOT
ATOM      1  C   UNL     1       8.445  12.646  23.809  0.00  0.00    +0.000 C 
ATOM      2  C   UNL     1       9.151  12.847  22.463  0.00  0.00    +0.000 C 
ATOM      3  C   UNL     1       8.824  11.543  21.732  0.00  0.00    +0.000 C 
ATOM      4  C   UNL     1       9.365  11.444  20.349  0.00  0.00    +0.000 C 
ATOM      5  O   UNL     1      10.755  11.110  20.245  0.00  0.00    +0.000 OA
ATOM      6  C   UNL     1      11.187  11.643  19.032  0.00  0.00    +0.000 C 
ATOM      7  O   UNL     1      12.333  11.590  18.622  0.00  0.00    +0.000 OA
ATOM      8  C   UNL     1       9.987  12.240  18.326  0.00  0.00    +0.000 C 
ATOM      9  C   UNL     1      10.140  13.251  17.237  0.00  0.00    +0.000 C 
ATOM     10  C   UNL     1      10.591  14.599  17.768  0.00  0.00    +0.000 C 
ATOM     11  C   UNL     1      10.030  15.017  19.211  0.00  0.00    +0.000 C 
ATOM     12  C   UNL     1       9.303  13.948  20.087  0.00  0.00    +0.000 C 
ATOM     13  C   UNL     1       9.353  12.696  19.584  0.00  0.00    +0.000 C 
ATOM     14  C   UNL     1       8.826  14.166  21.610  0.00  0.00    +0.000 C 
ATOM     15  C   UNL     1       7.360  14.648  21.693  0.00  0.00    +0.000 C 
ATOM     16  C   UNL     1       7.224  15.488  22.970  0.00  0.00    +0.000 C 
ATOM     17  O   UNL     1       8.573  15.874  23.279  0.00  0.00    +0.000 OA
ATOM     18  C   UNL     1       9.474  15.330  22.394  0.00  0.00    +0.000 C 
ATOM     19  O   UNL     1      10.644  15.657  22.321  0.00  0.00    +0.000 OA
ENDROOT
BRANCH  16  20
ATOM     20  C   UNL     1       6.474  14.884  24.141  0.00  0.00    +0.000 A 
ATOM     21  C   UNL     1       6.677  15.115  25.549  0.00  0.00    +0.000 A 
ATOM     22  C   UNL     1       5.877  14.221  26.226  0.00  0.00    +0.000 A 
ATOM     23  O   UNL     1       5.106  13.533  25.352  0.00  0.00    +0.000 OA
ATOM     24  C   UNL     1       5.439  13.961  24.105  0.00  0.00    +0.000 A 
ENDBRANCH  16  20
BRANCH  10  25
ATOM     25  O   UNL     1      12.025  14.612  17.751  0.00  0.00    +0.000 OA
ATOM     26  H   UNL     1      12.367  13.713  17.965  0.00  0.00    +0.000 HD
ENDBRANCH  10  25
TORSDOF 2
ENDMDL
MODEL 9
REMARK VINA RESULT:      -6.1     10.557     13.229
REMARK  Name = 
REMARK  3 active torsions:
REMARK  status: ('A' for Active; 'I' for Inactive)
REMARK    1  A    between atoms: C_1  and  C_2
REMARK    2  A    between atoms: C_10  and  O_11
REMARK    3  A    between atoms: C_17  and  C_18
REMARK                            x       y       z     vdW  Elec       q    Type
REMARK                         _______ _______ _______ _____ _____    ______ ____
ROOT
ATOM      1  C   UNL     1      -4.308  13.473  24.006  0.00  0.00    +0.000 C 
ATOM      2  C   UNL     1      -4.433  12.772  22.649  0.00  0.00    +0.000 C 
ATOM      3  C   UNL     1      -5.873  13.098  22.251  0.00  0.00    +0.000 C 
ATOM      4  C   UNL     1      -6.299  12.561  20.930  0.00  0.00    +0.000 C 
ATOM      5  O   UNL     1      -6.646  11.170  20.903  0.00  0.00    +0.000 OA
ATOM      6  C   UNL     1      -6.417  10.744  19.597  0.00  0.00    +0.000 C 
ATOM      7  O   UNL     1      -6.563   9.599  19.206  0.00  0.00    +0.000 OA
ATOM      8  C   UNL     1      -6.008  11.948  18.773  0.00  0.00    +0.000 C 
ATOM      9  C   UNL     1      -5.286  11.801  17.474  0.00  0.00    +0.000 C 
ATOM     10  C   UNL     1      -3.849  11.353  17.666  0.00  0.00    +0.000 C 
ATOM     11  C   UNL     1      -3.100  11.910  18.969  0.00  0.00    +0.000 C 
ATOM     12  C   UNL     1      -3.930  12.631  20.077  0.00  0.00    +0.000 C 
ATOM     13  C   UNL     1      -5.265  12.579  19.888  0.00  0.00    +0.000 C 
ATOM     14  C   UNL     1      -3.355  13.104  21.507  0.00  0.00    +0.000 C 
ATOM     15  C   UNL     1      -2.871  14.571  21.478  0.00  0.00    +0.000 C 
ATOM     16  C   UNL     1      -1.750  14.705  22.518  0.00  0.00    +0.000 C 
ATOM     17  O   UNL     1      -1.300  13.356  22.721  0.00  0.00    +0.000 OA
ATOM     18  C   UNL     1      -2.037  12.456  21.988  0.00  0.00    +0.000 C 
ATOM     19  O   UNL     1      -1.734  11.287  21.834  0.00  0.00    +0.000 OA
ENDROOT
BRANCH  16  20
ATOM     20  C   UNL     1      -2.059  15.449  23.802  0.00  0.00    +0.000 A 
ATOM     21  C   UNL     1      -2.972  16.546  24.002  0.00  0.00    +0.000 A 
ATOM     22  C   UNL     1      -2.787  16.997  25.291  0.00  0.00    +0.000 A 
ATOM     23  O   UNL     1      -1.916  16.193  25.944  0.00  0.00    +0.000 OA
ATOM     24  C   UNL     1      -1.511  15.242  25.060  0.00  0.00    +0.000 A 
ENDBRANCH  16  20
BRANCH  10  25
ATOM     25  O   UNL     1      -3.838   9.918  17.640  0.00  0.00    +0.000 OA
ATOM     26  H   UNL     1      -4.387   9.570  18.380  0.00  0.00    +0.000 HD
ENDBRANCH  10  25
TORSDOF 2
ENDMDL
