MODEL 1
REMARK VINA RESULT:      -6.9      0.000      0.000
REMARK  Name = 
REMARK  6 active torsions:
REMARK  status: ('A' for Active; 'I' for Inactive)
REMARK    1  A    between atoms: C_2  and  C_3
REMARK    2  A    between atoms: C_3  and  C_4
REMARK    3  A    between atoms: C_6  and  C_7
REMARK    4  A    between atoms: C_9  and  C_10
REMARK    5  A    between atoms: C_10  and  N_11
REMARK    6  A    between atoms: N_14  and  C_15
REMARK                            x       y       z     vdW  Elec       q    Type
REMARK                         _______ _______ _______ _____ _____    ______ ____
ROOT
ATOM      1  C   UNL     1       3.259   6.315  18.036  0.00  0.00    +0.000 C 
ENDROOT
BRANCH   1   4
ATOM      2  C   UNL     1       1.415   7.785  20.945  0.00  0.00    +0.000 A 
ATOM      3  C   UNL     1       2.184   7.916  19.801  0.00  0.00    +0.000 A 
ATOM      4  C   UNL     1       2.499   6.618  19.301  0.00  0.00    +0.000 A 
ATOM      5  C   UNL     1       2.000   5.732  20.239  0.00  0.00    +0.000 A 
ATOM      6  N   UNL     1       1.375   6.440  21.238  0.00  0.00    +0.000 N 
ATOM      7  H   UNL     1       0.937   6.005  22.041  0.00  0.00    +0.000 HD
BRANCH   2   9
ATOM      8  C   UNL     1       0.032   9.822  21.292  0.00  0.00    +0.000 C 
ATOM      9  C   UNL     1       0.782   8.791  21.730  0.00  0.00    +0.000 C 
BRANCH   8  11
ATOM     10  N   UNL     1      -0.639  10.096  18.817  0.00  0.00    +0.000 NA
ATOM     11  C   UNL     1      -0.360   9.996  19.940  0.00  0.00    +0.000 C 
ENDBRANCH   8  11
BRANCH   8  12
ATOM     12  C   UNL     1      -0.355  10.833  22.228  0.00  0.00    +0.000 C 
ATOM     13  N   UNL     1      -0.696  11.642  22.983  0.00  0.00    +0.000 NA
ENDBRANCH   8  12
ENDBRANCH   2   9
ENDBRANCH   1   4
BRANCH   1  14
ATOM     14  N   UNL     1       4.517   5.607  18.314  0.00  0.00    +0.000 NA
ATOM     15  C   UNL     1       4.549   4.220  17.795  0.00  0.00    +0.000 C 
ATOM     16  C   UNL     1       4.670   4.067  16.258  0.00  0.00    +0.000 C 
ATOM     17  N   UNL     1       5.794   4.860  15.731  0.00  0.00    +0.000 N 
ATOM     18  C   UNL     1       5.849   6.256  16.199  0.00  0.00    +0.000 C 
ATOM     19  C   UNL     1       5.681   6.327  17.742  0.00  0.00    +0.000 C 
BRANCH  17  20
ATOM     20  C   UNL     1       6.307   4.555  14.469  0.00  0.00    +0.000 A 
ATOM     21  C   UNL     1       7.396   5.236  13.900  0.00  0.00    +0.000 A 
ATOM     22  C   UNL     1       7.790   5.022  12.570  0.00  0.00    +0.000 A 
ATOM     23  C   UNL     1       7.102   4.112  11.776  0.00  0.00    +0.000 A 
ATOM     24  C   UNL     1       6.049   3.391  12.326  0.00  0.00    +0.000 A 
ATOM     25  C   UNL     1       5.666   3.604  13.657  0.00  0.00    +0.000 A 
ENDBRANCH  17  20
ENDBRANCH   1  14
TORSDOF 6
ENDMDL
MODEL 2
REMARK VINA RESULT:      -6.8      1.101      1.474
REMARK  Name = 
REMARK  6 active torsions:
REMARK  status: ('A' for Active; 'I' for Inactive)
REMARK    1  A    between atoms: C_2  and  C_3
REMARK    2  A    between atoms: C_3  and  C_4
REMARK    3  A    between atoms: C_6  and  C_7
REMARK    4  A    between atoms: C_9  and  C_10
REMARK    5  A    between atoms: C_10  and  N_11
REMARK    6  A    between atoms: N_14  and  C_15
REMARK                            x       y       z     vdW  Elec       q    Type
REMARK                         _______ _______ _______ _____ _____    ______ ____
ROOT
ATOM      1  C   UNL     1       3.185   5.600  18.171  0.00  0.00    +0.000 C 
ENDROOT
BRANCH   1   4
ATOM      2  C   UNL     1       1.498   8.560  19.726  0.00  0.00    +0.000 A 
ATOM      3  C   UNL     1       2.172   7.957  18.678  0.00  0.00    +0.000 A 
ATOM      4  C   UNL     1       2.509   6.621  19.049  0.00  0.00    +0.000 A 
ATOM      5  C   UNL     1       2.123   6.499  20.372  0.00  0.00    +0.000 A 
ATOM      6  N   UNL     1       1.542   7.676  20.780  0.00  0.00    +0.000 N 
ATOM      7  H   UNL     1       1.186   7.828  21.716  0.00  0.00    +0.000 HD
BRANCH   2   9
ATOM      8  C   UNL     1       0.380  10.463  20.873  0.00  0.00    +0.000 C 
ATOM      9  C   UNL     1       0.880   9.842  19.785  0.00  0.00    +0.000 C 
BRANCH   8  11
ATOM     10  N   UNL     1       0.602   9.616  23.299  0.00  0.00    +0.000 NA
ATOM     11  C   UNL     1       0.512   9.967  22.196  0.00  0.00    +0.000 C 
ENDBRANCH   8  11
BRANCH   8  12
ATOM     12  C   UNL     1      -0.373  11.666  20.690  0.00  0.00    +0.000 C 
ATOM     13  N   UNL     1      -0.967  12.644  20.517  0.00  0.00    +0.000 NA
ENDBRANCH   8  12
ENDBRANCH   2   9
ENDBRANCH   1   4
BRANCH   1  14
ATOM     14  N   UNL     1       4.649   5.659  18.298  0.00  0.00    +0.000 NA
ATOM     15  C   UNL     1       5.323   4.366  18.042  0.00  0.00    +0.000 C 
ATOM     16  C   UNL     1       5.356   3.890  16.568  0.00  0.00    +0.000 C 
ATOM     17  N   UNL     1       5.874   4.946  15.680  0.00  0.00    +0.000 N 
ATOM     18  C   UNL     1       5.264   6.274  15.866  0.00  0.00    +0.000 C 
ATOM     19  C   UNL     1       5.232   6.660  17.371  0.00  0.00    +0.000 C 
BRANCH  17  20
ATOM     20  C   UNL     1       6.345   4.596  14.414  0.00  0.00    +0.000 A 
ATOM     21  C   UNL     1       7.434   5.236  13.799  0.00  0.00    +0.000 A 
ATOM     22  C   UNL     1       7.788   4.978  12.466  0.00  0.00    +0.000 A 
ATOM     23  C   UNL     1       7.059   4.063  11.715  0.00  0.00    +0.000 A 
ATOM     24  C   UNL     1       6.005   3.381  12.311  0.00  0.00    +0.000 A 
ATOM     25  C   UNL     1       5.662   3.639  13.645  0.00  0.00    +0.000 A 
ENDBRANCH  17  20
ENDBRANCH   1  14
TORSDOF 6
ENDMDL
MODEL 3
REMARK VINA RESULT:      -6.8      0.980      1.152
REMARK  Name = 
REMARK  6 active torsions:
REMARK  status: ('A' for Active; 'I' for Inactive)
REMARK    1  A    between atoms: C_2  and  C_3
REMARK    2  A    between atoms: C_3  and  C_4
REMARK    3  A    between atoms: C_6  and  C_7
REMARK    4  A    between atoms: C_9  and  C_10
REMARK    5  A    between atoms: C_10  and  N_11
REMARK    6  A    between atoms: N_14  and  C_15
REMARK                            x       y       z     vdW  Elec       q    Type
REMARK                         _______ _______ _______ _____ _____    ______ ____
ROOT
ATOM      1  C   UNL     1       3.215   5.673  18.231  0.00  0.00    +0.000 C 
ENDROOT
BRANCH   1   4
ATOM      2  C   UNL     1       1.477   8.480  19.998  0.00  0.00    +0.000 A 
ATOM      3  C   UNL     1       1.932   7.174  19.945  0.00  0.00    +0.000 A 
ATOM      4  C   UNL     1       2.534   6.942  18.673  0.00  0.00    +0.000 A 
ATOM      5  C   UNL     1       2.315   8.100  17.947  0.00  0.00    +0.000 A 
ATOM      6  N   UNL     1       1.656   9.009  18.740  0.00  0.00    +0.000 N 
ATOM      7  H   UNL     1       1.381   9.931  18.423  0.00  0.00    +0.000 HD
BRANCH   2   9
ATOM      8  C   UNL     1      -0.092  10.103  21.044  0.00  0.00    +0.000 C 
ATOM      9  C   UNL     1       0.904   9.195  21.090  0.00  0.00    +0.000 C 
BRANCH   8  11
ATOM     10  N   UNL     1      -1.436  10.707  18.926  0.00  0.00    +0.000 NA
ATOM     11  C   UNL     1      -0.835  10.402  19.872  0.00  0.00    +0.000 C 
ENDBRANCH   8  11
BRANCH   8  12
ATOM     12  C   UNL     1      -0.393  10.850  22.226  0.00  0.00    +0.000 C 
ATOM     13  N   UNL     1      -0.650  11.475  23.166  0.00  0.00    +0.000 NA
ENDBRANCH   8  12
ENDBRANCH   2   9
ENDBRANCH   1   4
BRANCH   1  14
ATOM     14  N   UNL     1       4.678   5.778  18.332  0.00  0.00    +0.000 NA
ATOM     15  C   UNL     1       5.384   4.495  18.109  0.00  0.00    +0.000 C 
ATOM     16  C   UNL     1       5.407   3.969  16.653  0.00  0.00    +0.000 C 
ATOM     17  N   UNL     1       5.880   5.006  15.720  0.00  0.00    +0.000 N 
ATOM     18  C   UNL     1       5.235   6.323  15.869  0.00  0.00    +0.000 C 
ATOM     19  C   UNL     1       5.216   6.761  17.360  0.00  0.00    +0.000 C 
BRANCH  17  20
ATOM     20  C   UNL     1       6.341   4.625  14.458  0.00  0.00    +0.000 A 
ATOM     21  C   UNL     1       7.444   5.229  13.832  0.00  0.00    +0.000 A 
ATOM     22  C   UNL     1       7.790   4.941  12.503  0.00  0.00    +0.000 A 
ATOM     23  C   UNL     1       7.037   4.032  11.768  0.00  0.00    +0.000 A 
ATOM     24  C   UNL     1       5.968   3.386  12.375  0.00  0.00    +0.000 A 
ATOM     25  C   UNL     1       5.634   3.673  13.705  0.00  0.00    +0.000 A 
ENDBRANCH  17  20
ENDBRANCH   1  14
TORSDOF 6
ENDMDL
MODEL 4
REMARK VINA RESULT:      -6.7      1.565      1.815
REMARK  Name = 
REMARK  6 active torsions:
REMARK  status: ('A' for Active; 'I' for Inactive)
REMARK    1  A    between atoms: C_2  and  C_3
REMARK    2  A    between atoms: C_3  and  C_4
REMARK    3  A    between atoms: C_6  and  C_7
REMARK    4  A    between atoms: C_9  and  C_10
REMARK    5  A    between atoms: C_10  and  N_11
REMARK    6  A    between atoms: N_14  and  C_15
REMARK                            x       y       z     vdW  Elec       q    Type
REMARK                         _______ _______ _______ _____ _____    ______ ____
ROOT
ATOM      1  C   UNL     1       2.708   6.070  17.965  0.00  0.00    +0.000 C 
ENDROOT
BRANCH   1   4
ATOM      2  C   UNL     1       1.410   9.279  19.393  0.00  0.00    +0.000 A 
ATOM      3  C   UNL     1       1.980   8.549  18.365  0.00  0.00    +0.000 A 
ATOM      4  C   UNL     1       2.176   7.205  18.801  0.00  0.00    +0.000 A 
ATOM      5  C   UNL     1       1.819   7.197  20.137  0.00  0.00    +0.000 A 
ATOM      6  N   UNL     1       1.386   8.452  20.494  0.00  0.00    +0.000 N 
ATOM      7  H   UNL     1       1.076   8.692  21.428  0.00  0.00    +0.000 HD
BRANCH   2   9
ATOM      8  C   UNL     1      -0.128  11.122  18.740  0.00  0.00    +0.000 C 
ATOM      9  C   UNL     1       0.941  10.624  19.396  0.00  0.00    +0.000 C 
BRANCH   8  11
ATOM     10  N   UNL     1      -1.811   9.632  17.476  0.00  0.00    +0.000 NA
ATOM     11  C   UNL     1      -1.055  10.326  18.020  0.00  0.00    +0.000 C 
ENDBRANCH   8  11
BRANCH   8  12
ATOM     12  C   UNL     1      -0.318  12.540  18.720  0.00  0.00    +0.000 C 
ATOM     13  N   UNL     1      -0.445  13.691  18.716  0.00  0.00    +0.000 NA
ENDBRANCH   8  12
ENDBRANCH   2   9
ENDBRANCH   1   4
BRANCH   1  14
ATOM     14  N   UNL     1       4.105   5.756  18.301  0.00  0.00    +0.000 NA
ATOM     15  C   UNL     1       4.493   4.360  17.995  0.00  0.00    +0.000 C 
ATOM     16  C   UNL     1       4.654   4.007  16.495  0.00  0.00    +0.000 C 
ATOM     17  N   UNL     1       5.539   4.968  15.814  0.00  0.00    +0.000 N 
ATOM     18  C   UNL     1       5.232   6.387  16.064  0.00  0.00    +0.000 C 
ATOM     19  C   UNL     1       5.046   6.651  17.584  0.00  0.00    +0.000 C 
BRANCH  17  20
ATOM     20  C   UNL     1       6.117   4.611  14.594  0.00  0.00    +0.000 A 
ATOM     21  C   UNL     1       7.254   5.248  14.071  0.00  0.00    +0.000 A 
ATOM     22  C   UNL     1       7.720   4.983  12.774  0.00  0.00    +0.000 A 
ATOM     23  C   UNL     1       7.056   4.065  11.968  0.00  0.00    +0.000 A 
ATOM     24  C   UNL     1       5.955   3.387  12.475  0.00  0.00    +0.000 A 
ATOM     25  C   UNL     1       5.500   3.651  13.774  0.00  0.00    +0.000 A 
ENDBRANCH  17  20
ENDBRANCH   1  14
TORSDOF 6
ENDMDL
MODEL 5
REMARK VINA RESULT:      -6.7      1.791      9.765
REMARK  Name = 
REMARK  6 active torsions:
REMARK  status: ('A' for Active; 'I' for Inactive)
REMARK    1  A    between atoms: C_2  and  C_3
REMARK    2  A    between atoms: C_3  and  C_4
REMARK    3  A    between atoms: C_6  and  C_7
REMARK    4  A    between atoms: C_9  and  C_10
REMARK    5  A    between atoms: C_10  and  N_11
REMARK    6  A    between atoms: N_14  and  C_15
REMARK                            x       y       z     vdW  Elec       q    Type
REMARK                         _______ _______ _______ _____ _____    ______ ____
ROOT
ATOM      1  C   UNL     1       4.196   7.543  18.108  0.00  0.00    +0.000 C 
ENDROOT
BRANCH   1   4
ATOM      2  C   UNL     1       5.697   5.172  15.628  0.00  0.00    +0.000 A 
ATOM      3  C   UNL     1       4.623   5.642  16.364  0.00  0.00    +0.000 A 
ATOM      4  C   UNL     1       5.064   6.711  17.200  0.00  0.00    +0.000 A 
ATOM      5  C   UNL     1       6.435   6.774  17.023  0.00  0.00    +0.000 A 
ATOM      6  N   UNL     1       6.812   5.829  16.098  0.00  0.00    +0.000 N 
ATOM      7  H   UNL     1       7.772   5.682  15.809  0.00  0.00    +0.000 HD
BRANCH   2   9
ATOM      8  C   UNL     1       6.533   4.161  13.514  0.00  0.00    +0.000 C 
ATOM      9  C   UNL     1       5.726   4.192  14.594  0.00  0.00    +0.000 C 
BRANCH   8  11
ATOM     10  N   UNL     1       8.436   5.856  13.115  0.00  0.00    +0.000 NA
ATOM     11  C   UNL     1       7.603   5.069  13.301  0.00  0.00    +0.000 C 
ENDBRANCH   8  11
BRANCH   8  12
ATOM     12  C   UNL     1       6.274   3.193  12.493  0.00  0.00    +0.000 C 
ATOM     13  N   UNL     1       6.091   2.416  11.655  0.00  0.00    +0.000 NA
ENDBRANCH   8  12
ENDBRANCH   2   9
ENDBRANCH   1   4
BRANCH   1  14
ATOM     14  N   UNL     1       2.776   7.186  17.979  0.00  0.00    +0.000 NA
ATOM     15  C   UNL     1       2.205   6.563  19.196  0.00  0.00    +0.000 C 
ATOM     16  C   UNL     1       1.976   7.505  20.405  0.00  0.00    +0.000 C 
ATOM     17  N   UNL     1       1.213   8.702  20.010  0.00  0.00    +0.000 N 
ATOM     18  C   UNL     1       1.706   9.388  18.803  0.00  0.00    +0.000 C 
ATOM     19  C   UNL     1       1.948   8.373  17.652  0.00  0.00    +0.000 C 
BRANCH  17  20
ATOM     20  C   UNL     1       0.576   9.456  20.997  0.00  0.00    +0.000 A 
ATOM     21  C   UNL     1       0.531   9.069  22.346  0.00  0.00    +0.000 A 
ATOM     22  C   UNL     1      -0.249   9.757  23.288  0.00  0.00    +0.000 A 
ATOM     23  C   UNL     1      -1.001  10.859  22.899  0.00  0.00    +0.000 A 
ATOM     24  C   UNL     1      -0.941  11.292  21.580  0.00  0.00    +0.000 A 
ATOM     25  C   UNL     1      -0.154  10.604  20.647  0.00  0.00    +0.000 A 
ENDBRANCH  17  20
ENDBRANCH   1  14
TORSDOF 6
ENDMDL
MODEL 6
REMARK VINA RESULT:      -6.7      1.698      9.452
REMARK  Name = 
REMARK  6 active torsions:
REMARK  status: ('A' for Active; 'I' for Inactive)
REMARK    1  A    between atoms: C_2  and  C_3
REMARK    2  A    between atoms: C_3  and  C_4
REMARK    3  A    between atoms: C_6  and  C_7
REMARK    4  A    between atoms: C_9  and  C_10
REMARK    5  A    between atoms: C_10  and  N_11
REMARK    6  A    between atoms: N_14  and  C_15
REMARK                            x       y       z     vdW  Elec       q    Type
REMARK                         _______ _______ _______ _____ _____    ______ ____
ROOT
ATOM      1  C   UNL     1       4.120   5.627  19.367  0.00  0.00    +0.000 C 
ENDROOT
BRANCH   1   4
ATOM      2  C   UNL     1       5.562   3.987  16.325  0.00  0.00    +0.000 A 
ATOM      3  C   UNL     1       4.483   4.402  17.085  0.00  0.00    +0.000 A 
ATOM      4  C   UNL     1       4.963   4.987  18.295  0.00  0.00    +0.000 A 
ATOM      5  C   UNL     1       6.334   4.798  18.275  0.00  0.00    +0.000 A 
ATOM      6  N   UNL     1       6.684   4.172  17.102  0.00  0.00    +0.000 N 
ATOM      7  H   UNL     1       7.636   3.923  16.864  0.00  0.00    +0.000 HD
BRANCH   2   9
ATOM      8  C   UNL     1       6.312   3.874  13.956  0.00  0.00    +0.000 C 
ATOM      9  C   UNL     1       5.585   3.444  15.008  0.00  0.00    +0.000 C 
BRANCH   8  11
ATOM     10  N   UNL     1       8.087   5.743  14.047  0.00  0.00    +0.000 NA
ATOM     11  C   UNL     1       7.295   4.894  14.038  0.00  0.00    +0.000 C 
ENDBRANCH   8  11
BRANCH   8  12
ATOM     12  C   UNL     1       6.048   3.312  12.667  0.00  0.00    +0.000 C 
ATOM     13  N   UNL     1       5.851   2.879  11.611  0.00  0.00    +0.000 NA
ENDBRANCH   8  12
ENDBRANCH   2   9
ENDBRANCH   1   4
BRANCH   1  14
ATOM     14  N   UNL     1       2.692   5.610  19.017  0.00  0.00    +0.000 NA
ATOM     15  C   UNL     1       1.793   5.458  20.184  0.00  0.00    +0.000 C 
ATOM     16  C   UNL     1       1.668   6.687  21.118  0.00  0.00    +0.000 C 
ATOM     17  N   UNL     1       1.347   7.905  20.354  0.00  0.00    +0.000 N 
ATOM     18  C   UNL     1       2.188   8.139  19.167  0.00  0.00    +0.000 C 
ATOM     19  C   UNL     1       2.297   6.851  18.306  0.00  0.00    +0.000 C 
BRANCH  17  20
ATOM     20  C   UNL     1       0.814   9.007  21.026  0.00  0.00    +0.000 A 
ATOM     21  C   UNL     1       0.363   8.948  22.355  0.00  0.00    +0.000 A 
ATOM     22  C   UNL     1      -0.314  10.020  22.955  0.00  0.00    +0.000 A 
ATOM     23  C   UNL     1      -0.552  11.186  22.235  0.00  0.00    +0.000 A 
ATOM     24  C   UNL     1      -0.079  11.289  20.933  0.00  0.00    +0.000 A 
ATOM     25  C   UNL     1       0.604  10.217  20.344  0.00  0.00    +0.000 A 
ENDBRANCH  17  20
ENDBRANCH   1  14
TORSDOF 6
ENDMDL
MODEL 7
REMARK VINA RESULT:      -6.7      4.874      7.580
REMARK  Name = 
REMARK  6 active torsions:
REMARK  status: ('A' for Active; 'I' for Inactive)
REMARK    1  A    between atoms: C_2  and  C_3
REMARK    2  A    between atoms: C_3  and  C_4
REMARK    3  A    between atoms: C_6  and  C_7
REMARK    4  A    between atoms: C_9  and  C_10
REMARK    5  A    between atoms: C_10  and  N_11
REMARK    6  A    between atoms: N_14  and  C_15
REMARK                            x       y       z     vdW  Elec       q    Type
REMARK                         _______ _______ _______ _____ _____    ______ ____
ROOT
ATOM      1  C   UNL     1       7.407   6.556  17.550  0.00  0.00    +0.000 C 
ENDROOT
BRANCH   1   4
ATOM      2  C   UNL     1       8.574  10.069  18.119  0.00  0.00    +0.000 A 
ATOM      3  C   UNL     1       7.980   9.098  17.331  0.00  0.00    +0.000 A 
ATOM      4  C   UNL     1       8.009   7.852  18.027  0.00  0.00    +0.000 A 
ATOM      5  C   UNL     1       8.735   8.093  19.180  0.00  0.00    +0.000 A 
ATOM      6  N   UNL     1       9.094   9.419  19.216  0.00  0.00    +0.000 N 
ATOM      7  H   UNL     1       9.638   9.830  19.965  0.00  0.00    +0.000 HD
BRANCH   2   9
ATOM      8  C   UNL     1       9.753  12.259  18.140  0.00  0.00    +0.000 C 
ATOM      9  C   UNL     1       8.685  11.471  17.896  0.00  0.00    +0.000 C 
BRANCH   8  11
ATOM     10  N   UNL     1      12.025  11.321  18.923  0.00  0.00    +0.000 NA
ATOM     11  C   UNL     1      11.018  11.768  18.554  0.00  0.00    +0.000 C 
ENDBRANCH   8  11
BRANCH   8  12
ATOM     12  C   UNL     1       9.598  13.676  18.026  0.00  0.00    +0.000 C 
ATOM     13  N   UNL     1       9.443  14.820  17.935  0.00  0.00    +0.000 NA
ENDBRANCH   8  12
ENDBRANCH   2   9
ENDBRANCH   1   4
BRANCH   1  14
ATOM     14  N   UNL     1       6.303   6.785  16.606  0.00  0.00    +0.000 NA
ATOM     15  C   UNL     1       5.975   5.604  15.775  0.00  0.00    +0.000 C 
ATOM     16  C   UNL     1       5.265   4.432  16.498  0.00  0.00    +0.000 C 
ATOM     17  N   UNL     1       4.085   4.904  17.243  0.00  0.00    +0.000 N 
ATOM     18  C   UNL     1       4.314   6.083  18.097  0.00  0.00    +0.000 C 
ATOM     19  C   UNL     1       5.064   7.195  17.312  0.00  0.00    +0.000 C 
BRANCH  17  20
ATOM     20  C   UNL     1       3.108   3.982  17.622  0.00  0.00    +0.000 A 
ATOM     21  C   UNL     1       1.791   4.350  17.944  0.00  0.00    +0.000 A 
ATOM     22  C   UNL     1       0.874   3.430  18.475  0.00  0.00    +0.000 A 
ATOM     23  C   UNL     1       1.256   2.111  18.693  0.00  0.00    +0.000 A 
ATOM     24  C   UNL     1       2.538   1.708  18.343  0.00  0.00    +0.000 A 
ATOM     25  C   UNL     1       3.446   2.630  17.805  0.00  0.00    +0.000 A 
ENDBRANCH  17  20
ENDBRANCH   1  14
TORSDOF 6
ENDMDL
MODEL 8
REMARK VINA RESULT:      -6.6      2.296      9.927
REMARK  Name = 
REMARK  6 active torsions:
REMARK  status: ('A' for Active; 'I' for Inactive)
REMARK    1  A    between atoms: C_2  and  C_3
REMARK    2  A    between atoms: C_3  and  C_4
REMARK    3  A    between atoms: C_6  and  C_7
REMARK    4  A    between atoms: C_9  and  C_10
REMARK    5  A    between atoms: C_10  and  N_11
REMARK    6  A    between atoms: N_14  and  C_15
REMARK                            x       y       z     vdW  Elec       q    Type
REMARK                         _______ _______ _______ _____ _____    ______ ____
ROOT
ATOM      1  C   UNL     1       1.144   7.202  20.744  0.00  0.00    +0.000 C 
ENDROOT
BRANCH   1   4
ATOM      2  C   UNL     1       3.575   5.197  18.719  0.00  0.00    +0.000 A 
ATOM      3  C   UNL     1       2.782   6.316  18.908  0.00  0.00    +0.000 A 
ATOM      4  C   UNL     1       2.065   6.177  20.134  0.00  0.00    +0.000 A 
ATOM      5  C   UNL     1       2.366   4.907  20.593  0.00  0.00    +0.000 A 
ATOM      6  N   UNL     1       3.251   4.314  19.725  0.00  0.00    +0.000 N 
ATOM      7  H   UNL     1       3.613   3.376  19.850  0.00  0.00    +0.000 HD
BRANCH   2   9
ATOM      8  C   UNL     1       5.878   5.005  17.801  0.00  0.00    +0.000 C 
ATOM      9  C   UNL     1       4.535   4.930  17.702  0.00  0.00    +0.000 C 
BRANCH   8  11
ATOM     10  N   UNL     1       7.178   5.478  19.977  0.00  0.00    +0.000 NA
ATOM     11  C   UNL     1       6.569   5.251  19.016  0.00  0.00    +0.000 C 
ENDBRANCH   8  11
BRANCH   8  12
ATOM     12  C   UNL     1       6.660   4.884  16.608  0.00  0.00    +0.000 C 
ATOM     13  N   UNL     1       7.276   4.762  15.636  0.00  0.00    +0.000 NA
ENDBRANCH   8  12
ENDBRANCH   2   9
ENDBRANCH   1   4
BRANCH   1  14
ATOM     14  N   UNL     1       1.768   8.533  20.791  0.00  0.00    +0.000 NA
ATOM     15  C   UNL     1       1.200   9.492  19.817  0.00  0.00    +0.000 C 
ATOM     16  C   UNL     1      -0.223  10.022  20.126  0.00  0.00    +0.000 C 
ATOM     17  N   UNL     1      -0.308  10.545  21.501  0.00  0.00    +0.000 N 
ATOM     18  C   UNL     1       0.239   9.658  22.543  0.00  0.00    +0.000 C 
ATOM     19  C   UNL     1       1.647   9.138  22.140  0.00  0.00    +0.000 C 
BRANCH  17  20
ATOM     20  C   UNL     1      -1.355  11.406  21.835  0.00  0.00    +0.000 A 
ATOM     21  C   UNL     1      -1.871  11.513  23.138  0.00  0.00    +0.000 A 
ATOM     22  C   UNL     1      -3.024  12.262  23.418  0.00  0.00    +0.000 A 
ATOM     23  C   UNL     1      -3.687  12.930  22.395  0.00  0.00    +0.000 A 
ATOM     24  C   UNL     1      -3.175  12.878  21.104  0.00  0.00    +0.000 A 
ATOM     25  C   UNL     1      -2.018  12.134  20.834  0.00  0.00    +0.000 A 
ENDBRANCH  17  20
ENDBRANCH   1  14
TORSDOF 6
ENDMDL
MODEL 9
REMARK VINA RESULT:      -6.6      5.177      7.788
REMARK  Name = 
REMARK  6 active torsions:
REMARK  status: ('A' for Active; 'I' for Inactive)
REMARK    1  A    between atoms: C_2  and  C_3
REMARK    2  A    between atoms: C_3  and  C_4
REMARK    3  A    between atoms: C_6  and  C_7
REMARK    4  A    between atoms: C_9  and  C_10
REMARK    5  A    between atoms: C_10  and  N_11
REMARK    6  A    between atoms: N_14  and  C_15
REMARK                            x       y       z     vdW  Elec       q    Type
REMARK                         _______ _______ _______ _____ _____    ______ ____
ROOT
ATOM      1  C   UNL     1       7.399   7.113  17.282  0.00  0.00    +0.000 C 
ENDROOT
BRANCH   1   4
ATOM      2  C   UNL     1       8.766  10.458  18.267  0.00  0.00    +0.000 A 
ATOM      3  C   UNL     1       8.122   9.625  17.368  0.00  0.00    +0.000 A 
ATOM      4  C   UNL     1       8.073   8.305  17.910  0.00  0.00    +0.000 A 
ATOM      5  C   UNL     1       8.803   8.363  19.083  0.00  0.00    +0.000 A 
ATOM      6  N   UNL     1       9.240   9.652  19.278  0.00  0.00    +0.000 N 
ATOM      7  H   UNL     1       9.801   9.938  20.071  0.00  0.00    +0.000 HD
BRANCH   2   9
ATOM      8  C   UNL     1      10.069  12.557  18.557  0.00  0.00    +0.000 C 
ATOM      9  C   UNL     1       8.961  11.868  18.213  0.00  0.00    +0.000 C 
BRANCH   8  11
ATOM     10  N   UNL     1      12.277  11.394  19.206  0.00  0.00    +0.000 NA
ATOM     11  C   UNL     1      11.297  11.947  18.920  0.00  0.00    +0.000 C 
ENDBRANCH   8  11
BRANCH   8  12
ATOM     12  C   UNL     1       9.997  13.985  18.612  0.00  0.00    +0.000 C 
ATOM     13  N   UNL     1       9.914  15.139  18.640  0.00  0.00    +0.000 NA
ENDBRANCH   8  12
ENDBRANCH   2   9
ENDBRANCH   1   4
BRANCH   1  14
ATOM     14  N   UNL     1       7.780   5.859  17.950  0.00  0.00    +0.000 NA
ATOM     15  C   UNL     1       7.179   5.693  19.293  0.00  0.00    +0.000 C 
ATOM     16  C   UNL     1       5.660   5.387  19.332  0.00  0.00    +0.000 C 
ATOM     17  N   UNL     1       5.325   4.253  18.454  0.00  0.00    +0.000 N 
ATOM     18  C   UNL     1       5.885   4.328  17.093  0.00  0.00    +0.000 C 
ATOM     19  C   UNL     1       7.398   4.678  17.138  0.00  0.00    +0.000 C 
BRANCH  17  20
ATOM     20  C   UNL     1       4.115   3.582  18.645  0.00  0.00    +0.000 A 
ATOM     21  C   UNL     1       3.610   3.262  19.916  0.00  0.00    +0.000 A 
ATOM     22  C   UNL     1       2.478   2.450  20.080  0.00  0.00    +0.000 A 
ATOM     23  C   UNL     1       1.818   1.940  18.967  0.00  0.00    +0.000 A 
ATOM     24  C   UNL     1       2.268   2.277  17.697  0.00  0.00    +0.000 A 
ATOM     25  C   UNL     1       3.395   3.095  17.541  0.00  0.00    +0.000 A 
ENDBRANCH  17  20
ENDBRANCH   1  14
TORSDOF 6
ENDMDL
