MODEL 1
REMARK VINA RESULT:      -8.4      0.000      0.000
REMARK  Name = 
REMARK  13 active torsions:
REMARK  status: ('A' for Active; 'I' for Inactive)
REMARK    1  A    between atoms: C_1  and  N_2
REMARK    2  A    between atoms: N_2  and  C_3
REMARK    3  A    between atoms: N_2  and  C_4
REMARK    4  A    between atoms: C_7  and  C_8
REMARK    5  A    between atoms: C_8  and  N_9
REMARK    6  A    between atoms: N_9  and  C_10
REMARK    7  A    between atoms: N_9  and  C_21
REMARK    8  A    between atoms: C_10  and  C_11
REMARK    9  A    between atoms: C_14  and  C_15
REMARK   10  A    between atoms: C_15  and  C_16
REMARK   11  A    between atoms: C_15  and  C_17
REMARK   12  A    between atoms: C_15  and  C_18
REMARK   13  A    between atoms: C_21  and  C_22
REMARK                            x       y       z     vdW  Elec       q    Type
REMARK                         _______ _______ _______ _____ _____    ______ ____
ROOT
ATOM      1  N   UNL     1       0.775   9.654  19.271  0.00  0.00    +0.000 NA
ENDROOT
BRANCH   1   2
ATOM      2  C   UNL     1       0.320  10.837  18.503  0.00  0.00    +0.000 C 
BRANCH   2   6
ATOM      3  C   UNL     1      -4.039  11.022  18.123  0.00  0.00    +0.000 A 
ATOM      4  C   UNL     1      -3.297   9.946  17.601  0.00  0.00    +0.000 A 
ATOM      5  C   UNL     1      -1.891   9.902  17.648  0.00  0.00    +0.000 A 
ATOM      6  C   UNL     1      -1.165  10.949  18.219  0.00  0.00    +0.000 A 
ATOM      7  C   UNL     1      -1.881  12.053  18.690  0.00  0.00    +0.000 A 
ATOM      8  C   UNL     1      -3.283  12.087  18.637  0.00  0.00    +0.000 A 
BRANCH   3  10
ATOM      9  C   UNL     1      -6.173   9.934  18.769  0.00  0.00    +0.000 C 
ATOM     10  N   UNL     1      -5.428  11.022  18.148  0.00  0.00    +0.000 N 
ATOM     11  C   UNL     1      -6.200  12.128  17.598  0.00  0.00    +0.000 C 
ENDBRANCH   3  10
ENDBRANCH   2   6
ENDBRANCH   1   2
BRANCH   1  12
ATOM     12  C   UNL     1       1.880   8.970  18.542  0.00  0.00    +0.000 C 
BRANCH  12  13
ATOM     13  C   UNL     1       2.056   7.517  18.956  0.00  0.00    +0.000 A 
ATOM     14  C   UNL     1       2.430   6.563  18.007  0.00  0.00    +0.000 A 
ATOM     15  C   UNL     1       2.425   5.202  18.321  0.00  0.00    +0.000 A 
ATOM     16  C   UNL     1       2.080   4.737  19.604  0.00  0.00    +0.000 A 
ATOM     17  C   UNL     1       1.777   5.713  20.571  0.00  0.00    +0.000 A 
ATOM     18  C   UNL     1       1.770   7.081  20.257  0.00  0.00    +0.000 A 
BRANCH  16  19
ATOM     19  C   UNL     1       1.958   3.229  19.896  0.00  0.00    +0.000 C 
ATOM     20  C   UNL     1       0.867   2.553  19.033  0.00  0.00    +0.000 C 
ATOM     21  C   UNL     1       3.268   2.450  19.645  0.00  0.00    +0.000 C 
ATOM     22  C   UNL     1       1.573   3.052  21.381  0.00  0.00    +0.000 C 
ENDBRANCH  16  19
ENDBRANCH  12  13
ENDBRANCH   1  12
BRANCH   1  23
ATOM     23  C   UNL     1       1.282  10.112  20.602  0.00  0.00    +0.000 C 
BRANCH  23  24
ATOM     24  C   UNL     1       0.420  11.096  21.359  0.00  0.00    +0.000 A 
ATOM     25  C   UNL     1      -0.730  10.833  21.998  0.00  0.00    +0.000 A 
ATOM     26  C   UNL     1      -1.536  11.911  22.575  0.00  0.00    +0.000 A 
ATOM     27  C   UNL     1      -2.639  11.665  23.393  0.00  0.00    +0.000 A 
ATOM     28  C   UNL     1      -3.403  12.740  23.857  0.00  0.00    +0.000 A 
ATOM     29 CL   UNL     1      -4.719  12.452  24.929  0.00  0.00    +0.000 Cl
ATOM     30  C   UNL     1      -3.107  14.049  23.474  0.00  0.00    +0.000 A 
ATOM     31  C   UNL     1      -1.995  14.301  22.671  0.00  0.00    +0.000 A 
ATOM     32  C   UNL     1      -1.196  13.235  22.265  0.00  0.00    +0.000 A 
ATOM     33  N   UNL     1       0.011  13.492  21.608  0.00  0.00    +0.000 N 
ATOM     34  C   UNL     1       0.914  12.511  21.303  0.00  0.00    +0.000 A 
ATOM     35  O   UNL     1       2.059  12.790  20.964  0.00  0.00    +0.000 OA
ATOM     36  H   UNL     1       0.344  14.440  21.506  0.00  0.00    +0.000 HD
ENDBRANCH  23  24
ENDBRANCH   1  23
TORSDOF 8
ENDMDL
MODEL 2
REMARK VINA RESULT:      -8.2      0.614      1.399
REMARK  Name = 
REMARK  13 active torsions:
REMARK  status: ('A' for Active; 'I' for Inactive)
REMARK    1  A    between atoms: C_1  and  N_2
REMARK    2  A    between atoms: N_2  and  C_3
REMARK    3  A    between atoms: N_2  and  C_4
REMARK    4  A    between atoms: C_7  and  C_8
REMARK    5  A    between atoms: C_8  and  N_9
REMARK    6  A    between atoms: N_9  and  C_10
REMARK    7  A    between atoms: N_9  and  C_21
REMARK    8  A    between atoms: C_10  and  C_11
REMARK    9  A    between atoms: C_14  and  C_15
REMARK   10  A    between atoms: C_15  and  C_16
REMARK   11  A    between atoms: C_15  and  C_17
REMARK   12  A    between atoms: C_15  and  C_18
REMARK   13  A    between atoms: C_21  and  C_22
REMARK                            x       y       z     vdW  Elec       q    Type
REMARK                         _______ _______ _______ _____ _____    ______ ____
ROOT
ATOM      1  N   UNL     1       0.694  10.250  19.244  0.00  0.00    +0.000 NA
ENDROOT
BRANCH   1   2
ATOM      2  C   UNL     1      -0.071  11.187  18.388  0.00  0.00    +0.000 C 
BRANCH   2   6
ATOM      3  C   UNL     1      -4.448  11.199  18.221  0.00  0.00    +0.000 A 
ATOM      4  C   UNL     1      -3.731  12.199  18.905  0.00  0.00    +0.000 A 
ATOM      5  C   UNL     1      -2.330  12.175  19.032  0.00  0.00    +0.000 A 
ATOM      6  C   UNL     1      -1.584  11.133  18.481  0.00  0.00    +0.000 A 
ATOM      7  C   UNL     1      -2.281  10.099  17.849  0.00  0.00    +0.000 A 
ATOM      8  C   UNL     1      -3.679  10.133  17.729  0.00  0.00    +0.000 A 
BRANCH   3  10
ATOM      9  C   UNL     1      -6.411  12.286  17.166  0.00  0.00    +0.000 C 
ATOM     10  N   UNL     1      -5.821  11.271  18.028  0.00  0.00    +0.000 N 
ATOM     11  C   UNL     1      -6.729  10.308  18.640  0.00  0.00    +0.000 C 
ENDBRANCH   3  10
ENDBRANCH   2   6
ENDBRANCH   1   2
BRANCH   1  12
ATOM     12  C   UNL     1       1.746   9.570  18.439  0.00  0.00    +0.000 C 
BRANCH  12  13
ATOM     13  C   UNL     1       2.018   8.145  18.896  0.00  0.00    +0.000 A 
ATOM     14  C   UNL     1       2.478   7.195  17.981  0.00  0.00    +0.000 A 
ATOM     15  C   UNL     1       2.565   5.846  18.333  0.00  0.00    +0.000 A 
ATOM     16  C   UNL     1       2.229   5.392  19.623  0.00  0.00    +0.000 A 
ATOM     17  C   UNL     1       1.838   6.370  20.556  0.00  0.00    +0.000 A 
ATOM     18  C   UNL     1       1.739   7.724  20.204  0.00  0.00    +0.000 A 
BRANCH  16  19
ATOM     19  C   UNL     1       2.211   3.888  19.955  0.00  0.00    +0.000 C 
ATOM     20  C   UNL     1       2.230   3.626  21.479  0.00  0.00    +0.000 C 
ATOM     21  C   UNL     1       0.974   3.153  19.393  0.00  0.00    +0.000 C 
ATOM     22  C   UNL     1       3.472   3.240  19.341  0.00  0.00    +0.000 C 
ENDBRANCH  16  19
ENDBRANCH  12  13
ENDBRANCH   1  12
BRANCH   1  23
ATOM     23  C   UNL     1       1.349  11.028  20.341  0.00  0.00    +0.000 C 
BRANCH  23  24
ATOM     24  C   UNL     1       0.440  11.817  21.256  0.00  0.00    +0.000 A 
ATOM     25  C   UNL     1      -0.691  11.385  21.835  0.00  0.00    +0.000 A 
ATOM     26  C   UNL     1      -1.549  12.300  22.590  0.00  0.00    +0.000 A 
ATOM     27  C   UNL     1      -2.633  11.855  23.348  0.00  0.00    +0.000 A 
ATOM     28  C   UNL     1      -3.450  12.790  23.990  0.00  0.00    +0.000 A 
ATOM     29 CL   UNL     1      -4.742  12.249  24.991  0.00  0.00    +0.000 Cl
ATOM     30  C   UNL     1      -3.227  14.160  23.843  0.00  0.00    +0.000 A 
ATOM     31  C   UNL     1      -2.135  14.607  23.101  0.00  0.00    +0.000 A 
ATOM     32  C   UNL     1      -1.283  13.673  22.517  0.00  0.00    +0.000 A 
ATOM     33  N   UNL     1      -0.095  14.106  21.919  0.00  0.00    +0.000 N 
ATOM     34  C   UNL     1       0.857  13.244  21.450  0.00  0.00    +0.000 A 
ATOM     35  O   UNL     1       1.984  13.639  21.168  0.00  0.00    +0.000 OA
ATOM     36  H   UNL     1       0.186  15.074  21.986  0.00  0.00    +0.000 HD
ENDBRANCH  23  24
ENDBRANCH   1  23
TORSDOF 8
ENDMDL
MODEL 3
REMARK VINA RESULT:      -8.2      0.256      1.250
REMARK  Name = 
REMARK  13 active torsions:
REMARK  status: ('A' for Active; 'I' for Inactive)
REMARK    1  A    between atoms: C_1  and  N_2
REMARK    2  A    between atoms: N_2  and  C_3
REMARK    3  A    between atoms: N_2  and  C_4
REMARK    4  A    between atoms: C_7  and  C_8
REMARK    5  A    between atoms: C_8  and  N_9
REMARK    6  A    between atoms: N_9  and  C_10
REMARK    7  A    between atoms: N_9  and  C_21
REMARK    8  A    between atoms: C_10  and  C_11
REMARK    9  A    between atoms: C_14  and  C_15
REMARK   10  A    between atoms: C_15  and  C_16
REMARK   11  A    between atoms: C_15  and  C_17
REMARK   12  A    between atoms: C_15  and  C_18
REMARK   13  A    between atoms: C_21  and  C_22
REMARK                            x       y       z     vdW  Elec       q    Type
REMARK                         _______ _______ _______ _____ _____    ______ ____
ROOT
ATOM      1  N   UNL     1       0.859   9.658  19.377  0.00  0.00    +0.000 NA
ENDROOT
BRANCH   1   2
ATOM      2  C   UNL     1       0.444  10.788  18.512  0.00  0.00    +0.000 C 
BRANCH   2   6
ATOM      3  C   UNL     1      -3.909  11.034  18.108  0.00  0.00    +0.000 A 
ATOM      4  C   UNL     1      -3.170   9.993  17.516  0.00  0.00    +0.000 A 
ATOM      5  C   UNL     1      -1.765   9.934  17.573  0.00  0.00    +0.000 A 
ATOM      6  C   UNL     1      -1.037  10.931  18.224  0.00  0.00    +0.000 A 
ATOM      7  C   UNL     1      -1.749  12.004  18.767  0.00  0.00    +0.000 A 
ATOM      8  C   UNL     1      -3.150  12.053  18.704  0.00  0.00    +0.000 A 
BRANCH   3  10
ATOM      9  C   UNL     1      -6.054  12.033  17.365  0.00  0.00    +0.000 C 
ATOM     10  N   UNL     1      -5.298  11.043  18.121  0.00  0.00    +0.000 N 
ATOM     11  C   UNL     1      -6.061  10.039  18.851  0.00  0.00    +0.000 C 
ENDBRANCH   3  10
ENDBRANCH   2   6
ENDBRANCH   1   2
BRANCH   1  12
ATOM     12  C   UNL     1       1.953   8.890  18.719  0.00  0.00    +0.000 C 
BRANCH  12  13
ATOM     13  C   UNL     1       1.893   7.398  19.013  0.00  0.00    +0.000 A 
ATOM     14  C   UNL     1       1.656   6.954  20.316  0.00  0.00    +0.000 A 
ATOM     15  C   UNL     1       1.772   5.601  20.643  0.00  0.00    +0.000 A 
ATOM     16  C   UNL     1       2.098   4.630  19.677  0.00  0.00    +0.000 A 
ATOM     17  C   UNL     1       2.262   5.081  18.355  0.00  0.00    +0.000 A 
ATOM     18  C   UNL     1       2.157   6.441  18.024  0.00  0.00    +0.000 A 
BRANCH  16  19
ATOM     19  C   UNL     1       2.346   3.163  20.079  0.00  0.00    +0.000 C 
ATOM     20  C   UNL     1       2.006   2.900  21.565  0.00  0.00    +0.000 C 
ATOM     21  C   UNL     1       1.521   2.154  19.250  0.00  0.00    +0.000 C 
ATOM     22  C   UNL     1       3.843   2.847  19.866  0.00  0.00    +0.000 C 
ENDBRANCH  16  19
ENDBRANCH  12  13
ENDBRANCH   1  12
BRANCH   1  23
ATOM     23  C   UNL     1       1.364  10.207  20.674  0.00  0.00    +0.000 C 
BRANCH  23  24
ATOM     24  C   UNL     1       0.458  11.170  21.406  0.00  0.00    +0.000 A 
ATOM     25  C   UNL     1      -0.688  10.875  22.039  0.00  0.00    +0.000 A 
ATOM     26  C   UNL     1      -1.539  11.932  22.590  0.00  0.00    +0.000 A 
ATOM     27  C   UNL     1      -2.641  11.658  23.401  0.00  0.00    +0.000 A 
ATOM     28  C   UNL     1      -3.449  12.711  23.840  0.00  0.00    +0.000 A 
ATOM     29 CL   UNL     1      -4.763  12.392  24.905  0.00  0.00    +0.000 Cl
ATOM     30  C   UNL     1      -3.198  14.024  23.437  0.00  0.00    +0.000 A 
ATOM     31  C   UNL     1      -2.088  14.303  22.641  0.00  0.00    +0.000 A 
ATOM     32  C   UNL     1      -1.246  13.261  22.260  0.00  0.00    +0.000 A 
ATOM     33  N   UNL     1      -0.043  13.553  21.610  0.00  0.00    +0.000 N 
ATOM     34  C   UNL     1       0.899  12.602  21.330  0.00  0.00    +0.000 A 
ATOM     35  O   UNL     1       2.037  12.918  20.997  0.00  0.00    +0.000 OA
ATOM     36  H   UNL     1       0.255  14.511  21.495  0.00  0.00    +0.000 HD
ENDBRANCH  23  24
ENDBRANCH   1  23
TORSDOF 8
ENDMDL
MODEL 4
REMARK VINA RESULT:      -8.1      0.369      1.530
REMARK  Name = 
REMARK  13 active torsions:
REMARK  status: ('A' for Active; 'I' for Inactive)
REMARK    1  A    between atoms: C_1  and  N_2
REMARK    2  A    between atoms: N_2  and  C_3
REMARK    3  A    between atoms: N_2  and  C_4
REMARK    4  A    between atoms: C_7  and  C_8
REMARK    5  A    between atoms: C_8  and  N_9
REMARK    6  A    between atoms: N_9  and  C_10
REMARK    7  A    between atoms: N_9  and  C_21
REMARK    8  A    between atoms: C_10  and  C_11
REMARK    9  A    between atoms: C_14  and  C_15
REMARK   10  A    between atoms: C_15  and  C_16
REMARK   11  A    between atoms: C_15  and  C_17
REMARK   12  A    between atoms: C_15  and  C_18
REMARK   13  A    between atoms: C_21  and  C_22
REMARK                            x       y       z     vdW  Elec       q    Type
REMARK                         _______ _______ _______ _____ _____    ______ ____
ROOT
ATOM      1  N   UNL     1       0.875   9.684  19.308  0.00  0.00    +0.000 NA
ENDROOT
BRANCH   1   2
ATOM      2  C   UNL     1       0.217  10.582  18.330  0.00  0.00    +0.000 C 
BRANCH   2   6
ATOM      3  C   UNL     1      -4.125  11.110  18.118  0.00  0.00    +0.000 A 
ATOM      4  C   UNL     1      -3.308  11.993  18.847  0.00  0.00    +0.000 A 
ATOM      5  C   UNL     1      -1.921  11.802  18.988  0.00  0.00    +0.000 A 
ATOM      6  C   UNL     1      -1.292  10.701  18.405  0.00  0.00    +0.000 A 
ATOM      7  C   UNL     1      -2.095   9.780  17.726  0.00  0.00    +0.000 A 
ATOM      8  C   UNL     1      -3.478   9.981  17.592  0.00  0.00    +0.000 A 
BRANCH   3  10
ATOM      9  C   UNL     1      -5.932  12.423  17.041  0.00  0.00    +0.000 C 
ATOM     10  N   UNL     1      -5.478  11.348  17.913  0.00  0.00    +0.000 N 
ATOM     11  C   UNL     1      -6.501  10.508  18.523  0.00  0.00    +0.000 C 
ENDBRANCH   3  10
ENDBRANCH   2   6
ENDBRANCH   1   2
BRANCH   1  12
ATOM     12  C   UNL     1       1.933   8.883  18.630  0.00  0.00    +0.000 C 
BRANCH  12  13
ATOM     13  C   UNL     1       1.863   7.400  18.963  0.00  0.00    +0.000 A 
ATOM     14  C   UNL     1       1.660   6.992  20.283  0.00  0.00    +0.000 A 
ATOM     15  C   UNL     1       1.769   5.645  20.639  0.00  0.00    +0.000 A 
ATOM     16  C   UNL     1       2.052   4.646  19.689  0.00  0.00    +0.000 A 
ATOM     17  C   UNL     1       2.180   5.063  18.351  0.00  0.00    +0.000 A 
ATOM     18  C   UNL     1       2.083   6.416  17.990  0.00  0.00    +0.000 A 
BRANCH  16  19
ATOM     19  C   UNL     1       2.292   3.187  20.119  0.00  0.00    +0.000 C 
ATOM     20  C   UNL     1       3.785   2.791  20.035  0.00  0.00    +0.000 C 
ATOM     21  C   UNL     1       1.836   2.892  21.565  0.00  0.00    +0.000 C 
ATOM     22  C   UNL     1       1.497   2.263  19.169  0.00  0.00    +0.000 C 
ENDBRANCH  16  19
ENDBRANCH  12  13
ENDBRANCH   1  12
BRANCH   1  23
ATOM     23  C   UNL     1       1.508  10.518  20.377  0.00  0.00    +0.000 C 
BRANCH  23  24
ATOM     24  C   UNL     1       0.591  11.422  21.169  0.00  0.00    +0.000 A 
ATOM     25  C   UNL     1      -0.501  11.057  21.859  0.00  0.00    +0.000 A 
ATOM     26  C   UNL     1      -1.378  12.059  22.468  0.00  0.00    +0.000 A 
ATOM     27  C   UNL     1      -2.417  11.716  23.334  0.00  0.00    +0.000 A 
ATOM     28  C   UNL     1      -3.257  12.718  23.829  0.00  0.00    +0.000 A 
ATOM     29 CL   UNL     1      -4.492  12.317  24.959  0.00  0.00    +0.000 Cl
ATOM     30  C   UNL     1      -3.101  14.047  23.429  0.00  0.00    +0.000 A 
ATOM     31  C   UNL     1      -2.054  14.396  22.578  0.00  0.00    +0.000 A 
ATOM     32  C   UNL     1      -1.177  13.406  22.139  0.00  0.00    +0.000 A 
ATOM     33  N   UNL     1      -0.030  13.771  21.429  0.00  0.00    +0.000 N 
ATOM     34  C   UNL     1       0.947  12.876  21.087  0.00  0.00    +0.000 A 
ATOM     35  O   UNL     1       2.046  13.259  20.697  0.00  0.00    +0.000 OA
ATOM     36  H   UNL     1       0.208  14.745  21.310  0.00  0.00    +0.000 HD
ENDBRANCH  23  24
ENDBRANCH   1  23
TORSDOF 8
ENDMDL
MODEL 5
REMARK VINA RESULT:      -8.1      1.066      1.523
REMARK  Name = 
REMARK  13 active torsions:
REMARK  status: ('A' for Active; 'I' for Inactive)
REMARK    1  A    between atoms: C_1  and  N_2
REMARK    2  A    between atoms: N_2  and  C_3
REMARK    3  A    between atoms: N_2  and  C_4
REMARK    4  A    between atoms: C_7  and  C_8
REMARK    5  A    between atoms: C_8  and  N_9
REMARK    6  A    between atoms: N_9  and  C_10
REMARK    7  A    between atoms: N_9  and  C_21
REMARK    8  A    between atoms: C_10  and  C_11
REMARK    9  A    between atoms: C_14  and  C_15
REMARK   10  A    between atoms: C_15  and  C_16
REMARK   11  A    between atoms: C_15  and  C_17
REMARK   12  A    between atoms: C_15  and  C_18
REMARK   13  A    between atoms: C_21  and  C_22
REMARK                            x       y       z     vdW  Elec       q    Type
REMARK                         _______ _______ _______ _____ _____    ______ ____
ROOT
ATOM      1  N   UNL     1       0.289  10.075  18.619  0.00  0.00    +0.000 NA
ENDROOT
BRANCH   1   2
ATOM      2  C   UNL     1      -0.451   9.707  17.390  0.00  0.00    +0.000 C 
BRANCH   2   6
ATOM      3  C   UNL     1      -4.605  11.091  17.489  0.00  0.00    +0.000 A 
ATOM      4  C   UNL     1      -4.146  10.070  18.341  0.00  0.00    +0.000 A 
ATOM      5  C   UNL     1      -2.835   9.560  18.276  0.00  0.00    +0.000 A 
ATOM      6  C   UNL     1      -1.926  10.053  17.339  0.00  0.00    +0.000 A 
ATOM      7  C   UNL     1      -2.380  11.026  16.445  0.00  0.00    +0.000 A 
ATOM      8  C   UNL     1      -3.690  11.527  16.518  0.00  0.00    +0.000 A 
BRANCH   3  10
ATOM      9  C   UNL     1      -6.217  12.896  16.946  0.00  0.00    +0.000 C 
ATOM     10  N   UNL     1      -5.872  11.647  17.612  0.00  0.00    +0.000 N 
ATOM     11  C   UNL     1      -6.924  10.986  18.373  0.00  0.00    +0.000 C 
ENDBRANCH   3  10
ENDBRANCH   2   6
ENDBRANCH   1   2
BRANCH   1  12
ATOM     12  C   UNL     1       1.721   9.685  18.486  0.00  0.00    +0.000 C 
BRANCH  12  13
ATOM     13  C   UNL     1       1.982   8.237  18.871  0.00  0.00    +0.000 A 
ATOM     14  C   UNL     1       2.419   7.328  17.904  0.00  0.00    +0.000 A 
ATOM     15  C   UNL     1       2.494   5.962  18.189  0.00  0.00    +0.000 A 
ATOM     16  C   UNL     1       2.169   5.450  19.460  0.00  0.00    +0.000 A 
ATOM     17  C   UNL     1       1.802   6.385  20.444  0.00  0.00    +0.000 A 
ATOM     18  C   UNL     1       1.714   7.756  20.160  0.00  0.00    +0.000 A 
BRANCH  16  19
ATOM     19  C   UNL     1       2.137   3.932  19.718  0.00  0.00    +0.000 C 
ATOM     20  C   UNL     1       3.557   3.323  19.799  0.00  0.00    +0.000 C 
ATOM     21  C   UNL     1       1.416   3.550  21.029  0.00  0.00    +0.000 C 
ATOM     22  C   UNL     1       1.391   3.255  18.547  0.00  0.00    +0.000 C 
ENDBRANCH  16  19
ENDBRANCH  12  13
ENDBRANCH   1  12
BRANCH   1  23
ATOM     23  C   UNL     1       0.206  11.557  18.804  0.00  0.00    +0.000 C 
BRANCH  23  24
ATOM     24  C   UNL     1      -0.251  12.052  20.158  0.00  0.00    +0.000 A 
ATOM     25  C   UNL     1      -1.453  11.859  20.722  0.00  0.00    +0.000 A 
ATOM     26  C   UNL     1      -1.808  12.513  21.983  0.00  0.00    +0.000 A 
ATOM     27  C   UNL     1      -2.973  12.202  22.685  0.00  0.00    +0.000 A 
ATOM     28  C   UNL     1      -3.284  12.912  23.849  0.00  0.00    +0.000 A 
ATOM     29 CL   UNL     1      -4.677  12.484  24.764  0.00  0.00    +0.000 Cl
ATOM     30  C   UNL     1      -2.471  13.958  24.289  0.00  0.00    +0.000 A 
ATOM     31  C   UNL     1      -1.298  14.261  23.600  0.00  0.00    +0.000 A 
ATOM     32  C   UNL     1      -0.955  13.508  22.479  0.00  0.00    +0.000 A 
ATOM     33  N   UNL     1       0.298  13.689  21.886  0.00  0.00    +0.000 N 
ATOM     34  C   UNL     1       0.762  12.895  20.874  0.00  0.00    +0.000 A 
ATOM     35  O   UNL     1       1.945  12.910  20.550  0.00  0.00    +0.000 OA
ATOM     36  H   UNL     1       0.982  14.294  22.316  0.00  0.00    +0.000 HD
ENDBRANCH  23  24
ENDBRANCH   1  23
TORSDOF 8
ENDMDL
MODEL 6
REMARK VINA RESULT:      -7.8      1.377      1.984
REMARK  Name = 
REMARK  13 active torsions:
REMARK  status: ('A' for Active; 'I' for Inactive)
REMARK    1  A    between atoms: C_1  and  N_2
REMARK    2  A    between atoms: N_2  and  C_3
REMARK    3  A    between atoms: N_2  and  C_4
REMARK    4  A    between atoms: C_7  and  C_8
REMARK    5  A    between atoms: C_8  and  N_9
REMARK    6  A    between atoms: N_9  and  C_10
REMARK    7  A    between atoms: N_9  and  C_21
REMARK    8  A    between atoms: C_10  and  C_11
REMARK    9  A    between atoms: C_14  and  C_15
REMARK   10  A    between atoms: C_15  and  C_16
REMARK   11  A    between atoms: C_15  and  C_17
REMARK   12  A    between atoms: C_15  and  C_18
REMARK   13  A    between atoms: C_21  and  C_22
REMARK                            x       y       z     vdW  Elec       q    Type
REMARK                         _______ _______ _______ _____ _____    ______ ____
ROOT
ATOM      1  N   UNL     1       0.828   9.597  19.372  0.00  0.00    +0.000 NA
ENDROOT
BRANCH   1   2
ATOM      2  C   UNL     1       0.453  10.499  18.257  0.00  0.00    +0.000 C 
BRANCH   2   6
ATOM      3  C   UNL     1      -3.884  10.971  17.880  0.00  0.00    +0.000 A 
ATOM      4  C   UNL     1      -3.254   9.731  17.667  0.00  0.00    +0.000 A 
ATOM      5  C   UNL     1      -1.857   9.573  17.712  0.00  0.00    +0.000 A 
ATOM      6  C   UNL     1      -1.025  10.664  17.967  0.00  0.00    +0.000 A 
ATOM      7  C   UNL     1      -1.628  11.916  18.123  0.00  0.00    +0.000 A 
ATOM      8  C   UNL     1      -3.023  12.062  18.075  0.00  0.00    +0.000 A 
BRANCH   3  10
ATOM      9  C   UNL     1      -6.090  10.222  18.731  0.00  0.00    +0.000 C 
ATOM     10  N   UNL     1      -5.266  11.105  17.916  0.00  0.00    +0.000 N 
ATOM     11  C   UNL     1      -5.950  12.160  17.179  0.00  0.00    +0.000 C 
ENDBRANCH   3  10
ENDBRANCH   2   6
ENDBRANCH   1   2
BRANCH   1  12
ATOM     12  C   UNL     1       2.064   8.843  19.022  0.00  0.00    +0.000 C 
BRANCH  12  13
ATOM     13  C   UNL     1       1.930   7.344  19.245  0.00  0.00    +0.000 A 
ATOM     14  C   UNL     1       1.595   6.855  20.509  0.00  0.00    +0.000 A 
ATOM     15  C   UNL     1       1.640   5.485  20.781  0.00  0.00    +0.000 A 
ATOM     16  C   UNL     1       1.990   4.544  19.795  0.00  0.00    +0.000 A 
ATOM     17  C   UNL     1       2.253   5.045  18.506  0.00  0.00    +0.000 A 
ATOM     18  C   UNL     1       2.220   6.420  18.231  0.00  0.00    +0.000 A 
BRANCH  16  19
ATOM     19  C   UNL     1       2.157   3.053  20.144  0.00  0.00    +0.000 C 
ATOM     20  C   UNL     1       3.640   2.615  20.141  0.00  0.00    +0.000 C 
ATOM     21  C   UNL     1       1.588   2.683  21.531  0.00  0.00    +0.000 C 
ATOM     22  C   UNL     1       1.408   2.218  19.082  0.00  0.00    +0.000 C 
ENDBRANCH  16  19
ENDBRANCH  12  13
ENDBRANCH   1  12
BRANCH   1  23
ATOM     23  C   UNL     1       1.092  10.424  20.590  0.00  0.00    +0.000 C 
BRANCH  23  24
ATOM     24  C   UNL     1      -0.112  11.009  21.293  0.00  0.00    +0.000 A 
ATOM     25  C   UNL     1      -0.636  12.231  21.111  0.00  0.00    +0.000 A 
ATOM     26  C   UNL     1      -1.724  12.719  21.961  0.00  0.00    +0.000 A 
ATOM     27  C   UNL     1      -2.408  13.906  21.692  0.00  0.00    +0.000 A 
ATOM     28  C   UNL     1      -3.392  14.347  22.582  0.00  0.00    +0.000 A 
ATOM     29 CL   UNL     1      -4.295  15.767  22.219  0.00  0.00    +0.000 Cl
ATOM     30  C   UNL     1      -3.663  13.645  23.757  0.00  0.00    +0.000 A 
ATOM     31  C   UNL     1      -2.994  12.451  24.020  0.00  0.00    +0.000 A 
ATOM     32  C   UNL     1      -2.062  11.977  23.100  0.00  0.00    +0.000 A 
ATOM     33  N   UNL     1      -1.515  10.702  23.269  0.00  0.00    +0.000 N 
ATOM     34  C   UNL     1      -0.704  10.112  22.339  0.00  0.00    +0.000 A 
ATOM     35  O   UNL     1      -0.450   8.913  22.392  0.00  0.00    +0.000 OA
ATOM     36  H   UNL     1      -1.856  10.094  24.001  0.00  0.00    +0.000 HD
ENDBRANCH  23  24
ENDBRANCH   1  23
TORSDOF 8
ENDMDL
MODEL 7
REMARK VINA RESULT:      -7.7      2.710      3.636
REMARK  Name = 
REMARK  13 active torsions:
REMARK  status: ('A' for Active; 'I' for Inactive)
REMARK    1  A    between atoms: C_1  and  N_2
REMARK    2  A    between atoms: N_2  and  C_3
REMARK    3  A    between atoms: N_2  and  C_4
REMARK    4  A    between atoms: C_7  and  C_8
REMARK    5  A    between atoms: C_8  and  N_9
REMARK    6  A    between atoms: N_9  and  C_10
REMARK    7  A    between atoms: N_9  and  C_21
REMARK    8  A    between atoms: C_10  and  C_11
REMARK    9  A    between atoms: C_14  and  C_15
REMARK   10  A    between atoms: C_15  and  C_16
REMARK   11  A    between atoms: C_15  and  C_17
REMARK   12  A    between atoms: C_15  and  C_18
REMARK   13  A    between atoms: C_21  and  C_22
REMARK                            x       y       z     vdW  Elec       q    Type
REMARK                         _______ _______ _______ _____ _____    ______ ____
ROOT
ATOM      1  N   UNL     1       0.628   9.720  19.429  0.00  0.00    +0.000 NA
ENDROOT
BRANCH   1   2
ATOM      2  C   UNL     1      -0.039  10.598  18.438  0.00  0.00    +0.000 C 
BRANCH   2   6
ATOM      3  C   UNL     1      -4.382  11.126  18.240  0.00  0.00    +0.000 A 
ATOM      4  C   UNL     1      -3.579  11.917  19.083  0.00  0.00    +0.000 A 
ATOM      5  C   UNL     1      -2.193  11.716  19.216  0.00  0.00    +0.000 A 
ATOM      6  C   UNL     1      -1.550  10.699  18.509  0.00  0.00    +0.000 A 
ATOM      7  C   UNL     1      -2.340   9.865  17.712  0.00  0.00    +0.000 A 
ATOM      8  C   UNL     1      -3.722  10.074  17.587  0.00  0.00    +0.000 A 
BRANCH   3  10
ATOM      9  C   UNL     1      -6.184  12.497  17.229  0.00  0.00    +0.000 C 
ATOM     10  N   UNL     1      -5.734  11.381  18.050  0.00  0.00    +0.000 N 
ATOM     11  C   UNL     1      -6.761  10.521  18.624  0.00  0.00    +0.000 C 
ENDBRANCH   3  10
ENDBRANCH   2   6
ENDBRANCH   1   2
BRANCH   1  12
ATOM     12  C   UNL     1       1.877   9.155  18.847  0.00  0.00    +0.000 C 
BRANCH  12  13
ATOM     13  C   UNL     1       2.082   7.686  19.188  0.00  0.00    +0.000 A 
ATOM     14  C   UNL     1       2.571   6.808  18.219  0.00  0.00    +0.000 A 
ATOM     15  C   UNL     1       2.600   5.431  18.452  0.00  0.00    +0.000 A 
ATOM     16  C   UNL     1       2.173   4.875  19.673  0.00  0.00    +0.000 A 
ATOM     17  C   UNL     1       1.752   5.778  20.666  0.00  0.00    +0.000 A 
ATOM     18  C   UNL     1       1.711   7.161  20.434  0.00  0.00    +0.000 A 
BRANCH  16  19
ATOM     19  C   UNL     1       2.093   3.348  19.865  0.00  0.00    +0.000 C 
ATOM     20  C   UNL     1       0.695   2.788  19.516  0.00  0.00    +0.000 C 
ATOM     21  C   UNL     1       3.112   2.570  19.004  0.00  0.00    +0.000 C 
ATOM     22  C   UNL     1       2.380   3.031  21.349  0.00  0.00    +0.000 C 
ENDBRANCH  16  19
ENDBRANCH  12  13
ENDBRANCH   1  12
BRANCH   1  23
ATOM     23  C   UNL     1       0.979  10.536  20.633  0.00  0.00    +0.000 C 
BRANCH  23  24
ATOM     24  C   UNL     1       1.102  12.029  20.433  0.00  0.00    +0.000 A 
ATOM     25  C   UNL     1       1.729  12.659  19.427  0.00  0.00    +0.000 A 
ATOM     26  C   UNL     1       1.890  14.114  19.432  0.00  0.00    +0.000 A 
ATOM     27  C   UNL     1       2.377  14.816  18.329  0.00  0.00    +0.000 A 
ATOM     28  C   UNL     1       2.567  16.198  18.424  0.00  0.00    +0.000 A 
ATOM     29 CL   UNL     1       3.093  17.085  17.045  0.00  0.00    +0.000 Cl
ATOM     30  C   UNL     1       2.324  16.875  19.621  0.00  0.00    +0.000 A 
ATOM     31  C   UNL     1       1.821  16.180  20.719  0.00  0.00    +0.000 A 
ATOM     32  C   UNL     1       1.568  14.815  20.602  0.00  0.00    +0.000 A 
ATOM     33  N   UNL     1       0.906  14.147  21.636  0.00  0.00    +0.000 N 
ATOM     34  C   UNL     1       0.499  12.845  21.538  0.00  0.00    +0.000 A 
ATOM     35  O   UNL     1      -0.293  12.368  22.344  0.00  0.00    +0.000 OA
ATOM     36  H   UNL     1       0.536  14.663  22.421  0.00  0.00    +0.000 HD
ENDBRANCH  23  24
ENDBRANCH   1  23
TORSDOF 8
ENDMDL
MODEL 8
REMARK VINA RESULT:      -7.7      3.068      8.006
REMARK  Name = 
REMARK  13 active torsions:
REMARK  status: ('A' for Active; 'I' for Inactive)
REMARK    1  A    between atoms: C_1  and  N_2
REMARK    2  A    between atoms: N_2  and  C_3
REMARK    3  A    between atoms: N_2  and  C_4
REMARK    4  A    between atoms: C_7  and  C_8
REMARK    5  A    between atoms: C_8  and  N_9
REMARK    6  A    between atoms: N_9  and  C_10
REMARK    7  A    between atoms: N_9  and  C_21
REMARK    8  A    between atoms: C_10  and  C_11
REMARK    9  A    between atoms: C_14  and  C_15
REMARK   10  A    between atoms: C_15  and  C_16
REMARK   11  A    between atoms: C_15  and  C_17
REMARK   12  A    between atoms: C_15  and  C_18
REMARK   13  A    between atoms: C_21  and  C_22
REMARK                            x       y       z     vdW  Elec       q    Type
REMARK                         _______ _______ _______ _____ _____    ______ ____
ROOT
ATOM      1  N   UNL     1       0.386   9.943  18.570  0.00  0.00    +0.000 NA
ENDROOT
BRANCH   1   2
ATOM      2  C   UNL     1       0.478  11.413  18.737  0.00  0.00    +0.000 C 
BRANCH   2   6
ATOM      3  C   UNL     1      -2.186  12.855  21.900  0.00  0.00    +0.000 A 
ATOM      4  C   UNL     1      -2.206  13.409  20.606  0.00  0.00    +0.000 A 
ATOM      5  C   UNL     1      -1.311  13.011  19.597  0.00  0.00    +0.000 A 
ATOM      6  C   UNL     1      -0.343  12.037  19.848  0.00  0.00    +0.000 A 
ATOM      7  C   UNL     1      -0.268  11.516  21.143  0.00  0.00    +0.000 A 
ATOM      8  C   UNL     1      -1.166  11.922  22.142  0.00  0.00    +0.000 A 
BRANCH   3  10
ATOM      9  C   UNL     1      -2.761  13.997  24.024  0.00  0.00    +0.000 C 
ATOM     10  N   UNL     1      -3.125  13.192  22.867  0.00  0.00    +0.000 N 
ATOM     11  C   UNL     1      -4.521  12.795  22.744  0.00  0.00    +0.000 C 
ENDBRANCH   3  10
ENDBRANCH   2   6
ENDBRANCH   1   2
BRANCH   1  12
ATOM     12  C   UNL     1      -0.406   9.618  17.351  0.00  0.00    +0.000 C 
BRANCH  12  13
ATOM     13  C   UNL     1      -1.852  10.080  17.439  0.00  0.00    +0.000 A 
ATOM     14  C   UNL     1      -2.321  11.070  16.572  0.00  0.00    +0.000 A 
ATOM     15  C   UNL     1      -3.587  11.634  16.749  0.00  0.00    +0.000 A 
ATOM     16  C   UNL     1      -4.451  11.211  17.777  0.00  0.00    +0.000 A 
ATOM     17  C   UNL     1      -3.995  10.162  18.596  0.00  0.00    +0.000 A 
ATOM     18  C   UNL     1      -2.720   9.600  18.429  0.00  0.00    +0.000 A 
BRANCH  16  19
ATOM     19  C   UNL     1      -5.790  11.930  18.034  0.00  0.00    +0.000 C 
ATOM     20  C   UNL     1      -6.252  12.757  16.813  0.00  0.00    +0.000 C 
ATOM     21  C   UNL     1      -6.945  10.965  18.381  0.00  0.00    +0.000 C 
ATOM     22  C   UNL     1      -5.601  12.896  19.224  0.00  0.00    +0.000 C 
ENDBRANCH  16  19
ENDBRANCH  12  13
ENDBRANCH   1  12
BRANCH   1  23
ATOM     23  C   UNL     1       1.767   9.390  18.414  0.00  0.00    +0.000 C 
BRANCH  23  24
ATOM     24  C   UNL     1       2.003   7.989  18.930  0.00  0.00    +0.000 A 
ATOM     25  C   UNL     1       2.322   6.906  18.203  0.00  0.00    +0.000 A 
ATOM     26  C   UNL     1       2.386   5.578  18.817  0.00  0.00    +0.000 A 
ATOM     27  C   UNL     1       2.881   4.464  18.139  0.00  0.00    +0.000 A 
ATOM     28  C   UNL     1       2.852   3.212  18.762  0.00  0.00    +0.000 A 
ATOM     29 CL   UNL     1       3.531   1.846  17.965  0.00  0.00    +0.000 Cl
ATOM     30  C   UNL     1       2.292   3.055  20.031  0.00  0.00    +0.000 A 
ATOM     31  C   UNL     1       1.812   4.169  20.718  0.00  0.00    +0.000 A 
ATOM     32  C   UNL     1       1.903   5.425  20.123  0.00  0.00    +0.000 A 
ATOM     33  N   UNL     1       1.585   6.563  20.870  0.00  0.00    +0.000 N 
ATOM     34  C   UNL     1       1.781   7.835  20.405  0.00  0.00    +0.000 A 
ATOM     35  O   UNL     1       1.736   8.799  21.163  0.00  0.00    +0.000 OA
ATOM     36  H   UNL     1       1.377   6.485  21.855  0.00  0.00    +0.000 HD
ENDBRANCH  23  24
ENDBRANCH   1  23
TORSDOF 8
ENDMDL
MODEL 9
REMARK VINA RESULT:      -7.6      0.883      1.110
REMARK  Name = 
REMARK  13 active torsions:
REMARK  status: ('A' for Active; 'I' for Inactive)
REMARK    1  A    between atoms: C_1  and  N_2
REMARK    2  A    between atoms: N_2  and  C_3
REMARK    3  A    between atoms: N_2  and  C_4
REMARK    4  A    between atoms: C_7  and  C_8
REMARK    5  A    between atoms: C_8  and  N_9
REMARK    6  A    between atoms: N_9  and  C_10
REMARK    7  A    between atoms: N_9  and  C_21
REMARK    8  A    between atoms: C_10  and  C_11
REMARK    9  A    between atoms: C_14  and  C_15
REMARK   10  A    between atoms: C_15  and  C_16
REMARK   11  A    between atoms: C_15  and  C_17
REMARK   12  A    between atoms: C_15  and  C_18
REMARK   13  A    between atoms: C_21  and  C_22
REMARK                            x       y       z     vdW  Elec       q    Type
REMARK                         _______ _______ _______ _____ _____    ______ ____
ROOT
ATOM      1  N   UNL     1       0.686  10.450  19.226  0.00  0.00    +0.000 NA
ENDROOT
BRANCH   1   2
ATOM      2  C   UNL     1       0.067  11.553  18.454  0.00  0.00    +0.000 C 
BRANCH   2   6
ATOM      3  C   UNL     1      -4.294  11.569  18.853  0.00  0.00    +0.000 A 
ATOM      4  C   UNL     1      -3.628  10.621  18.054  0.00  0.00    +0.000 A 
ATOM      5  C   UNL     1      -2.236  10.642  17.854  0.00  0.00    +0.000 A 
ATOM      6  C   UNL     1      -1.447  11.629  18.447  0.00  0.00    +0.000 A 
ATOM      7  C   UNL     1      -2.096  12.615  19.196  0.00  0.00    +0.000 A 
ATOM      8  C   UNL     1      -3.486  12.585  19.387  0.00  0.00    +0.000 A 
BRANCH   3  10
ATOM      9  C   UNL     1      -6.213  11.975  20.370  0.00  0.00    +0.000 C 
ATOM     10  N   UNL     1      -5.657  11.495  19.113  0.00  0.00    +0.000 N 
ATOM     11  C   UNL     1      -6.594  10.977  18.124  0.00  0.00    +0.000 C 
ENDBRANCH   3  10
ENDBRANCH   2   6
ENDBRANCH   1   2
BRANCH   1  12
ATOM     12  C   UNL     1       1.761   9.807  18.420  0.00  0.00    +0.000 C 
BRANCH  12  13
ATOM     13  C   UNL     1       1.995   8.350  18.793  0.00  0.00    +0.000 A 
ATOM     14  C   UNL     1       2.416   7.441  17.820  0.00  0.00    +0.000 A 
ATOM     15  C   UNL     1       2.467   6.073  18.095  0.00  0.00    +0.000 A 
ATOM     16  C   UNL     1       2.130   5.556  19.361  0.00  0.00    +0.000 A 
ATOM     17  C   UNL     1       1.779   6.490  20.352  0.00  0.00    +0.000 A 
ATOM     18  C   UNL     1       1.716   7.865  20.078  0.00  0.00    +0.000 A 
BRANCH  16  19
ATOM     19  C   UNL     1       2.071   4.037  19.607  0.00  0.00    +0.000 C 
ATOM     20  C   UNL     1       1.270   3.683  20.883  0.00  0.00    +0.000 C 
ATOM     21  C   UNL     1       1.422   3.253  18.445  0.00  0.00    +0.000 C 
ATOM     22  C   UNL     1       3.514   3.517  19.788  0.00  0.00    +0.000 C 
ENDBRANCH  16  19
ENDBRANCH  12  13
ENDBRANCH   1  12
BRANCH   1  23
ATOM     23  C   UNL     1       1.287  11.015  20.474  0.00  0.00    +0.000 C 
BRANCH  23  24
ATOM     24  C   UNL     1       0.367  11.804  21.378  0.00  0.00    +0.000 A 
ATOM     25  C   UNL     1      -0.773  11.373  21.940  0.00  0.00    +0.000 A 
ATOM     26  C   UNL     1      -1.639  12.290  22.684  0.00  0.00    +0.000 A 
ATOM     27  C   UNL     1      -2.735  11.846  23.426  0.00  0.00    +0.000 A 
ATOM     28  C   UNL     1      -3.559  12.781  24.059  0.00  0.00    +0.000 A 
ATOM     29 CL   UNL     1      -4.866  12.241  25.040  0.00  0.00    +0.000 Cl
ATOM     30  C   UNL     1      -3.329  14.151  23.919  0.00  0.00    +0.000 A 
ATOM     31  C   UNL     1      -2.226  14.597  23.193  0.00  0.00    +0.000 A 
ATOM     32  C   UNL     1      -1.368  13.662  22.619  0.00  0.00    +0.000 A 
ATOM     33  N   UNL     1      -0.171  14.093  22.040  0.00  0.00    +0.000 N 
ATOM     34  C   UNL     1       0.785  13.229  21.582  0.00  0.00    +0.000 A 
ATOM     35  O   UNL     1       1.917  13.622  21.317  0.00  0.00    +0.000 OA
ATOM     36  H   UNL     1       0.112  15.060  22.113  0.00  0.00    +0.000 HD
ENDBRANCH  23  24
ENDBRANCH   1  23
TORSDOF 8
ENDMDL
