MODEL 1
REMARK VINA RESULT:      -5.7      0.000      0.000
REMARK  Name = 
REMARK  19 active torsions:
REMARK  status: ('A' for Active; 'I' for Inactive)
REMARK    1  A    between atoms: C_1  and  C_2
REMARK    2  A    between atoms: C_2  and  C_3
REMARK    3  A    between atoms: C_3  and  C_4
REMARK    4  A    between atoms: C_4  and  C_5
REMARK    5  A    between atoms: C_5  and  C_6
REMARK    6  A    between atoms: C_6  and  C_7
REMARK    7  A    between atoms: C_7  and  C_8
REMARK    8  A    between atoms: C_8  and  C_9
REMARK    9  A    between atoms: C_9  and  C_10
REMARK   10  A    between atoms: C_10  and  C_11
REMARK   11  A    between atoms: C_11  and  C_12
REMARK   12  A    between atoms: C_12  and  C_13
REMARK   13  A    between atoms: C_13  and  C_14
REMARK   14  A    between atoms: C_14  and  N_15
REMARK   15  A    between atoms: N_15  and  C_16
REMARK   16  A    between atoms: N_15  and  C_17
REMARK   17  A    between atoms: N_15  and  C_18
REMARK   18  A    between atoms: C_18  and  C_19
REMARK   19  A    between atoms: C_19  and  C_20
REMARK                            x       y       z     vdW  Elec       q    Type
REMARK                         _______ _______ _______ _____ _____    ______ ____
ROOT
ATOM      1  C   UNL     1       5.438   5.579  17.258  0.00  0.00    +0.000 C 
ENDROOT
BRANCH   1   2
ATOM      2  C   UNL     1       5.278   5.605  15.741  0.00  0.00    +0.000 C 
BRANCH   2   3
ATOM      3  C   UNL     1       5.170   4.172  15.225  0.00  0.00    +0.000 C 
BRANCH   3   4
ATOM      4  C   UNL     1       6.452   3.707  14.539  0.00  0.00    +0.000 C 
BRANCH   4   5
ATOM      5  C   UNL     1       6.595   4.281  13.127  0.00  0.00    +0.000 C 
BRANCH   5   6
ATOM      6  C   UNL     1       6.710   3.196  12.054  0.00  0.00    +0.000 C 
BRANCH   6   7
ATOM      7  C   UNL     1       5.368   2.519  11.790  0.00  0.00    +0.000 C 
BRANCH   7   8
ATOM      8  C   UNL     1       4.276   3.561  11.543  0.00  0.00    +0.000 C 
BRANCH   8  10
ATOM      9  C   UNL     1       2.881   4.284   9.576  0.00  0.00    +0.000 C 
ATOM     10  C   UNL     1       3.336   3.111  10.428  0.00  0.00    +0.000 C 
ENDBRANCH   8  10
ENDBRANCH   7   8
ENDBRANCH   6   7
ENDBRANCH   5   6
ENDBRANCH   4   5
ENDBRANCH   3   4
ENDBRANCH   2   3
ENDBRANCH   1   2
BRANCH   1  11
ATOM     11  C   UNL     1       4.863   6.830  17.916  0.00  0.00    +0.000 C 
BRANCH  11  12
ATOM     12  C   UNL     1       3.342   6.925  17.767  0.00  0.00    +0.000 C 
BRANCH  12  13
ATOM     13  C   UNL     1       2.537   5.954  18.645  0.00  0.00    +0.000 C 
BRANCH  13  14
ATOM     14  C   UNL     1       2.123   4.685  17.894  0.00  0.00    +0.000 C 
BRANCH  14  15
ATOM     15  N   UNL     1       2.485   3.361  18.622  0.00  0.00    +0.000 N 
ATOM     16  C   UNL     1       2.737   2.253  17.610  0.00  0.00    +0.000 C 
ATOM     17  C   UNL     1       3.725   3.573  19.491  0.00  0.00    +0.000 C 
BRANCH  15  18
ATOM     18  C   UNL     1       1.258   3.023  19.518  0.00  0.00    +0.000 C 
BRANCH  18  19
ATOM     19  C   UNL     1       1.357   3.560  20.945  0.00  0.00    +0.000 C 
ATOM     20  C   UNL     1       1.343   2.421  21.956  0.00  0.00    +0.000 C 
ENDBRANCH  18  19
ENDBRANCH  15  18
ENDBRANCH  14  15
ENDBRANCH  13  14
ENDBRANCH  12  13
ENDBRANCH  11  12
ENDBRANCH   1  11
TORSDOF 15
ENDMDL
MODEL 2
REMARK VINA RESULT:      -5.6      1.970      7.300
REMARK  Name = 
REMARK  19 active torsions:
REMARK  status: ('A' for Active; 'I' for Inactive)
REMARK    1  A    between atoms: C_1  and  C_2
REMARK    2  A    between atoms: C_2  and  C_3
REMARK    3  A    between atoms: C_3  and  C_4
REMARK    4  A    between atoms: C_4  and  C_5
REMARK    5  A    between atoms: C_5  and  C_6
REMARK    6  A    between atoms: C_6  and  C_7
REMARK    7  A    between atoms: C_7  and  C_8
REMARK    8  A    between atoms: C_8  and  C_9
REMARK    9  A    between atoms: C_9  and  C_10
REMARK   10  A    between atoms: C_10  and  C_11
REMARK   11  A    between atoms: C_11  and  C_12
REMARK   12  A    between atoms: C_12  and  C_13
REMARK   13  A    between atoms: C_13  and  C_14
REMARK   14  A    between atoms: C_14  and  N_15
REMARK   15  A    between atoms: N_15  and  C_16
REMARK   16  A    between atoms: N_15  and  C_17
REMARK   17  A    between atoms: N_15  and  C_18
REMARK   18  A    between atoms: C_18  and  C_19
REMARK   19  A    between atoms: C_19  and  C_20
REMARK                            x       y       z     vdW  Elec       q    Type
REMARK                         _______ _______ _______ _____ _____    ______ ____
ROOT
ATOM      1  C   UNL     1       1.276   2.253  18.697  0.00  0.00    +0.000 C 
ENDROOT
BRANCH   1   2
ATOM      2  C   UNL     1       1.987   2.293  20.046  0.00  0.00    +0.000 C 
BRANCH   2   3
ATOM      3  C   UNL     1       1.268   3.281  20.961  0.00  0.00    +0.000 C 
BRANCH   3   4
ATOM      4  C   UNL     1       2.121   4.508  21.272  0.00  0.00    +0.000 C 
BRANCH   4   5
ATOM      5  C   UNL     1       1.786   5.692  20.361  0.00  0.00    +0.000 C 
BRANCH   5   6
ATOM      6  C   UNL     1       2.910   6.019  19.375  0.00  0.00    +0.000 C 
BRANCH   6   7
ATOM      7  C   UNL     1       2.374   6.678  18.108  0.00  0.00    +0.000 C 
BRANCH   7   8
ATOM      8  C   UNL     1       2.669   8.178  18.111  0.00  0.00    +0.000 C 
BRANCH   8  10
ATOM      9  C   UNL     1       1.635  10.467  18.292  0.00  0.00    +0.000 C 
ATOM     10  C   UNL     1       1.376   8.988  18.058  0.00  0.00    +0.000 C 
ENDBRANCH   8  10
ENDBRANCH   7   8
ENDBRANCH   6   7
ENDBRANCH   5   6
ENDBRANCH   4   5
ENDBRANCH   3   4
ENDBRANCH   2   3
ENDBRANCH   1   2
BRANCH   1  11
ATOM     11  C   UNL     1       2.117   2.875  17.587  0.00  0.00    +0.000 C 
BRANCH  11  12
ATOM     12  C   UNL     1       3.602   2.515  17.705  0.00  0.00    +0.000 C 
BRANCH  12  13
ATOM     13  C   UNL     1       4.576   3.684  17.493  0.00  0.00    +0.000 C 
BRANCH  13  14
ATOM     14  C   UNL     1       5.186   3.695  16.088  0.00  0.00    +0.000 C 
BRANCH  14  15
ATOM     15  N   UNL     1       6.078   4.931  15.785  0.00  0.00    +0.000 N 
ATOM     16  C   UNL     1       5.243   6.203  15.799  0.00  0.00    +0.000 C 
ATOM     17  C   UNL     1       7.199   5.025  16.820  0.00  0.00    +0.000 C 
BRANCH  15  18
ATOM     18  C   UNL     1       6.679   4.681  14.371  0.00  0.00    +0.000 C 
BRANCH  18  19
ATOM     19  C   UNL     1       6.196   3.395  13.703  0.00  0.00    +0.000 C 
ATOM     20  C   UNL     1       5.514   3.697  12.374  0.00  0.00    +0.000 C 
ENDBRANCH  18  19
ENDBRANCH  15  18
ENDBRANCH  14  15
ENDBRANCH  13  14
ENDBRANCH  12  13
ENDBRANCH  11  12
ENDBRANCH   1  11
TORSDOF 15
ENDMDL
MODEL 3
REMARK VINA RESULT:      -5.6      4.000      7.126
REMARK  Name = 
REMARK  19 active torsions:
REMARK  status: ('A' for Active; 'I' for Inactive)
REMARK    1  A    between atoms: C_1  and  C_2
REMARK    2  A    between atoms: C_2  and  C_3
REMARK    3  A    between atoms: C_3  and  C_4
REMARK    4  A    between atoms: C_4  and  C_5
REMARK    5  A    between atoms: C_5  and  C_6
REMARK    6  A    between atoms: C_6  and  C_7
REMARK    7  A    between atoms: C_7  and  C_8
REMARK    8  A    between atoms: C_8  and  C_9
REMARK    9  A    between atoms: C_9  and  C_10
REMARK   10  A    between atoms: C_10  and  C_11
REMARK   11  A    between atoms: C_11  and  C_12
REMARK   12  A    between atoms: C_12  and  C_13
REMARK   13  A    between atoms: C_13  and  C_14
REMARK   14  A    between atoms: C_14  and  N_15
REMARK   15  A    between atoms: N_15  and  C_16
REMARK   16  A    between atoms: N_15  and  C_17
REMARK   17  A    between atoms: N_15  and  C_18
REMARK   18  A    between atoms: C_18  and  C_19
REMARK   19  A    between atoms: C_19  and  C_20
REMARK                            x       y       z     vdW  Elec       q    Type
REMARK                         _______ _______ _______ _____ _____    ______ ____
ROOT
ATOM      1  C   UNL     1       2.634   5.921  17.980  0.00  0.00    +0.000 C 
ENDROOT
BRANCH   1   2
ATOM      2  C   UNL     1       4.061   5.378  17.990  0.00  0.00    +0.000 C 
BRANCH   2   3
ATOM      3  C   UNL     1       4.144   4.173  17.057  0.00  0.00    +0.000 C 
BRANCH   3   4
ATOM      4  C   UNL     1       2.935   3.251  17.193  0.00  0.00    +0.000 C 
BRANCH   4   5
ATOM      5  C   UNL     1       3.243   2.010  18.034  0.00  0.00    +0.000 C 
BRANCH   5   6
ATOM      6  C   UNL     1       2.117   1.659  19.010  0.00  0.00    +0.000 C 
BRANCH   6   7
ATOM      7  C   UNL     1       0.855   2.469  18.729  0.00  0.00    +0.000 C 
BRANCH   7   8
ATOM      8  C   UNL     1       0.587   3.462  19.860  0.00  0.00    +0.000 C 
BRANCH   8  10
ATOM      9  C   UNL     1       2.421   4.328  21.353  0.00  0.00    +0.000 C 
ATOM     10  C   UNL     1       1.478   3.172  21.065  0.00  0.00    +0.000 C 
ENDBRANCH   8  10
ENDBRANCH   7   8
ENDBRANCH   6   7
ENDBRANCH   5   6
ENDBRANCH   4   5
ENDBRANCH   3   4
ENDBRANCH   2   3
ENDBRANCH   1   2
BRANCH   1  11
ATOM     11  C   UNL     1       2.501   7.196  18.805  0.00  0.00    +0.000 C 
BRANCH  11  12
ATOM     12  C   UNL     1       2.550   8.461  17.942  0.00  0.00    +0.000 C 
BRANCH  12  13
ATOM     13  C   UNL     1       1.222   9.227  17.830  0.00  0.00    +0.000 C 
BRANCH  13  14
ATOM     14  C   UNL     1       1.206  10.502  18.679  0.00  0.00    +0.000 C 
BRANCH  14  15
ATOM     15  N   UNL     1      -0.120  10.739  19.456  0.00  0.00    +0.000 N 
ATOM     16  C   UNL     1      -0.150  12.146  20.034  0.00  0.00    +0.000 C 
ATOM     17  C   UNL     1      -1.310  10.527  18.521  0.00  0.00    +0.000 C 
BRANCH  15  18
ATOM     18  C   UNL     1      -0.139   9.675  20.591  0.00  0.00    +0.000 C 
BRANCH  18  19
ATOM     19  C   UNL     1       0.362  10.187  21.940  0.00  0.00    +0.000 C 
ATOM     20  C   UNL     1      -0.525   9.688  23.074  0.00  0.00    +0.000 C 
ENDBRANCH  18  19
ENDBRANCH  15  18
ENDBRANCH  14  15
ENDBRANCH  13  14
ENDBRANCH  12  13
ENDBRANCH  11  12
ENDBRANCH   1  11
TORSDOF 15
ENDMDL
MODEL 4
REMARK VINA RESULT:      -5.6      2.203      7.316
REMARK  Name = 
REMARK  19 active torsions:
REMARK  status: ('A' for Active; 'I' for Inactive)
REMARK    1  A    between atoms: C_1  and  C_2
REMARK    2  A    between atoms: C_2  and  C_3
REMARK    3  A    between atoms: C_3  and  C_4
REMARK    4  A    between atoms: C_4  and  C_5
REMARK    5  A    between atoms: C_5  and  C_6
REMARK    6  A    between atoms: C_6  and  C_7
REMARK    7  A    between atoms: C_7  and  C_8
REMARK    8  A    between atoms: C_8  and  C_9
REMARK    9  A    between atoms: C_9  and  C_10
REMARK   10  A    between atoms: C_10  and  C_11
REMARK   11  A    between atoms: C_11  and  C_12
REMARK   12  A    between atoms: C_12  and  C_13
REMARK   13  A    between atoms: C_13  and  C_14
REMARK   14  A    between atoms: C_14  and  N_15
REMARK   15  A    between atoms: N_15  and  C_16
REMARK   16  A    between atoms: N_15  and  C_17
REMARK   17  A    between atoms: N_15  and  C_18
REMARK   18  A    between atoms: C_18  and  C_19
REMARK   19  A    between atoms: C_19  and  C_20
REMARK                            x       y       z     vdW  Elec       q    Type
REMARK                         _______ _______ _______ _____ _____    ______ ____
ROOT
ATOM      1  C   UNL     1       1.407   2.422  18.551  0.00  0.00    +0.000 C 
ENDROOT
BRANCH   1   2
ATOM      2  C   UNL     1       0.762   2.985  19.814  0.00  0.00    +0.000 C 
BRANCH   2   3
ATOM      3  C   UNL     1       1.765   2.912  20.963  0.00  0.00    +0.000 C 
BRANCH   3   4
ATOM      4  C   UNL     1       2.328   4.282  21.327  0.00  0.00    +0.000 C 
BRANCH   4   5
ATOM      5  C   UNL     1       2.097   5.317  20.223  0.00  0.00    +0.000 C 
BRANCH   5   6
ATOM      6  C   UNL     1       1.319   6.542  20.711  0.00  0.00    +0.000 C 
BRANCH   6   7
ATOM      7  C   UNL     1       1.878   7.835  20.126  0.00  0.00    +0.000 C 
BRANCH   7   8
ATOM      8  C   UNL     1       2.597   7.564  18.804  0.00  0.00    +0.000 C 
BRANCH   8  10
ATOM      9  C   UNL     1       1.170   9.567  18.267  0.00  0.00    +0.000 C 
ATOM     10  C   UNL     1       2.099   8.502  17.708  0.00  0.00    +0.000 C 
ENDBRANCH   8  10
ENDBRANCH   7   8
ENDBRANCH   6   7
ENDBRANCH   5   6
ENDBRANCH   4   5
ENDBRANCH   3   4
ENDBRANCH   2   3
ENDBRANCH   1   2
BRANCH   1  11
ATOM     11  C   UNL     1       2.659   1.607  18.861  0.00  0.00    +0.000 C 
BRANCH  11  12
ATOM     12  C   UNL     1       3.877   2.075  18.058  0.00  0.00    +0.000 C 
BRANCH  12  13
ATOM     13  C   UNL     1       3.735   3.457  17.402  0.00  0.00    +0.000 C 
BRANCH  13  14
ATOM     14  C   UNL     1       4.767   4.463  17.920  0.00  0.00    +0.000 C 
BRANCH  14  15
ATOM     15  N   UNL     1       5.818   4.908  16.864  0.00  0.00    +0.000 N 
ATOM     16  C   UNL     1       5.487   6.297  16.340  0.00  0.00    +0.000 C 
ATOM     17  C   UNL     1       7.213   4.898  17.489  0.00  0.00    +0.000 C 
BRANCH  15  18
ATOM     18  C   UNL     1       5.739   3.853  15.722  0.00  0.00    +0.000 C 
BRANCH  18  19
ATOM     19  C   UNL     1       5.465   4.445  14.340  0.00  0.00    +0.000 C 
ATOM     20  C   UNL     1       6.242   3.695  13.265  0.00  0.00    +0.000 C 
ENDBRANCH  18  19
ENDBRANCH  15  18
ENDBRANCH  14  15
ENDBRANCH  13  14
ENDBRANCH  12  13
ENDBRANCH  11  12
ENDBRANCH   1  11
TORSDOF 15
ENDMDL
MODEL 5
REMARK VINA RESULT:      -5.6      3.864      7.118
REMARK  Name = 
REMARK  19 active torsions:
REMARK  status: ('A' for Active; 'I' for Inactive)
REMARK    1  A    between atoms: C_1  and  C_2
REMARK    2  A    between atoms: C_2  and  C_3
REMARK    3  A    between atoms: C_3  and  C_4
REMARK    4  A    between atoms: C_4  and  C_5
REMARK    5  A    between atoms: C_5  and  C_6
REMARK    6  A    between atoms: C_6  and  C_7
REMARK    7  A    between atoms: C_7  and  C_8
REMARK    8  A    between atoms: C_8  and  C_9
REMARK    9  A    between atoms: C_9  and  C_10
REMARK   10  A    between atoms: C_10  and  C_11
REMARK   11  A    between atoms: C_11  and  C_12
REMARK   12  A    between atoms: C_12  and  C_13
REMARK   13  A    between atoms: C_13  and  C_14
REMARK   14  A    between atoms: C_14  and  N_15
REMARK   15  A    between atoms: N_15  and  C_16
REMARK   16  A    between atoms: N_15  and  C_17
REMARK   17  A    between atoms: N_15  and  C_18
REMARK   18  A    between atoms: C_18  and  C_19
REMARK   19  A    between atoms: C_19  and  C_20
REMARK                            x       y       z     vdW  Elec       q    Type
REMARK                         _______ _______ _______ _____ _____    ______ ____
ROOT
ATOM      1  C   UNL     1       3.691   6.224  18.719  0.00  0.00    +0.000 C 
ENDROOT
BRANCH   1   2
ATOM      2  C   UNL     1       4.588   6.452  17.506  0.00  0.00    +0.000 C 
BRANCH   2   3
ATOM      3  C   UNL     1       4.645   5.172  16.678  0.00  0.00    +0.000 C 
BRANCH   3   4
ATOM      4  C   UNL     1       4.367   3.928  17.516  0.00  0.00    +0.000 C 
BRANCH   4   5
ATOM      5  C   UNL     1       3.021   3.284  17.171  0.00  0.00    +0.000 C 
BRANCH   5   6
ATOM      6  C   UNL     1       2.780   1.973  17.923  0.00  0.00    +0.000 C 
BRANCH   6   7
ATOM      7  C   UNL     1       1.750   2.143  19.035  0.00  0.00    +0.000 C 
BRANCH   7   8
ATOM      8  C   UNL     1       1.135   3.542  18.995  0.00  0.00    +0.000 C 
BRANCH   8  10
ATOM      9  C   UNL     1       2.150   3.846  21.279  0.00  0.00    +0.000 C 
ATOM     10  C   UNL     1       0.931   4.090  20.405  0.00  0.00    +0.000 C 
ENDBRANCH   8  10
ENDBRANCH   7   8
ENDBRANCH   6   7
ENDBRANCH   5   6
ENDBRANCH   4   5
ENDBRANCH   3   4
ENDBRANCH   2   3
ENDBRANCH   1   2
BRANCH   1  11
ATOM     11  C   UNL     1       2.469   7.137  18.707  0.00  0.00    +0.000 C 
BRANCH  11  12
ATOM     12  C   UNL     1       2.570   8.239  17.648  0.00  0.00    +0.000 C 
BRANCH  12  13
ATOM     13  C   UNL     1       1.961   9.591  18.051  0.00  0.00    +0.000 C 
BRANCH  13  14
ATOM     14  C   UNL     1       0.432   9.602  17.946  0.00  0.00    +0.000 C 
BRANCH  14  15
ATOM     15  N   UNL     1      -0.269  10.618  18.891  0.00  0.00    +0.000 N 
ATOM     16  C   UNL     1      -0.336  10.064  20.306  0.00  0.00    +0.000 C 
ATOM     17  C   UNL     1       0.492  11.944  18.879  0.00  0.00    +0.000 C 
BRANCH  15  18
ATOM     18  C   UNL     1      -1.698  10.819  18.308  0.00  0.00    +0.000 C 
BRANCH  18  19
ATOM     19  C   UNL     1      -1.982  10.003  17.048  0.00  0.00    +0.000 C 
ATOM     20  C   UNL     1      -2.743  10.835  16.023  0.00  0.00    +0.000 C 
ENDBRANCH  18  19
ENDBRANCH  15  18
ENDBRANCH  14  15
ENDBRANCH  13  14
ENDBRANCH  12  13
ENDBRANCH  11  12
ENDBRANCH   1  11
TORSDOF 15
ENDMDL
MODEL 6
REMARK VINA RESULT:      -5.5      2.093      7.354
REMARK  Name = 
REMARK  19 active torsions:
REMARK  status: ('A' for Active; 'I' for Inactive)
REMARK    1  A    between atoms: C_1  and  C_2
REMARK    2  A    between atoms: C_2  and  C_3
REMARK    3  A    between atoms: C_3  and  C_4
REMARK    4  A    between atoms: C_4  and  C_5
REMARK    5  A    between atoms: C_5  and  C_6
REMARK    6  A    between atoms: C_6  and  C_7
REMARK    7  A    between atoms: C_7  and  C_8
REMARK    8  A    between atoms: C_8  and  C_9
REMARK    9  A    between atoms: C_9  and  C_10
REMARK   10  A    between atoms: C_10  and  C_11
REMARK   11  A    between atoms: C_11  and  C_12
REMARK   12  A    between atoms: C_12  and  C_13
REMARK   13  A    between atoms: C_13  and  C_14
REMARK   14  A    between atoms: C_14  and  N_15
REMARK   15  A    between atoms: N_15  and  C_16
REMARK   16  A    between atoms: N_15  and  C_17
REMARK   17  A    between atoms: N_15  and  C_18
REMARK   18  A    between atoms: C_18  and  C_19
REMARK   19  A    between atoms: C_19  and  C_20
REMARK                            x       y       z     vdW  Elec       q    Type
REMARK                         _______ _______ _______ _____ _____    ______ ____
ROOT
ATOM      1  C   UNL     1       7.294   5.221  17.948  0.00  0.00    +0.000 C 
ENDROOT
BRANCH   1   2
ATOM      2  C   UNL     1       6.092   4.537  18.595  0.00  0.00    +0.000 C 
BRANCH   2   3
ATOM      3  C   UNL     1       4.869   5.439  18.457  0.00  0.00    +0.000 C 
BRANCH   3   4
ATOM      4  C   UNL     1       3.868   4.906  17.436  0.00  0.00    +0.000 C 
BRANCH   4   5
ATOM      5  C   UNL     1       4.084   3.420  17.134  0.00  0.00    +0.000 C 
BRANCH   5   6
ATOM      6  C   UNL     1       2.985   2.530  17.720  0.00  0.00    +0.000 C 
BRANCH   6   7
ATOM      7  C   UNL     1       1.829   3.354  18.279  0.00  0.00    +0.000 C 
BRANCH   7   8
ATOM      8  C   UNL     1       1.122   2.600  19.405  0.00  0.00    +0.000 C 
BRANCH   8  10
ATOM      9  C   UNL     1       1.581   4.857  20.424  0.00  0.00    +0.000 C 
ATOM     10  C   UNL     1       1.003   3.470  20.654  0.00  0.00    +0.000 C 
ENDBRANCH   8  10
ENDBRANCH   7   8
ENDBRANCH   6   7
ENDBRANCH   5   6
ENDBRANCH   4   5
ENDBRANCH   3   4
ENDBRANCH   2   3
ENDBRANCH   1   2
BRANCH   1  11
ATOM     11  C   UNL     1       6.953   5.804  16.580  0.00  0.00    +0.000 C 
BRANCH  11  12
ATOM     12  C   UNL     1       7.175   4.801  15.443  0.00  0.00    +0.000 C 
BRANCH  12  13
ATOM     13  C   UNL     1       6.095   4.804  14.351  0.00  0.00    +0.000 C 
BRANCH  13  14
ATOM     14  C   UNL     1       5.887   3.420  13.726  0.00  0.00    +0.000 C 
BRANCH  14  15
ATOM     15  N   UNL     1       5.956   3.400  12.173  0.00  0.00    +0.000 N 
ATOM     16  C   UNL     1       7.187   4.151  11.689  0.00  0.00    +0.000 C 
ATOM     17  C   UNL     1       5.991   1.954  11.677  0.00  0.00    +0.000 C 
BRANCH  15  18
ATOM     18  C   UNL     1       4.655   4.099  11.684  0.00  0.00    +0.000 C 
BRANCH  18  19
ATOM     19  C   UNL     1       3.697   3.182  10.925  0.00  0.00    +0.000 C 
ATOM     20  C   UNL     1       3.016   3.931   9.786  0.00  0.00    +0.000 C 
ENDBRANCH  18  19
ENDBRANCH  15  18
ENDBRANCH  14  15
ENDBRANCH  13  14
ENDBRANCH  12  13
ENDBRANCH  11  12
ENDBRANCH   1  11
TORSDOF 15
ENDMDL
MODEL 7
REMARK VINA RESULT:      -5.5      3.709      6.622
REMARK  Name = 
REMARK  19 active torsions:
REMARK  status: ('A' for Active; 'I' for Inactive)
REMARK    1  A    between atoms: C_1  and  C_2
REMARK    2  A    between atoms: C_2  and  C_3
REMARK    3  A    between atoms: C_3  and  C_4
REMARK    4  A    between atoms: C_4  and  C_5
REMARK    5  A    between atoms: C_5  and  C_6
REMARK    6  A    between atoms: C_6  and  C_7
REMARK    7  A    between atoms: C_7  and  C_8
REMARK    8  A    between atoms: C_8  and  C_9
REMARK    9  A    between atoms: C_9  and  C_10
REMARK   10  A    between atoms: C_10  and  C_11
REMARK   11  A    between atoms: C_11  and  C_12
REMARK   12  A    between atoms: C_12  and  C_13
REMARK   13  A    between atoms: C_13  and  C_14
REMARK   14  A    between atoms: C_14  and  N_15
REMARK   15  A    between atoms: N_15  and  C_16
REMARK   16  A    between atoms: N_15  and  C_17
REMARK   17  A    between atoms: N_15  and  C_18
REMARK   18  A    between atoms: C_18  and  C_19
REMARK   19  A    between atoms: C_19  and  C_20
REMARK                            x       y       z     vdW  Elec       q    Type
REMARK                         _______ _______ _______ _____ _____    ______ ____
ROOT
ATOM      1  C   UNL     1       2.261   5.828  19.052  0.00  0.00    +0.000 C 
ENDROOT
BRANCH   1   2
ATOM      2  C   UNL     1       2.321   5.121  20.403  0.00  0.00    +0.000 C 
BRANCH   2   3
ATOM      3  C   UNL     1       1.095   4.224  20.554  0.00  0.00    +0.000 C 
BRANCH   3   4
ATOM      4  C   UNL     1       1.406   2.762  20.246  0.00  0.00    +0.000 C 
BRANCH   4   5
ATOM      5  C   UNL     1       1.174   2.419  18.772  0.00  0.00    +0.000 C 
BRANCH   5   6
ATOM      6  C   UNL     1       2.467   2.058  18.037  0.00  0.00    +0.000 C 
BRANCH   6   7
ATOM      7  C   UNL     1       2.908   3.171  17.091  0.00  0.00    +0.000 C 
BRANCH   7   8
ATOM      8  C   UNL     1       4.386   3.502  17.297  0.00  0.00    +0.000 C 
BRANCH   8  10
ATOM      9  C   UNL     1       4.890   5.871  16.609  0.00  0.00    +0.000 C 
ATOM     10  C   UNL     1       4.902   4.412  16.185  0.00  0.00    +0.000 C 
ENDBRANCH   8  10
ENDBRANCH   7   8
ENDBRANCH   6   7
ENDBRANCH   5   6
ENDBRANCH   4   5
ENDBRANCH   3   4
ENDBRANCH   2   3
ENDBRANCH   1   2
BRANCH   1  11
ATOM     11  C   UNL     1       2.434   7.337  19.187  0.00  0.00    +0.000 C 
BRANCH  11  12
ATOM     12  C   UNL     1       2.140   8.080  17.881  0.00  0.00    +0.000 C 
BRANCH  12  13
ATOM     13  C   UNL     1       1.917   9.594  18.026  0.00  0.00    +0.000 C 
BRANCH  13  14
ATOM     14  C   UNL     1       0.442   9.954  18.226  0.00  0.00    +0.000 C 
BRANCH  14  15
ATOM     15  N   UNL     1       0.176  10.947  19.392  0.00  0.00    +0.000 N 
ATOM     16  C   UNL     1       0.797  12.301  19.087  0.00  0.00    +0.000 C 
ATOM     17  C   UNL     1      -1.330  11.094  19.611  0.00  0.00    +0.000 C 
BRANCH  15  18
ATOM     18  C   UNL     1       0.836  10.307  20.649  0.00  0.00    +0.000 C 
BRANCH  18  19
ATOM     19  C   UNL     1      -0.018   9.239  21.331  0.00  0.00    +0.000 C 
ATOM     20  C   UNL     1       0.005   9.412  22.844  0.00  0.00    +0.000 C 
ENDBRANCH  18  19
ENDBRANCH  15  18
ENDBRANCH  14  15
ENDBRANCH  13  14
ENDBRANCH  12  13
ENDBRANCH  11  12
ENDBRANCH   1  11
TORSDOF 15
ENDMDL
MODEL 8
REMARK VINA RESULT:      -5.4      4.014      7.025
REMARK  Name = 
REMARK  19 active torsions:
REMARK  status: ('A' for Active; 'I' for Inactive)
REMARK    1  A    between atoms: C_1  and  C_2
REMARK    2  A    between atoms: C_2  and  C_3
REMARK    3  A    between atoms: C_3  and  C_4
REMARK    4  A    between atoms: C_4  and  C_5
REMARK    5  A    between atoms: C_5  and  C_6
REMARK    6  A    between atoms: C_6  and  C_7
REMARK    7  A    between atoms: C_7  and  C_8
REMARK    8  A    between atoms: C_8  and  C_9
REMARK    9  A    between atoms: C_9  and  C_10
REMARK   10  A    between atoms: C_10  and  C_11
REMARK   11  A    between atoms: C_11  and  C_12
REMARK   12  A    between atoms: C_12  and  C_13
REMARK   13  A    between atoms: C_13  and  C_14
REMARK   14  A    between atoms: C_14  and  N_15
REMARK   15  A    between atoms: N_15  and  C_16
REMARK   16  A    between atoms: N_15  and  C_17
REMARK   17  A    between atoms: N_15  and  C_18
REMARK   18  A    between atoms: C_18  and  C_19
REMARK   19  A    between atoms: C_19  and  C_20
REMARK                            x       y       z     vdW  Elec       q    Type
REMARK                         _______ _______ _______ _____ _____    ______ ____
ROOT
ATOM      1  C   UNL     1       4.127   6.381  18.066  0.00  0.00    +0.000 C 
ENDROOT
BRANCH   1   2
ATOM      2  C   UNL     1       4.832   5.429  19.028  0.00  0.00    +0.000 C 
BRANCH   2   3
ATOM      3  C   UNL     1       4.668   3.998  18.526  0.00  0.00    +0.000 C 
BRANCH   3   4
ATOM      4  C   UNL     1       4.045   3.941  17.134  0.00  0.00    +0.000 C 
BRANCH   4   5
ATOM      5  C   UNL     1       2.793   3.061  17.094  0.00  0.00    +0.000 C 
BRANCH   5   6
ATOM      6  C   UNL     1       1.616   3.669  17.860  0.00  0.00    +0.000 C 
BRANCH   6   7
ATOM      7  C   UNL     1       0.909   2.631  18.725  0.00  0.00    +0.000 C 
BRANCH   7   8
ATOM      8  C   UNL     1       1.730   2.320  19.977  0.00  0.00    +0.000 C 
BRANCH   8  10
ATOM      9  C   UNL     1       2.189   4.435  21.264  0.00  0.00    +0.000 C 
ATOM     10  C   UNL     1       1.303   3.205  21.144  0.00  0.00    +0.000 C 
ENDBRANCH   8  10
ENDBRANCH   7   8
ENDBRANCH   6   7
ENDBRANCH   5   6
ENDBRANCH   4   5
ENDBRANCH   3   4
ENDBRANCH   2   3
ENDBRANCH   1   2
BRANCH   1  11
ATOM     11  C   UNL     1       2.925   7.062  18.712  0.00  0.00    +0.000 C 
BRANCH  11  12
ATOM     12  C   UNL     1       2.142   7.932  17.723  0.00  0.00    +0.000 C 
BRANCH  12  13
ATOM     13  C   UNL     1       1.929   9.389  18.161  0.00  0.00    +0.000 C 
BRANCH  13  14
ATOM     14  C   UNL     1       0.457   9.811  18.104  0.00  0.00    +0.000 C 
BRANCH  14  15
ATOM     15  N   UNL     1       0.063  10.905  19.136  0.00  0.00    +0.000 N 
ATOM     16  C   UNL     1       1.271  11.757  19.493  0.00  0.00    +0.000 C 
ATOM     17  C   UNL     1      -1.049  11.781  18.559  0.00  0.00    +0.000 C 
BRANCH  15  18
ATOM     18  C   UNL     1      -0.460  10.137  20.385  0.00  0.00    +0.000 C 
BRANCH  18  19
ATOM     19  C   UNL     1       0.215  10.537  21.695  0.00  0.00    +0.000 C 
ATOM     20  C   UNL     1       0.117   9.415  22.721  0.00  0.00    +0.000 C 
ENDBRANCH  18  19
ENDBRANCH  15  18
ENDBRANCH  14  15
ENDBRANCH  13  14
ENDBRANCH  12  13
ENDBRANCH  11  12
ENDBRANCH   1  11
TORSDOF 15
ENDMDL
MODEL 9
REMARK VINA RESULT:      -5.3      4.293      7.155
REMARK  Name = 
REMARK  19 active torsions:
REMARK  status: ('A' for Active; 'I' for Inactive)
REMARK    1  A    between atoms: C_1  and  C_2
REMARK    2  A    between atoms: C_2  and  C_3
REMARK    3  A    between atoms: C_3  and  C_4
REMARK    4  A    between atoms: C_4  and  C_5
REMARK    5  A    between atoms: C_5  and  C_6
REMARK    6  A    between atoms: C_6  and  C_7
REMARK    7  A    between atoms: C_7  and  C_8
REMARK    8  A    between atoms: C_8  and  C_9
REMARK    9  A    between atoms: C_9  and  C_10
REMARK   10  A    between atoms: C_10  and  C_11
REMARK   11  A    between atoms: C_11  and  C_12
REMARK   12  A    between atoms: C_12  and  C_13
REMARK   13  A    between atoms: C_13  and  C_14
REMARK   14  A    between atoms: C_14  and  N_15
REMARK   15  A    between atoms: N_15  and  C_16
REMARK   16  A    between atoms: N_15  and  C_17
REMARK   17  A    between atoms: N_15  and  C_18
REMARK   18  A    between atoms: C_18  and  C_19
REMARK   19  A    between atoms: C_19  and  C_20
REMARK                            x       y       z     vdW  Elec       q    Type
REMARK                         _______ _______ _______ _____ _____    ______ ____
ROOT
ATOM      1  C   UNL     1       4.094   6.669  17.728  0.00  0.00    +0.000 C 
ENDROOT
BRANCH   1   2
ATOM      2  C   UNL     1       3.426   5.309  17.552  0.00  0.00    +0.000 C 
BRANCH   2   3
ATOM      3  C   UNL     1       4.460   4.210  17.780  0.00  0.00    +0.000 C 
BRANCH   3   4
ATOM      4  C   UNL     1       3.830   2.821  17.818  0.00  0.00    +0.000 C 
BRANCH   4   5
ATOM      5  C   UNL     1       2.349   2.844  17.428  0.00  0.00    +0.000 C 
BRANCH   5   6
ATOM      6  C   UNL     1       1.437   2.290  18.525  0.00  0.00    +0.000 C 
BRANCH   6   7
ATOM      7  C   UNL     1       2.145   2.243  19.876  0.00  0.00    +0.000 C 
BRANCH   7   8
ATOM      8  C   UNL     1       1.340   3.000  20.934  0.00  0.00    +0.000 C 
BRANCH   8  10
ATOM      9  C   UNL     1       1.812   5.464  20.719  0.00  0.00    +0.000 C 
ATOM     10  C   UNL     1       0.846   4.338  20.391  0.00  0.00    +0.000 C 
ENDBRANCH   8  10
ENDBRANCH   7   8
ENDBRANCH   6   7
ENDBRANCH   5   6
ENDBRANCH   4   5
ENDBRANCH   3   4
ENDBRANCH   2   3
ENDBRANCH   1   2
BRANCH   1  11
ATOM     11  C   UNL     1       3.189   7.814  17.283  0.00  0.00    +0.000 C 
BRANCH  11  12
ATOM     12  C   UNL     1       2.249   8.285  18.397  0.00  0.00    +0.000 C 
BRANCH  12  13
ATOM     13  C   UNL     1       1.523   9.611  18.122  0.00  0.00    +0.000 C 
BRANCH  13  14
ATOM     14  C   UNL     1       0.397   9.885  19.124  0.00  0.00    +0.000 C 
BRANCH  14  15
ATOM     15  N   UNL     1       0.530  11.232  19.887  0.00  0.00    +0.000 N 
ATOM     16  C   UNL     1       1.598  12.103  19.242  0.00  0.00    +0.000 C 
ATOM     17  C   UNL     1      -0.814  11.960  19.887  0.00  0.00    +0.000 C 
BRANCH  15  18
ATOM     18  C   UNL     1       0.930  10.855  21.343  0.00  0.00    +0.000 C 
BRANCH  18  19
ATOM     19  C   UNL     1       0.388   9.507  21.814  0.00  0.00    +0.000 C 
ATOM     20  C   UNL     1      -0.551   9.683  23.000  0.00  0.00    +0.000 C 
ENDBRANCH  18  19
ENDBRANCH  15  18
ENDBRANCH  14  15
ENDBRANCH  13  14
ENDBRANCH  12  13
ENDBRANCH  11  12
ENDBRANCH   1  11
TORSDOF 15
ENDMDL
