MODEL 1
REMARK VINA RESULT:      -5.5      0.000      0.000
REMARK  Name = 
REMARK  11 active torsions:
REMARK  status: ('A' for Active; 'I' for Inactive)
REMARK    1  A    between atoms: C_1  and  C_2
REMARK    2  A    between atoms: C_2  and  O_4
REMARK    3  A    between atoms: O_4  and  C_5
REMARK    4  A    between atoms: C_5  and  C_6
REMARK    5  A    between atoms: C_6  and  C_7
REMARK    6  A    between atoms: C_6  and  O_12
REMARK    7  A    between atoms: C_7  and  O_8
REMARK    8  A    between atoms: O_8  and  C_9
REMARK    9  A    between atoms: C_9  and  C_10
REMARK   10  A    between atoms: O_12  and  C_13
REMARK   11  A    between atoms: C_13  and  C_14
REMARK                            x       y       z     vdW  Elec       q    Type
REMARK                         _______ _______ _______ _____ _____    ______ ____
ROOT
ATOM      1  C   UNL     1       4.262   4.822  17.223  0.00  0.00    +0.000 C 
ENDROOT
BRANCH   1   2
ATOM      2  C   UNL     1       3.331   3.721  17.761  0.00  0.00    +0.000 C 
BRANCH   2   3
ATOM      3  O   UNL     1       2.426   4.258  18.747  0.00  0.00    +0.000 OA
BRANCH   3   5
ATOM      4  C   UNL     1       1.044   3.604  20.520  0.00  0.00    +0.000 C 
ATOM      5  C   UNL     1       1.376   3.454  19.069  0.00  0.00    +0.000 C 
ATOM      6  O   UNL     1       0.797   2.702  18.298  0.00  0.00    +0.000 OA
ENDBRANCH   3   5
ENDBRANCH   2   3
ENDBRANCH   1   2
BRANCH   1   7
ATOM      7  C   UNL     1       5.262   5.317  18.279  0.00  0.00    +0.000 C 
BRANCH   7   8
ATOM      8  O   UNL     1       6.321   4.371  18.514  0.00  0.00    +0.000 OA
BRANCH   8   9
ATOM      9  C   UNL     1       7.577   4.796  18.211  0.00  0.00    +0.000 C 
ATOM     10  C   UNL     1       7.736   6.257  18.509  0.00  0.00    +0.000 C 
ATOM     11  O   UNL     1       8.469   4.089  17.769  0.00  0.00    +0.000 OA
ENDBRANCH   8   9
ENDBRANCH   7   8
ENDBRANCH   1   7
BRANCH   1  12
ATOM     12  O   UNL     1       4.920   4.434  15.981  0.00  0.00    +0.000 OA
BRANCH  12  13
ATOM     13  C   UNL     1       5.578   5.379  15.263  0.00  0.00    +0.000 C 
ATOM     14  C   UNL     1       6.760   4.800  14.542  0.00  0.00    +0.000 C 
ATOM     15  O   UNL     1       5.247   6.555  15.169  0.00  0.00    +0.000 OA
ENDBRANCH  12  13
ENDBRANCH   1  12
TORSDOF 8
ENDMDL
MODEL 2
REMARK VINA RESULT:      -5.4      1.117      1.291
REMARK  Name = 
REMARK  11 active torsions:
REMARK  status: ('A' for Active; 'I' for Inactive)
REMARK    1  A    between atoms: C_1  and  C_2
REMARK    2  A    between atoms: C_2  and  O_4
REMARK    3  A    between atoms: O_4  and  C_5
REMARK    4  A    between atoms: C_5  and  C_6
REMARK    5  A    between atoms: C_6  and  C_7
REMARK    6  A    between atoms: C_6  and  O_12
REMARK    7  A    between atoms: C_7  and  O_8
REMARK    8  A    between atoms: O_8  and  C_9
REMARK    9  A    between atoms: C_9  and  C_10
REMARK   10  A    between atoms: O_12  and  C_13
REMARK   11  A    between atoms: C_13  and  C_14
REMARK                            x       y       z     vdW  Elec       q    Type
REMARK                         _______ _______ _______ _____ _____    ______ ____
ROOT
ATOM      1  C   UNL     1       4.267   4.765  17.290  0.00  0.00    +0.000 C 
ENDROOT
BRANCH   1   2
ATOM      2  C   UNL     1       3.159   3.732  17.563  0.00  0.00    +0.000 C 
BRANCH   2   3
ATOM      3  O   UNL     1       1.948   4.386  17.991  0.00  0.00    +0.000 OA
BRANCH   3   5
ATOM      4  C   UNL     1       0.932   2.433  18.791  0.00  0.00    +0.000 C 
ATOM      5  C   UNL     1       1.350   3.840  19.085  0.00  0.00    +0.000 C 
ATOM      6  O   UNL     1       1.159   4.414  20.148  0.00  0.00    +0.000 OA
ENDBRANCH   3   5
ENDBRANCH   2   3
ENDBRANCH   1   2
BRANCH   1   7
ATOM      7  C   UNL     1       4.897   5.308  18.581  0.00  0.00    +0.000 C 
BRANCH   7   8
ATOM      8  O   UNL     1       6.131   4.643  18.908  0.00  0.00    +0.000 OA
BRANCH   8   9
ATOM      9  C   UNL     1       7.163   5.451  19.273  0.00  0.00    +0.000 C 
ATOM     10  C   UNL     1       7.503   6.416  18.177  0.00  0.00    +0.000 C 
ATOM     11  O   UNL     1       7.735   5.415  20.351  0.00  0.00    +0.000 OA
ENDBRANCH   8   9
ENDBRANCH   7   8
ENDBRANCH   1   7
BRANCH   1  12
ATOM     12  O   UNL     1       5.269   4.270  16.354  0.00  0.00    +0.000 OA
BRANCH  12  13
ATOM     13  C   UNL     1       5.577   5.018  15.265  0.00  0.00    +0.000 C 
ATOM     14  C   UNL     1       6.011   4.161  14.112  0.00  0.00    +0.000 C 
ATOM     15  O   UNL     1       5.486   6.238  15.195  0.00  0.00    +0.000 OA
ENDBRANCH  12  13
ENDBRANCH   1  12
TORSDOF 8
ENDMDL
MODEL 3
REMARK VINA RESULT:      -5.4      1.567      3.498
REMARK  Name = 
REMARK  11 active torsions:
REMARK  status: ('A' for Active; 'I' for Inactive)
REMARK    1  A    between atoms: C_1  and  C_2
REMARK    2  A    between atoms: C_2  and  O_4
REMARK    3  A    between atoms: O_4  and  C_5
REMARK    4  A    between atoms: C_5  and  C_6
REMARK    5  A    between atoms: C_6  and  C_7
REMARK    6  A    between atoms: C_6  and  O_12
REMARK    7  A    between atoms: C_7  and  O_8
REMARK    8  A    between atoms: O_8  and  C_9
REMARK    9  A    between atoms: C_9  and  C_10
REMARK   10  A    between atoms: O_12  and  C_13
REMARK   11  A    between atoms: C_13  and  C_14
REMARK                            x       y       z     vdW  Elec       q    Type
REMARK                         _______ _______ _______ _____ _____    ______ ____
ROOT
ATOM      1  C   UNL     1       5.300   4.197  17.145  0.00  0.00    +0.000 C 
ENDROOT
BRANCH   1   2
ATOM      2  C   UNL     1       3.879   3.824  17.604  0.00  0.00    +0.000 C 
BRANCH   2   3
ATOM      3  O   UNL     1       3.762   3.933  19.037  0.00  0.00    +0.000 OA
BRANCH   3   5
ATOM      4  C   UNL     1       2.318   2.238  19.761  0.00  0.00    +0.000 C 
ATOM      5  C   UNL     1       3.723   2.750  19.708  0.00  0.00    +0.000 C 
ATOM      6  O   UNL     1       4.686   2.191  20.213  0.00  0.00    +0.000 OA
ENDBRANCH   3   5
ENDBRANCH   2   3
ENDBRANCH   1   2
BRANCH   1   7
ATOM      7  C   UNL     1       5.299   5.164  15.951  0.00  0.00    +0.000 C 
BRANCH   7   8
ATOM      8  O   UNL     1       5.384   4.474  14.691  0.00  0.00    +0.000 OA
BRANCH   8   9
ATOM      9  C   UNL     1       6.569   4.580  14.033  0.00  0.00    +0.000 C 
ATOM     10  C   UNL     1       6.553   3.782  12.763  0.00  0.00    +0.000 C 
ATOM     11  O   UNL     1       7.523   5.245  14.408  0.00  0.00    +0.000 OA
ENDBRANCH   8   9
ENDBRANCH   7   8
ENDBRANCH   1   7
BRANCH   1  12
ATOM     12  O   UNL     1       6.129   4.678  18.243  0.00  0.00    +0.000 OA
BRANCH  12  13
ATOM     13  C   UNL     1       7.432   4.969  18.004  0.00  0.00    +0.000 C 
ATOM     14  C   UNL     1       7.800   6.327  18.526  0.00  0.00    +0.000 C 
ATOM     15  O   UNL     1       8.237   4.220  17.464  0.00  0.00    +0.000 OA
ENDBRANCH  12  13
ENDBRANCH   1  12
TORSDOF 8
ENDMDL
MODEL 4
REMARK VINA RESULT:      -5.4      1.210      5.195
REMARK  Name = 
REMARK  11 active torsions:
REMARK  status: ('A' for Active; 'I' for Inactive)
REMARK    1  A    between atoms: C_1  and  C_2
REMARK    2  A    between atoms: C_2  and  O_4
REMARK    3  A    between atoms: O_4  and  C_5
REMARK    4  A    between atoms: C_5  and  C_6
REMARK    5  A    between atoms: C_6  and  C_7
REMARK    6  A    between atoms: C_6  and  O_12
REMARK    7  A    between atoms: C_7  and  O_8
REMARK    8  A    between atoms: O_8  and  C_9
REMARK    9  A    between atoms: C_9  and  C_10
REMARK   10  A    between atoms: O_12  and  C_13
REMARK   11  A    between atoms: C_13  and  C_14
REMARK                            x       y       z     vdW  Elec       q    Type
REMARK                         _______ _______ _______ _____ _____    ______ ____
ROOT
ATOM      1  C   UNL     1       4.901   4.849  18.739  0.00  0.00    +0.000 C 
ENDROOT
BRANCH   1   2
ATOM      2  C   UNL     1       4.241   5.172  17.387  0.00  0.00    +0.000 C 
BRANCH   2   3
ATOM      3  O   UNL     1       4.935   4.508  16.311  0.00  0.00    +0.000 OA
BRANCH   3   5
ATOM      4  C   UNL     1       6.320   4.543  14.424  0.00  0.00    +0.000 C 
ATOM      5  C   UNL     1       5.477   5.333  15.375  0.00  0.00    +0.000 C 
ATOM      6  O   UNL     1       5.321   6.544  15.323  0.00  0.00    +0.000 OA
ENDBRANCH   3   5
ENDBRANCH   2   3
ENDBRANCH   1   2
BRANCH   1   7
ATOM      7  C   UNL     1       4.170   3.735  19.502  0.00  0.00    +0.000 C 
BRANCH   7   8
ATOM      8  O   UNL     1       2.741   3.810  19.341  0.00  0.00    +0.000 OA
BRANCH   8   9
ATOM      9  C   UNL     1       2.039   4.209  20.435  0.00  0.00    +0.000 C 
ATOM     10  C   UNL     1       1.431   3.034  21.141  0.00  0.00    +0.000 C 
ATOM     11  O   UNL     1       1.925   5.365  20.812  0.00  0.00    +0.000 OA
ENDBRANCH   8   9
ENDBRANCH   7   8
ENDBRANCH   1   7
BRANCH   1  12
ATOM     12  O   UNL     1       6.328   4.583  18.610  0.00  0.00    +0.000 OA
BRANCH  12  13
ATOM     13  C   UNL     1       7.212   5.456  19.156  0.00  0.00    +0.000 C 
ATOM     14  C   UNL     1       7.603   6.528  18.182  0.00  0.00    +0.000 C 
ATOM     15  O   UNL     1       7.625   5.416  20.309  0.00  0.00    +0.000 OA
ENDBRANCH  12  13
ENDBRANCH   1  12
TORSDOF 8
ENDMDL
MODEL 5
REMARK VINA RESULT:      -5.4      1.873      5.436
REMARK  Name = 
REMARK  11 active torsions:
REMARK  status: ('A' for Active; 'I' for Inactive)
REMARK    1  A    between atoms: C_1  and  C_2
REMARK    2  A    between atoms: C_2  and  O_4
REMARK    3  A    between atoms: O_4  and  C_5
REMARK    4  A    between atoms: C_5  and  C_6
REMARK    5  A    between atoms: C_6  and  C_7
REMARK    6  A    between atoms: C_6  and  O_12
REMARK    7  A    between atoms: C_7  and  O_8
REMARK    8  A    between atoms: O_8  and  C_9
REMARK    9  A    between atoms: C_9  and  C_10
REMARK   10  A    between atoms: O_12  and  C_13
REMARK   11  A    between atoms: C_13  and  C_14
REMARK                            x       y       z     vdW  Elec       q    Type
REMARK                         _______ _______ _______ _____ _____    ______ ____
ROOT
ATOM      1  C   UNL     1       4.285   4.344  19.486  0.00  0.00    +0.000 C 
ENDROOT
BRANCH   1   2
ATOM      2  C   UNL     1       5.488   5.254  19.181  0.00  0.00    +0.000 C 
BRANCH   2   3
ATOM      3  O   UNL     1       6.684   4.471  18.994  0.00  0.00    +0.000 OA
BRANCH   3   5
ATOM      4  C   UNL     1       7.652   6.424  18.139  0.00  0.00    +0.000 C 
ATOM      5  C   UNL     1       7.539   4.935  18.043  0.00  0.00    +0.000 C 
ATOM      6  O   UNL     1       8.117   4.246  17.214  0.00  0.00    +0.000 OA
ENDBRANCH   3   5
ENDBRANCH   2   3
ENDBRANCH   1   2
BRANCH   1   7
ATOM      7  C   UNL     1       2.984   5.134  19.692  0.00  0.00    +0.000 C 
BRANCH   7   8
ATOM      8  O   UNL     1       2.280   4.726  20.879  0.00  0.00    +0.000 OA
BRANCH   8   9
ATOM      9  C   UNL     1       1.420   3.682  20.731  0.00  0.00    +0.000 C 
ATOM     10  C   UNL     1       1.695   2.612  21.745  0.00  0.00    +0.000 C 
ATOM     11  O   UNL     1       0.530   3.619  19.898  0.00  0.00    +0.000 OA
ENDBRANCH   8   9
ENDBRANCH   7   8
ENDBRANCH   1   7
BRANCH   1  12
ATOM     12  O   UNL     1       4.132   3.279  18.503  0.00  0.00    +0.000 OA
BRANCH  12  13
ATOM     13  C   UNL     1       3.493   3.549  17.336  0.00  0.00    +0.000 C 
ATOM     14  C   UNL     1       4.427   4.131  16.317  0.00  0.00    +0.000 C 
ATOM     15  O   UNL     1       2.311   3.319  17.108  0.00  0.00    +0.000 OA
ENDBRANCH  12  13
ENDBRANCH   1  12
TORSDOF 8
ENDMDL
MODEL 6
REMARK VINA RESULT:      -5.4      1.255      5.231
REMARK  Name = 
REMARK  11 active torsions:
REMARK  status: ('A' for Active; 'I' for Inactive)
REMARK    1  A    between atoms: C_1  and  C_2
REMARK    2  A    between atoms: C_2  and  O_4
REMARK    3  A    between atoms: O_4  and  C_5
REMARK    4  A    between atoms: C_5  and  C_6
REMARK    5  A    between atoms: C_6  and  C_7
REMARK    6  A    between atoms: C_6  and  O_12
REMARK    7  A    between atoms: C_7  and  O_8
REMARK    8  A    between atoms: O_8  and  C_9
REMARK    9  A    between atoms: C_9  and  C_10
REMARK   10  A    between atoms: O_12  and  C_13
REMARK   11  A    between atoms: C_13  and  C_14
REMARK                            x       y       z     vdW  Elec       q    Type
REMARK                         _______ _______ _______ _____ _____    ______ ____
ROOT
ATOM      1  C   UNL     1       4.964   5.286  18.296  0.00  0.00    +0.000 C 
ENDROOT
BRANCH   1   2
ATOM      2  C   UNL     1       5.176   5.853  16.881  0.00  0.00    +0.000 C 
BRANCH   2   3
ATOM      3  O   UNL     1       5.245   4.788  15.912  0.00  0.00    +0.000 OA
BRANCH   3   5
ATOM      4  C   UNL     1       6.084   3.914  13.907  0.00  0.00    +0.000 C 
ATOM      5  C   UNL     1       6.299   4.852  15.053  0.00  0.00    +0.000 C 
ATOM      6  O   UNL     1       7.289   5.555  15.200  0.00  0.00    +0.000 OA
ENDBRANCH   3   5
ENDBRANCH   2   3
ENDBRANCH   1   2
BRANCH   1   7
ATOM      7  C   UNL     1       4.525   3.814  18.282  0.00  0.00    +0.000 C 
BRANCH   7   8
ATOM      8  O   UNL     1       3.220   3.628  18.860  0.00  0.00    +0.000 OA
BRANCH   8   9
ATOM      9  C   UNL     1       2.278   3.087  18.042  0.00  0.00    +0.000 C 
ATOM     10  C   UNL     1       1.256   2.324  18.830  0.00  0.00    +0.000 C 
ATOM     11  O   UNL     1       2.248   3.211  16.827  0.00  0.00    +0.000 OA
ENDBRANCH   8   9
ENDBRANCH   7   8
ENDBRANCH   1   7
BRANCH   1  12
ATOM     12  O   UNL     1       6.117   5.507  19.160  0.00  0.00    +0.000 OA
BRANCH  12  13
ATOM     13  C   UNL     1       7.362   5.443  18.624  0.00  0.00    +0.000 C 
ATOM     14  C   UNL     1       8.011   6.796  18.572  0.00  0.00    +0.000 C 
ATOM     15  O   UNL     1       7.922   4.418  18.257  0.00  0.00    +0.000 OA
ENDBRANCH  12  13
ENDBRANCH   1  12
TORSDOF 8
ENDMDL
MODEL 7
REMARK VINA RESULT:      -5.4      1.876      5.384
REMARK  Name = 
REMARK  11 active torsions:
REMARK  status: ('A' for Active; 'I' for Inactive)
REMARK    1  A    between atoms: C_1  and  C_2
REMARK    2  A    between atoms: C_2  and  O_4
REMARK    3  A    between atoms: O_4  and  C_5
REMARK    4  A    between atoms: C_5  and  C_6
REMARK    5  A    between atoms: C_6  and  C_7
REMARK    6  A    between atoms: C_6  and  O_12
REMARK    7  A    between atoms: C_7  and  O_8
REMARK    8  A    between atoms: O_8  and  C_9
REMARK    9  A    between atoms: C_9  and  C_10
REMARK   10  A    between atoms: O_12  and  C_13
REMARK   11  A    between atoms: C_13  and  C_14
REMARK                            x       y       z     vdW  Elec       q    Type
REMARK                         _______ _______ _______ _____ _____    ______ ____
ROOT
ATOM      1  C   UNL     1       4.531   4.017  18.698  0.00  0.00    +0.000 C 
ENDROOT
BRANCH   1   2
ATOM      2  C   UNL     1       5.585   5.010  19.218  0.00  0.00    +0.000 C 
BRANCH   2   3
ATOM      3  O   UNL     1       6.916   4.516  18.967  0.00  0.00    +0.000 OA
BRANCH   3   5
ATOM      4  C   UNL     1       7.608   6.550  18.035  0.00  0.00    +0.000 C 
ATOM      5  C   UNL     1       7.544   5.062  17.891  0.00  0.00    +0.000 C 
ATOM      6  O   UNL     1       7.977   4.437  16.932  0.00  0.00    +0.000 OA
ENDBRANCH   3   5
ENDBRANCH   2   3
ENDBRANCH   1   2
BRANCH   1   7
ATOM      7  C   UNL     1       3.903   3.181  19.823  0.00  0.00    +0.000 C 
BRANCH   7   8
ATOM      8  O   UNL     1       2.992   3.949  20.630  0.00  0.00    +0.000 OA
BRANCH   8   9
ATOM      9  C   UNL     1       1.887   3.290  21.071  0.00  0.00    +0.000 C 
ATOM     10  C   UNL     1       0.802   3.308  20.035  0.00  0.00    +0.000 C 
ATOM     11  O   UNL     1       1.784   2.739  22.156  0.00  0.00    +0.000 OA
ENDBRANCH   8   9
ENDBRANCH   7   8
ENDBRANCH   1   7
BRANCH   1  12
ATOM     12  O   UNL     1       3.525   4.663  17.864  0.00  0.00    +0.000 OA
BRANCH  12  13
ATOM     13  C   UNL     1       3.641   5.989  17.602  0.00  0.00    +0.000 C 
ATOM     14  C   UNL     1       2.715   6.804  18.457  0.00  0.00    +0.000 C 
ATOM     15  O   UNL     1       4.423   6.486  16.800  0.00  0.00    +0.000 OA
ENDBRANCH  12  13
ENDBRANCH   1  12
TORSDOF 8
ENDMDL
MODEL 8
REMARK VINA RESULT:      -5.4      1.025      3.163
REMARK  Name = 
REMARK  11 active torsions:
REMARK  status: ('A' for Active; 'I' for Inactive)
REMARK    1  A    between atoms: C_1  and  C_2
REMARK    2  A    between atoms: C_2  and  O_4
REMARK    3  A    between atoms: O_4  and  C_5
REMARK    4  A    between atoms: C_5  and  C_6
REMARK    5  A    between atoms: C_6  and  C_7
REMARK    6  A    between atoms: C_6  and  O_12
REMARK    7  A    between atoms: C_7  and  O_8
REMARK    8  A    between atoms: O_8  and  C_9
REMARK    9  A    between atoms: C_9  and  C_10
REMARK   10  A    between atoms: O_12  and  C_13
REMARK   11  A    between atoms: C_13  and  C_14
REMARK                            x       y       z     vdW  Elec       q    Type
REMARK                         _______ _______ _______ _____ _____    ______ ____
ROOT
ATOM      1  C   UNL     1       5.250   4.050  18.463  0.00  0.00    +0.000 C 
ENDROOT
BRANCH   1   2
ATOM      2  C   UNL     1       4.216   3.693  19.546  0.00  0.00    +0.000 C 
BRANCH   2   3
ATOM      3  O   UNL     1       2.888   4.062  19.122  0.00  0.00    +0.000 OA
BRANCH   3   5
ATOM      4  C   UNL     1       2.118   2.139  18.028  0.00  0.00    +0.000 C 
ATOM      5  C   UNL     1       1.960   3.069  19.191  0.00  0.00    +0.000 C 
ATOM      6  O   UNL     1       1.107   2.955  20.059  0.00  0.00    +0.000 OA
ENDBRANCH   3   5
ENDBRANCH   2   3
ENDBRANCH   1   2
BRANCH   1   7
ATOM      7  C   UNL     1       4.676   4.981  17.385  0.00  0.00    +0.000 C 
BRANCH   7   8
ATOM      8  O   UNL     1       4.719   4.390  16.073  0.00  0.00    +0.000 OA
BRANCH   8   9
ATOM      9  C   UNL     1       5.517   5.013  15.165  0.00  0.00    +0.000 C 
ATOM     10  C   UNL     1       6.107   4.027  14.202  0.00  0.00    +0.000 C 
ATOM     11  O   UNL     1       5.722   6.216  15.120  0.00  0.00    +0.000 OA
ENDBRANCH   8   9
ENDBRANCH   7   8
ENDBRANCH   1   7
BRANCH   1  12
ATOM     12  O   UNL     1       6.491   4.562  19.029  0.00  0.00    +0.000 OA
BRANCH  12  13
ATOM     13  C   UNL     1       7.473   4.978  18.190  0.00  0.00    +0.000 C 
ATOM     14  C   UNL     1       7.756   6.443  18.355  0.00  0.00    +0.000 C 
ATOM     15  O   UNL     1       8.092   4.260  17.414  0.00  0.00    +0.000 OA
ENDBRANCH  12  13
ENDBRANCH   1  12
TORSDOF 8
ENDMDL
MODEL 9
REMARK VINA RESULT:      -5.3      1.435      5.346
REMARK  Name = 
REMARK  11 active torsions:
REMARK  status: ('A' for Active; 'I' for Inactive)
REMARK    1  A    between atoms: C_1  and  C_2
REMARK    2  A    between atoms: C_2  and  O_4
REMARK    3  A    between atoms: O_4  and  C_5
REMARK    4  A    between atoms: C_5  and  C_6
REMARK    5  A    between atoms: C_6  and  C_7
REMARK    6  A    between atoms: C_6  and  O_12
REMARK    7  A    between atoms: C_7  and  O_8
REMARK    8  A    between atoms: O_8  and  C_9
REMARK    9  A    between atoms: C_9  and  C_10
REMARK   10  A    between atoms: O_12  and  C_13
REMARK   11  A    between atoms: C_13  and  C_14
REMARK                            x       y       z     vdW  Elec       q    Type
REMARK                         _______ _______ _______ _____ _____    ______ ____
ROOT
ATOM      1  C   UNL     1       5.148   5.349  17.494  0.00  0.00    +0.000 C 
ENDROOT
BRANCH   1   2
ATOM      2  C   UNL     1       5.342   4.057  16.681  0.00  0.00    +0.000 C 
BRANCH   2   3
ATOM      3  O   UNL     1       6.677   3.995  16.137  0.00  0.00    +0.000 OA
BRANCH   3   5
ATOM      4  C   UNL     1       5.867   4.037  13.940  0.00  0.00    +0.000 C 
ATOM      5  C   UNL     1       6.839   4.599  14.929  0.00  0.00    +0.000 C 
ATOM      6  O   UNL     1       7.669   5.460  14.674  0.00  0.00    +0.000 OA
ENDBRANCH   3   5
ENDBRANCH   2   3
ENDBRANCH   1   2
BRANCH   1   7
ATOM      7  C   UNL     1       3.666   5.703  17.694  0.00  0.00    +0.000 C 
BRANCH   7   8
ATOM      8  O   UNL     1       3.075   4.977  18.787  0.00  0.00    +0.000 OA
BRANCH   8   9
ATOM      9  C   UNL     1       1.892   4.361  18.521  0.00  0.00    +0.000 C 
ATOM     10  C   UNL     1       1.211   3.937  19.788  0.00  0.00    +0.000 C 
ATOM     11  O   UNL     1       1.428   4.184  17.406  0.00  0.00    +0.000 OA
ENDBRANCH   8   9
ENDBRANCH   7   8
ENDBRANCH   1   7
BRANCH   1  12
ATOM     12  O   UNL     1       5.884   5.329  18.752  0.00  0.00    +0.000 OA
BRANCH  12  13
ATOM     13  C   UNL     1       7.184   5.717  18.759  0.00  0.00    +0.000 C 
ATOM     14  C   UNL     1       7.404   6.926  17.897  0.00  0.00    +0.000 C 
ATOM     15  O   UNL     1       8.077   5.187  19.408  0.00  0.00    +0.000 OA
ENDBRANCH  12  13
ENDBRANCH   1  12
TORSDOF 8
ENDMDL
