MODEL 1
REMARK VINA RESULT:      -7.6      0.000      0.000
REMARK  Name = 
REMARK  4 active torsions:
REMARK  status: ('A' for Active; 'I' for Inactive)
REMARK    1  A    between atoms: S_1  and  C_2
REMARK    2  A    between atoms: C_5  and  C_6
REMARK    3  A    between atoms: C_6  and  C_7
REMARK    4  A    between atoms: C_6  and  C_13
REMARK                            x       y       z     vdW  Elec       q    Type
REMARK                         _______ _______ _______ _____ _____    ______ ____
ROOT
ATOM      1  C   UNL     1       3.705   5.101  19.574  0.00  0.00    +0.000 C 
ENDROOT
BRANCH   1   2
ATOM      2  C   UNL     1       2.984   6.402  19.227  0.00  0.00    +0.000 A 
ATOM      3  C   UNL     1       3.117   7.001  17.960  0.00  0.00    +0.000 A 
ATOM      4  C   UNL     1       2.514   8.229  17.689  0.00  0.00    +0.000 A 
ATOM      5  C   UNL     1       1.770   8.877  18.673  0.00  0.00    +0.000 A 
ATOM      6  C   UNL     1       1.620   8.290  19.927  0.00  0.00    +0.000 A 
ATOM      7  C   UNL     1       2.222   7.065  20.204  0.00  0.00    +0.000 A 
ENDBRANCH   1   2
BRANCH   1   8
ATOM      8  C   UNL     1       2.941   3.809  19.125  0.00  0.00    +0.000 C 
ATOM      9  C   UNL     1       3.344   2.574  19.964  0.00  0.00    +0.000 C 
ATOM     10  C   UNL     1       2.780   2.615  21.383  0.00  0.00    +0.000 C 
ATOM     11  C   UNL     1       1.260   2.697  21.365  0.00  0.00    +0.000 C 
ATOM     12  C   UNL     1       0.753   3.859  20.516  0.00  0.00    +0.000 C 
ATOM     13  C   UNL     1       1.400   3.928  19.133  0.00  0.00    +0.000 C 
ENDBRANCH   1   8
BRANCH   1  17
ATOM     14  C   UNL     1       6.581   4.942  17.483  0.00  0.00    +0.000 A 
ATOM     15  N   UNL     1       7.219   5.155  18.615  0.00  0.00    +0.000 NA
ATOM     16  N   UNL     1       6.258   5.284  19.593  0.00  0.00    +0.000 NA
ATOM     17  C   UNL     1       5.094   5.140  18.992  0.00  0.00    +0.000 A 
ATOM     18  O   UNL     1       5.220   4.936  17.640  0.00  0.00    +0.000 OA
BRANCH  14  19
ATOM     19  S   UNL     1       7.368   4.673  15.968  0.00  0.00    +0.000 S 
ATOM     20  H   UNL     1       6.727   5.640  15.297  0.00  0.00    +0.000 HD
ENDBRANCH  14  19
ENDBRANCH   1  17
TORSDOF 4
ENDMDL
MODEL 2
REMARK VINA RESULT:      -7.4      0.226      1.130
REMARK  Name = 
REMARK  4 active torsions:
REMARK  status: ('A' for Active; 'I' for Inactive)
REMARK    1  A    between atoms: S_1  and  C_2
REMARK    2  A    between atoms: C_5  and  C_6
REMARK    3  A    between atoms: C_6  and  C_7
REMARK    4  A    between atoms: C_6  and  C_13
REMARK                            x       y       z     vdW  Elec       q    Type
REMARK                         _______ _______ _______ _____ _____    ______ ____
ROOT
ATOM      1  C   UNL     1       3.796   5.006  19.472  0.00  0.00    +0.000 C 
ENDROOT
BRANCH   1   2
ATOM      2  C   UNL     1       3.126   6.353  19.208  0.00  0.00    +0.000 A 
ATOM      3  C   UNL     1       2.327   6.980  20.182  0.00  0.00    +0.000 A 
ATOM      4  C   UNL     1       1.660   8.171  19.894  0.00  0.00    +0.000 A 
ATOM      5  C   UNL     1       1.780   8.755  18.635  0.00  0.00    +0.000 A 
ATOM      6  C   UNL     1       2.578   8.152  17.665  0.00  0.00    +0.000 A 
ATOM      7  C   UNL     1       3.244   6.961  17.947  0.00  0.00    +0.000 A 
ENDBRANCH   1   2
BRANCH   1   8
ATOM      8  C   UNL     1       2.934   3.770  19.044  0.00  0.00    +0.000 C 
ATOM      9  C   UNL     1       3.280   2.507  19.865  0.00  0.00    +0.000 C 
ATOM     10  C   UNL     1       2.768   2.576  21.302  0.00  0.00    +0.000 C 
ATOM     11  C   UNL     1       1.256   2.759  21.333  0.00  0.00    +0.000 C 
ATOM     12  C   UNL     1       0.800   3.957  20.506  0.00  0.00    +0.000 C 
ATOM     13  C   UNL     1       1.405   3.991  19.102  0.00  0.00    +0.000 C 
ENDBRANCH   1   8
BRANCH   1  17
ATOM     14  C   UNL     1       6.508   4.807  17.176  0.00  0.00    +0.000 A 
ATOM     15  N   UNL     1       7.233   4.871  18.273  0.00  0.00    +0.000 NA
ATOM     16  N   UNL     1       6.351   4.989  19.324  0.00  0.00    +0.000 NA
ATOM     17  C   UNL     1       5.143   4.988  18.798  0.00  0.00    +0.000 A 
ATOM     18  O   UNL     1       5.164   4.892  17.429  0.00  0.00    +0.000 OA
BRANCH  14  19
ATOM     19  S   UNL     1       7.171   4.610  15.592  0.00  0.00    +0.000 S 
ATOM     20  H   UNL     1       6.424   5.554  15.004  0.00  0.00    +0.000 HD
ENDBRANCH  14  19
ENDBRANCH   1  17
TORSDOF 4
ENDMDL
MODEL 3
REMARK VINA RESULT:      -7.4      1.347      1.848
REMARK  Name = 
REMARK  4 active torsions:
REMARK  status: ('A' for Active; 'I' for Inactive)
REMARK    1  A    between atoms: S_1  and  C_2
REMARK    2  A    between atoms: C_5  and  C_6
REMARK    3  A    between atoms: C_6  and  C_7
REMARK    4  A    between atoms: C_6  and  C_13
REMARK                            x       y       z     vdW  Elec       q    Type
REMARK                         _______ _______ _______ _____ _____    ______ ____
ROOT
ATOM      1  C   UNL     1       3.859   4.996  18.233  0.00  0.00    +0.000 C 
ENDROOT
BRANCH   1   2
ATOM      2  C   UNL     1       3.181   6.332  18.530  0.00  0.00    +0.000 A 
ATOM      3  C   UNL     1       2.572   6.587  19.773  0.00  0.00    +0.000 A 
ATOM      4  C   UNL     1       1.889   7.782  19.998  0.00  0.00    +0.000 A 
ATOM      5  C   UNL     1       1.805   8.741  18.991  0.00  0.00    +0.000 A 
ATOM      6  C   UNL     1       2.414   8.508  17.760  0.00  0.00    +0.000 A 
ATOM      7  C   UNL     1       3.094   7.314  17.530  0.00  0.00    +0.000 A 
ENDBRANCH   1   2
BRANCH   1   8
ATOM      8  C   UNL     1       2.943   3.969  17.485  0.00  0.00    +0.000 C 
ATOM      9  C   UNL     1       3.429   2.513  17.672  0.00  0.00    +0.000 C 
ATOM     10  C   UNL     1       3.165   1.977  19.078  0.00  0.00    +0.000 C 
ATOM     11  C   UNL     1       1.679   2.025  19.409  0.00  0.00    +0.000 C 
ATOM     12  C   UNL     1       1.085   3.415  19.206  0.00  0.00    +0.000 C 
ATOM     13  C   UNL     1       1.445   4.040  17.858  0.00  0.00    +0.000 C 
ENDBRANCH   1   8
BRANCH   1  17
ATOM     14  C   UNL     1       6.444   5.177  15.793  0.00  0.00    +0.000 A 
ATOM     15  N   UNL     1       7.140   5.666  16.799  0.00  0.00    +0.000 NA
ATOM     16  N   UNL     1       6.290   5.715  17.881  0.00  0.00    +0.000 NA
ATOM     17  C   UNL     1       5.129   5.252  17.465  0.00  0.00    +0.000 A 
ATOM     18  O   UNL     1       5.146   4.903  16.137  0.00  0.00    +0.000 OA
BRANCH  14  19
ATOM     19  S   UNL     1       7.097   4.884  14.220  0.00  0.00    +0.000 S 
ATOM     20  H   UNL     1       8.209   5.614  14.387  0.00  0.00    +0.000 HD
ENDBRANCH  14  19
ENDBRANCH   1  17
TORSDOF 4
ENDMDL
MODEL 4
REMARK VINA RESULT:      -7.4      1.401      1.547
REMARK  Name = 
REMARK  4 active torsions:
REMARK  status: ('A' for Active; 'I' for Inactive)
REMARK    1  A    between atoms: S_1  and  C_2
REMARK    2  A    between atoms: C_5  and  C_6
REMARK    3  A    between atoms: C_6  and  C_7
REMARK    4  A    between atoms: C_6  and  C_13
REMARK                            x       y       z     vdW  Elec       q    Type
REMARK                         _______ _______ _______ _____ _____    ______ ____
ROOT
ATOM      1  C   UNL     1       3.730   5.188  18.196  0.00  0.00    +0.000 C 
ENDROOT
BRANCH   1   2
ATOM      2  C   UNL     1       2.954   6.472  18.480  0.00  0.00    +0.000 A 
ATOM      3  C   UNL     1       2.770   7.454  17.489  0.00  0.00    +0.000 A 
ATOM      4  C   UNL     1       2.127   8.656  17.789  0.00  0.00    +0.000 A 
ATOM      5  C   UNL     1       1.656   8.894  19.079  0.00  0.00    +0.000 A 
ATOM      6  C   UNL     1       1.820   7.926  20.067  0.00  0.00    +0.000 A 
ATOM      7  C   UNL     1       2.464   6.727  19.772  0.00  0.00    +0.000 A 
ENDBRANCH   1   2
BRANCH   1   8
ATOM      8  C   UNL     1       2.872   4.059  17.531  0.00  0.00    +0.000 C 
ATOM      9  C   UNL     1       3.462   2.653  17.789  0.00  0.00    +0.000 C 
ATOM     10  C   UNL     1       3.264   2.184  19.230  0.00  0.00    +0.000 C 
ATOM     11  C   UNL     1       1.786   2.150  19.594  0.00  0.00    +0.000 C 
ATOM     12  C   UNL     1       1.093   3.483  19.327  0.00  0.00    +0.000 C 
ATOM     13  C   UNL     1       1.381   4.049  17.937  0.00  0.00    +0.000 C 
ENDBRANCH   1   8
BRANCH   1  17
ATOM     14  C   UNL     1       6.266   5.351  15.705  0.00  0.00    +0.000 A 
ATOM     15  N   UNL     1       6.836   6.170  16.565  0.00  0.00    +0.000 NA
ATOM     16  N   UNL     1       5.976   6.280  17.635  0.00  0.00    +0.000 NA
ATOM     17  C   UNL     1       4.936   5.519  17.357  0.00  0.00    +0.000 A 
ATOM     18  O   UNL     1       5.043   4.907  16.133  0.00  0.00    +0.000 OA
BRANCH  14  19
ATOM     19  S   UNL     1       6.989   4.866  14.212  0.00  0.00    +0.000 S 
ATOM     20  H   UNL     1       6.037   5.374  13.418  0.00  0.00    +0.000 HD
ENDBRANCH  14  19
ENDBRANCH   1  17
TORSDOF 4
ENDMDL
MODEL 5
REMARK VINA RESULT:      -7.4      1.902      2.048
REMARK  Name = 
REMARK  4 active torsions:
REMARK  status: ('A' for Active; 'I' for Inactive)
REMARK    1  A    between atoms: S_1  and  C_2
REMARK    2  A    between atoms: C_5  and  C_6
REMARK    3  A    between atoms: C_6  and  C_7
REMARK    4  A    between atoms: C_6  and  C_13
REMARK                            x       y       z     vdW  Elec       q    Type
REMARK                         _______ _______ _______ _____ _____    ______ ____
ROOT
ATOM      1  C   UNL     1       3.549   5.483  18.333  0.00  0.00    +0.000 C 
ENDROOT
BRANCH   1   2
ATOM      2  C   UNL     1       2.700   6.678  18.762  0.00  0.00    +0.000 A 
ATOM      3  C   UNL     1       2.396   7.722  17.868  0.00  0.00    +0.000 A 
ATOM      4  C   UNL     1       1.686   8.843  18.300  0.00  0.00    +0.000 A 
ATOM      5  C   UNL     1       1.268   8.938  19.626  0.00  0.00    +0.000 A 
ATOM      6  C   UNL     1       1.551   7.907  20.518  0.00  0.00    +0.000 A 
ATOM      7  C   UNL     1       2.262   6.788  20.092  0.00  0.00    +0.000 A 
ENDBRANCH   1   2
BRANCH   1   8
ATOM      8  C   UNL     1       2.771   4.418  17.488  0.00  0.00    +0.000 C 
ATOM      9  C   UNL     1       3.501   3.056  17.455  0.00  0.00    +0.000 C 
ATOM     10  C   UNL     1       3.416   2.306  18.783  0.00  0.00    +0.000 C 
ATOM     11  C   UNL     1       1.967   2.055  19.176  0.00  0.00    +0.000 C 
ATOM     12  C   UNL     1       1.140   3.337  19.190  0.00  0.00    +0.000 C 
ATOM     13  C   UNL     1       1.308   4.182  17.927  0.00  0.00    +0.000 C 
ENDBRANCH   1   8
BRANCH   1  17
ATOM     14  C   UNL     1       6.586   7.048  17.336  0.00  0.00    +0.000 A 
ATOM     15  N   UNL     1       6.233   6.610  16.145  0.00  0.00    +0.000 NA
ATOM     16  N   UNL     1       5.053   5.921  16.310  0.00  0.00    +0.000 NA
ATOM     17  C   UNL     1       4.761   5.983  17.593  0.00  0.00    +0.000 A 
ATOM     18  O   UNL     1       5.704   6.673  18.315  0.00  0.00    +0.000 OA
BRANCH  14  19
ATOM     19  S   UNL     1       7.990   8.011  17.633  0.00  0.00    +0.000 S 
ATOM     20  H   UNL     1       7.440   8.781  18.581  0.00  0.00    +0.000 HD
ENDBRANCH  14  19
ENDBRANCH   1  17
TORSDOF 4
ENDMDL
MODEL 6
REMARK VINA RESULT:      -7.3      3.301      5.465
REMARK  Name = 
REMARK  4 active torsions:
REMARK  status: ('A' for Active; 'I' for Inactive)
REMARK    1  A    between atoms: S_1  and  C_2
REMARK    2  A    between atoms: C_5  and  C_6
REMARK    3  A    between atoms: C_6  and  C_7
REMARK    4  A    between atoms: C_6  and  C_13
REMARK                            x       y       z     vdW  Elec       q    Type
REMARK                         _______ _______ _______ _____ _____    ______ ____
ROOT
ATOM      1  C   UNL     1       3.590   6.210  18.444  0.00  0.00    +0.000 C 
ENDROOT
BRANCH   1   2
ATOM      2  C   UNL     1       2.639   5.148  18.992  0.00  0.00    +0.000 A 
ATOM      3  C   UNL     1       2.649   4.784  20.351  0.00  0.00    +0.000 A 
ATOM      4  C   UNL     1       1.829   3.756  20.818  0.00  0.00    +0.000 A 
ATOM      5  C   UNL     1       0.987   3.078  19.938  0.00  0.00    +0.000 A 
ATOM      6  C   UNL     1       0.958   3.436  18.592  0.00  0.00    +0.000 A 
ATOM      7  C   UNL     1       1.777   4.460  18.122  0.00  0.00    +0.000 A 
ENDBRANCH   1   2
BRANCH   1   8
ATOM      8  C   UNL     1       4.315   5.793  17.119  0.00  0.00    +0.000 C 
ATOM      9  C   UNL     1       5.333   6.860  16.653  0.00  0.00    +0.000 C 
ATOM     10  C   UNL     1       6.588   6.898  17.523  0.00  0.00    +0.000 C 
ATOM     11  C   UNL     1       7.290   5.547  17.528  0.00  0.00    +0.000 C 
ATOM     12  C   UNL     1       6.354   4.410  17.926  0.00  0.00    +0.000 C 
ATOM     13  C   UNL     1       5.026   4.422  17.169  0.00  0.00    +0.000 C 
ENDBRANCH   1   8
BRANCH   1  17
ATOM     14  C   UNL     1       1.510   9.074  18.814  0.00  0.00    +0.000 A 
ATOM     15  N   UNL     1       1.819   9.264  17.548  0.00  0.00    +0.000 NA
ATOM     16  N   UNL     1       2.675   8.246  17.192  0.00  0.00    +0.000 NA
ATOM     17  C   UNL     1       2.834   7.500  18.266  0.00  0.00    +0.000 A 
ATOM     18  O   UNL     1       2.133   7.976  19.347  0.00  0.00    +0.000 OA
BRANCH  14  19
ATOM     19  S   UNL     1       0.420  10.079  19.702  0.00  0.00    +0.000 S 
ATOM     20  H   UNL     1       0.411  11.093  18.825  0.00  0.00    +0.000 HD
ENDBRANCH  14  19
ENDBRANCH   1  17
TORSDOF 4
ENDMDL
MODEL 7
REMARK VINA RESULT:      -7.2      3.073      4.704
REMARK  Name = 
REMARK  4 active torsions:
REMARK  status: ('A' for Active; 'I' for Inactive)
REMARK    1  A    between atoms: S_1  and  C_2
REMARK    2  A    between atoms: C_5  and  C_6
REMARK    3  A    between atoms: C_6  and  C_7
REMARK    4  A    between atoms: C_6  and  C_13
REMARK                            x       y       z     vdW  Elec       q    Type
REMARK                         _______ _______ _______ _____ _____    ______ ____
ROOT
ATOM      1  C   UNL     1       2.844   6.010  17.889  0.00  0.00    +0.000 C 
ENDROOT
BRANCH   1   2
ATOM      2  C   UNL     1       2.293   7.302  18.487  0.00  0.00    +0.000 A 
ATOM      3  C   UNL     1       2.033   7.423  19.865  0.00  0.00    +0.000 A 
ATOM      4  C   UNL     1       1.455   8.584  20.381  0.00  0.00    +0.000 A 
ATOM      5  C   UNL     1       1.131   9.640  19.533  0.00  0.00    +0.000 A 
ATOM      6  C   UNL     1       1.394   9.540  18.169  0.00  0.00    +0.000 A 
ATOM      7  C   UNL     1       1.968   8.382  17.649  0.00  0.00    +0.000 A 
ENDBRANCH   1   2
BRANCH   1   8
ATOM      8  C   UNL     1       4.396   5.855  18.027  0.00  0.00    +0.000 C 
ATOM      9  C   UNL     1       4.869   4.418  17.703  0.00  0.00    +0.000 C 
ATOM     10  C   UNL     1       4.802   4.097  16.212  0.00  0.00    +0.000 C 
ATOM     11  C   UNL     1       5.656   5.066  15.406  0.00  0.00    +0.000 C 
ATOM     12  C   UNL     1       5.304   6.523  15.692  0.00  0.00    +0.000 C 
ATOM     13  C   UNL     1       5.227   6.848  17.184  0.00  0.00    +0.000 C 
ENDBRANCH   1   8
BRANCH   1  17
ATOM     14  C   UNL     1       1.636   3.432  20.026  0.00  0.00    +0.000 A 
ATOM     15  N   UNL     1       1.016   3.037  18.934  0.00  0.00    +0.000 NA
ATOM     16  N   UNL     1       1.330   3.947  17.949  0.00  0.00    +0.000 NA
ATOM     17  C   UNL     1       2.124   4.839  18.506  0.00  0.00    +0.000 A 
ATOM     18  O   UNL     1       2.351   4.586  19.836  0.00  0.00    +0.000 OA
BRANCH  14  19
ATOM     19  S   UNL     1       1.580   2.580  21.529  0.00  0.00    +0.000 S 
ATOM     20  H   UNL     1       2.520   3.310  22.145  0.00  0.00    +0.000 HD
ENDBRANCH  14  19
ENDBRANCH   1  17
TORSDOF 4
ENDMDL
MODEL 8
REMARK VINA RESULT:      -7.2      3.300      5.363
REMARK  Name = 
REMARK  4 active torsions:
REMARK  status: ('A' for Active; 'I' for Inactive)
REMARK    1  A    between atoms: S_1  and  C_2
REMARK    2  A    between atoms: C_5  and  C_6
REMARK    3  A    between atoms: C_6  and  C_7
REMARK    4  A    between atoms: C_6  and  C_13
REMARK                            x       y       z     vdW  Elec       q    Type
REMARK                         _______ _______ _______ _____ _____    ______ ____
ROOT
ATOM      1  C   UNL     1       3.711   6.303  18.357  0.00  0.00    +0.000 C 
ENDROOT
BRANCH   1   2
ATOM      2  C   UNL     1       2.813   5.162  18.830  0.00  0.00    +0.000 A 
ATOM      3  C   UNL     1       1.871   4.564  17.972  0.00  0.00    +0.000 A 
ATOM      4  C   UNL     1       1.005   3.577  18.444  0.00  0.00    +0.000 A 
ATOM      5  C   UNL     1       1.066   3.171  19.775  0.00  0.00    +0.000 A 
ATOM      6  C   UNL     1       2.002   3.745  20.633  0.00  0.00    +0.000 A 
ATOM      7  C   UNL     1       2.866   4.733  20.167  0.00  0.00    +0.000 A 
ENDBRANCH   1   2
BRANCH   1   8
ATOM      8  C   UNL     1       4.479   6.001  17.026  0.00  0.00    +0.000 C 
ATOM      9  C   UNL     1       5.700   6.929  16.835  0.00  0.00    +0.000 C 
ATOM     10  C   UNL     1       6.856   6.587  17.774  0.00  0.00    +0.000 C 
ATOM     11  C   UNL     1       7.319   5.151  17.568  0.00  0.00    +0.000 C 
ATOM     12  C   UNL     1       6.173   4.151  17.685  0.00  0.00    +0.000 C 
ATOM     13  C   UNL     1       4.944   4.536  16.861  0.00  0.00    +0.000 C 
ENDBRANCH   1   8
BRANCH   1  17
ATOM     14  C   UNL     1       1.495   9.043  18.857  0.00  0.00    +0.000 A 
ATOM     15  N   UNL     1       1.770   9.289  17.592  0.00  0.00    +0.000 NA
ATOM     16  N   UNL     1       2.670   8.328  17.189  0.00  0.00    +0.000 NA
ATOM     17  C   UNL     1       2.887   7.558  18.236  0.00  0.00    +0.000 A 
ATOM     18  O   UNL     1       2.183   7.963  19.343  0.00  0.00    +0.000 OA
BRANCH  14  19
ATOM     19  S   UNL     1       0.373   9.962  19.796  0.00  0.00    +0.000 S 
ATOM     20  H   UNL     1       0.972  11.148  19.619  0.00  0.00    +0.000 HD
ENDBRANCH  14  19
ENDBRANCH   1  17
TORSDOF 4
ENDMDL
MODEL 9
REMARK VINA RESULT:      -7.2      1.889      2.289
REMARK  Name = 
REMARK  4 active torsions:
REMARK  status: ('A' for Active; 'I' for Inactive)
REMARK    1  A    between atoms: S_1  and  C_2
REMARK    2  A    between atoms: C_5  and  C_6
REMARK    3  A    between atoms: C_6  and  C_7
REMARK    4  A    between atoms: C_6  and  C_13
REMARK                            x       y       z     vdW  Elec       q    Type
REMARK                         _______ _______ _______ _____ _____    ______ ____
ROOT
ATOM      1  C   UNL     1       3.562   5.453  18.370  0.00  0.00    +0.000 C 
ENDROOT
BRANCH   1   2
ATOM      2  C   UNL     1       2.774   6.664  18.866  0.00  0.00    +0.000 A 
ATOM      3  C   UNL     1       2.274   6.729  20.179  0.00  0.00    +0.000 A 
ATOM      4  C   UNL     1       1.490   7.807  20.589  0.00  0.00    +0.000 A 
ATOM      5  C   UNL     1       1.196   8.838  19.698  0.00  0.00    +0.000 A 
ATOM      6  C   UNL     1       1.695   8.794  18.399  0.00  0.00    +0.000 A 
ATOM      7  C   UNL     1       2.475   7.717  17.984  0.00  0.00    +0.000 A 
ENDBRANCH   1   2
BRANCH   1   8
ATOM      8  C   UNL     1       2.719   4.455  17.505  0.00  0.00    +0.000 C 
ATOM      9  C   UNL     1       3.409   3.079  17.367  0.00  0.00    +0.000 C 
ATOM     10  C   UNL     1       3.361   2.261  18.656  0.00  0.00    +0.000 C 
ATOM     11  C   UNL     1       1.924   2.025  19.100  0.00  0.00    +0.000 C 
ATOM     12  C   UNL     1       1.133   3.325  19.218  0.00  0.00    +0.000 C 
ATOM     13  C   UNL     1       1.270   4.232  17.995  0.00  0.00    +0.000 C 
ENDBRANCH   1   8
BRANCH   1  17
ATOM     14  C   UNL     1       6.601   6.987  17.334  0.00  0.00    +0.000 A 
ATOM     15  N   UNL     1       6.250   6.518  16.155  0.00  0.00    +0.000 NA
ATOM     16  N   UNL     1       5.069   5.834  16.337  0.00  0.00    +0.000 NA
ATOM     17  C   UNL     1       4.775   5.932  17.618  0.00  0.00    +0.000 A 
ATOM     18  O   UNL     1       5.718   6.640  18.322  0.00  0.00    +0.000 OA
BRANCH  14  19
ATOM     19  S   UNL     1       8.006   7.957  17.607  0.00  0.00    +0.000 S 
ATOM     20  H   UNL     1       8.677   7.043  18.321  0.00  0.00    +0.000 HD
ENDBRANCH  14  19
ENDBRANCH   1  17
TORSDOF 4
ENDMDL
