MODEL 1
REMARK VINA RESULT:      -7.2      0.000      0.000
REMARK  Name = 
REMARK  5 active torsions:
REMARK  status: ('A' for Active; 'I' for Inactive)
REMARK    1  A    between atoms: C_1  and  C_2
REMARK    2  A    between atoms: C_5  and  C_6
REMARK    3  A    between atoms: N_11  and  C_12
REMARK    4  A    between atoms: C_12  and  C_13
REMARK    5  A    between atoms: C_13  and  C_15
REMARK                            x       y       z     vdW  Elec       q    Type
REMARK                         _______ _______ _______ _____ _____    ______ ____
ROOT
ATOM      1  C   UNL     1       3.073   6.187  19.270  0.00  0.00    +0.000 C 
ATOM      2  O   UNL     1       3.125   5.317  20.144  0.00  0.00    +0.000 OA
ATOM      3  N   UNL     1       2.277   7.324  19.431  0.00  0.00    +0.000 N 
ATOM      4  C   UNL     1       1.598   7.537  20.710  0.00  0.00    +0.000 C 
ATOM      5  C   UNL     1       1.428   9.040  21.027  0.00  0.00    +0.000 C 
ATOM      6  N   UNL     1       0.892   9.869  19.924  0.00  0.00    +0.000 NA
ATOM      7  C   UNL     1       1.667   9.597  18.692  0.00  0.00    +0.000 C 
ATOM      8  C   UNL     1       1.739   8.111  18.319  0.00  0.00    +0.000 C 
ENDROOT
BRANCH   1  13
ATOM      9  C   UNL     1       5.501   4.601  15.048  0.00  0.00    +0.000 C 
ATOM     10  C   UNL     1       4.913   5.324  16.197  0.00  0.00    +0.000 A 
ATOM     11  N   UNL     1       5.238   6.617  16.484  0.00  0.00    +0.000 N 
ATOM     12  N   UNL     1       4.676   7.081  17.608  0.00  0.00    +0.000 NA
ATOM     13  C   UNL     1       3.878   6.075  18.036  0.00  0.00    +0.000 A 
ATOM     14  C   UNL     1       4.018   4.958  17.173  0.00  0.00    +0.000 A 
ATOM     15 BR   UNL     1       3.131   3.314  17.322  0.00  0.00    +0.000 Br
ATOM     16  H   UNL     1       5.847   7.240  15.963  0.00  0.00    +0.000 HD
ENDBRANCH   1  13
BRANCH   6  17
ATOM     17  C   UNL     1      -0.560   9.657  19.747  0.00  0.00    +0.000 C 
BRANCH  17  18
ATOM     18  C   UNL     1      -1.241  10.881  19.132  0.00  0.00    +0.000 C 
ATOM     19  O   UNL     1      -1.077  12.001  19.612  0.00  0.00    +0.000 OA
BRANCH  18  20
ATOM     20  C   UNL     1      -2.126  10.716  17.935  0.00  0.00    +0.000 A 
ATOM     21  C   UNL     1      -3.317  11.441  17.779  0.00  0.00    +0.000 A 
ATOM     22  C   UNL     1      -4.078  11.307  16.618  0.00  0.00    +0.000 A 
ATOM     23  C   UNL     1      -3.662  10.432  15.622  0.00  0.00    +0.000 A 
ATOM     24  F   UNL     1      -4.393  10.310  14.507  0.00  0.00    +0.000 F 
ATOM     25  C   UNL     1      -2.496   9.689  15.765  0.00  0.00    +0.000 A 
ATOM     26  C   UNL     1      -1.725   9.831  16.921  0.00  0.00    +0.000 A 
ENDBRANCH  18  20
ENDBRANCH  17  18
ENDBRANCH   6  17
TORSDOF 4
ENDMDL
MODEL 2
REMARK VINA RESULT:      -7.0      6.445      9.399
REMARK  Name = 
REMARK  5 active torsions:
REMARK  status: ('A' for Active; 'I' for Inactive)
REMARK    1  A    between atoms: C_1  and  C_2
REMARK    2  A    between atoms: C_5  and  C_6
REMARK    3  A    between atoms: N_11  and  C_12
REMARK    4  A    between atoms: C_12  and  C_13
REMARK    5  A    between atoms: C_13  and  C_15
REMARK                            x       y       z     vdW  Elec       q    Type
REMARK                         _______ _______ _______ _____ _____    ______ ____
ROOT
ATOM      1  C   UNL     1       5.477   5.181  19.166  0.00  0.00    +0.000 C 
ATOM      2  O   UNL     1       6.378   5.493  19.950  0.00  0.00    +0.000 OA
ATOM      3  N   UNL     1       5.746   4.952  17.814  0.00  0.00    +0.000 N 
ATOM      4  C   UNL     1       7.135   4.964  17.357  0.00  0.00    +0.000 C 
ATOM      5  C   UNL     1       7.355   4.012  16.160  0.00  0.00    +0.000 C 
ATOM      6  N   UNL     1       6.368   4.127  15.062  0.00  0.00    +0.000 NA
ATOM      7  C   UNL     1       5.002   4.074  15.632  0.00  0.00    +0.000 C 
ATOM      8  C   UNL     1       4.753   5.099  16.746  0.00  0.00    +0.000 C 
ENDROOT
BRANCH   1  13
ATOM      9  C   UNL     1       0.885   3.360  20.519  0.00  0.00    +0.000 C 
ATOM     10  C   UNL     1       2.100   4.146  20.216  0.00  0.00    +0.000 A 
ATOM     11  N   UNL     1       2.119   5.509  20.283  0.00  0.00    +0.000 N 
ATOM     12  N   UNL     1       3.278   6.056  19.892  0.00  0.00    +0.000 NA
ATOM     13  C   UNL     1       4.087   5.002  19.636  0.00  0.00    +0.000 A 
ATOM     14  C   UNL     1       3.368   3.794  19.821  0.00  0.00    +0.000 A 
ATOM     15 BR   UNL     1       4.029   2.055  19.597  0.00  0.00    +0.000 Br
ATOM     16  H   UNL     1       1.373   6.131  20.576  0.00  0.00    +0.000 HD
ENDBRANCH   1  13
BRANCH   6  17
ATOM     17  C   UNL     1       6.604   5.338  14.250  0.00  0.00    +0.000 C 
BRANCH  17  18
ATOM     18  C   UNL     1       7.224   4.998  12.893  0.00  0.00    +0.000 C 
ATOM     19  O   UNL     1       8.010   5.772  12.347  0.00  0.00    +0.000 OA
BRANCH  18  20
ATOM     20  C   UNL     1       6.866   3.713  12.212  0.00  0.00    +0.000 A 
ATOM     21  C   UNL     1       7.838   2.839  11.703  0.00  0.00    +0.000 A 
ATOM     22  C   UNL     1       7.463   1.621  11.135  0.00  0.00    +0.000 A 
ATOM     23  C   UNL     1       6.118   1.285  11.057  0.00  0.00    +0.000 A 
ATOM     24  F   UNL     1       5.763   0.113  10.516  0.00  0.00    +0.000 F 
ATOM     25  C   UNL     1       5.138   2.146  11.537  0.00  0.00    +0.000 A 
ATOM     26  C   UNL     1       5.510   3.360  12.118  0.00  0.00    +0.000 A 
ENDBRANCH  18  20
ENDBRANCH  17  18
ENDBRANCH   6  17
TORSDOF 4
ENDMDL
MODEL 3
REMARK VINA RESULT:      -7.0      1.182      1.437
REMARK  Name = 
REMARK  5 active torsions:
REMARK  status: ('A' for Active; 'I' for Inactive)
REMARK    1  A    between atoms: C_1  and  C_2
REMARK    2  A    between atoms: C_5  and  C_6
REMARK    3  A    between atoms: N_11  and  C_12
REMARK    4  A    between atoms: C_12  and  C_13
REMARK    5  A    between atoms: C_13  and  C_15
REMARK                            x       y       z     vdW  Elec       q    Type
REMARK                         _______ _______ _______ _____ _____    ______ ____
ROOT
ATOM      1  C   UNL     1       2.972   6.442  19.099  0.00  0.00    +0.000 C 
ATOM      2  O   UNL     1       2.876   5.701  20.081  0.00  0.00    +0.000 OA
ATOM      3  N   UNL     1       2.248   7.635  19.023  0.00  0.00    +0.000 N 
ATOM      4  C   UNL     1       1.465   8.063  20.183  0.00  0.00    +0.000 C 
ATOM      5  C   UNL     1       1.374   9.602  20.279  0.00  0.00    +0.000 C 
ATOM      6  N   UNL     1       1.008  10.300  19.026  0.00  0.00    +0.000 NA
ATOM      7  C   UNL     1       1.877   9.814  17.930  0.00  0.00    +0.000 C 
ATOM      8  C   UNL     1       1.878   8.289  17.766  0.00  0.00    +0.000 C 
ENDROOT
BRANCH   1  13
ATOM      9  C   UNL     1       5.583   4.178  15.318  0.00  0.00    +0.000 C 
ATOM     10  C   UNL     1       4.988   5.070  16.337  0.00  0.00    +0.000 A 
ATOM     11  N   UNL     1       5.474   6.323  16.577  0.00  0.00    +0.000 N 
ATOM     12  N   UNL     1       4.868   6.954  17.591  0.00  0.00    +0.000 NA
ATOM     13  C   UNL     1       3.883   6.113  17.982  0.00  0.00    +0.000 A 
ATOM     14  C   UNL     1       3.945   4.920  17.218  0.00  0.00    +0.000 A 
ATOM     15 BR   UNL     1       2.806   3.440  17.365  0.00  0.00    +0.000 Br
ATOM     16  H   UNL     1       6.225   6.806  16.095  0.00  0.00    +0.000 HD
ENDBRANCH   1  13
BRANCH   6  17
ATOM     17  C   UNL     1      -0.432  10.149  18.726  0.00  0.00    +0.000 C 
BRANCH  17  18
ATOM     18  C   UNL     1      -1.116  11.505  18.537  0.00  0.00    +0.000 C 
ATOM     19  O   UNL     1      -0.476  12.552  18.627  0.00  0.00    +0.000 OA
BRANCH  18  20
ATOM     20  C   UNL     1      -2.584  11.564  18.248  0.00  0.00    +0.000 A 
ATOM     21  C   UNL     1      -3.515  12.021  19.191  0.00  0.00    +0.000 A 
ATOM     22  C   UNL     1      -4.866  12.122  18.858  0.00  0.00    +0.000 A 
ATOM     23  C   UNL     1      -5.290  11.746  17.590  0.00  0.00    +0.000 A 
ATOM     24  F   UNL     1      -6.586  11.849  17.272  0.00  0.00    +0.000 F 
ATOM     25  C   UNL     1      -4.386  11.270  16.646  0.00  0.00    +0.000 A 
ATOM     26  C   UNL     1      -3.031  11.180  16.973  0.00  0.00    +0.000 A 
ENDBRANCH  18  20
ENDBRANCH  17  18
ENDBRANCH   6  17
TORSDOF 4
ENDMDL
MODEL 4
REMARK VINA RESULT:      -6.9      4.440      8.097
REMARK  Name = 
REMARK  5 active torsions:
REMARK  status: ('A' for Active; 'I' for Inactive)
REMARK    1  A    between atoms: C_1  and  C_2
REMARK    2  A    between atoms: C_5  and  C_6
REMARK    3  A    between atoms: N_11  and  C_12
REMARK    4  A    between atoms: C_12  and  C_13
REMARK    5  A    between atoms: C_13  and  C_15
REMARK                            x       y       z     vdW  Elec       q    Type
REMARK                         _______ _______ _______ _____ _____    ______ ____
ROOT
ATOM      1  C   UNL     1       1.369   8.118  20.608  0.00  0.00    +0.000 C 
ATOM      2  O   UNL     1       1.061   8.157  21.802  0.00  0.00    +0.000 OA
ATOM      3  N   UNL     1       1.836   6.937  20.023  0.00  0.00    +0.000 N 
ATOM      4  C   UNL     1       1.837   5.707  20.815  0.00  0.00    +0.000 C 
ATOM      5  C   UNL     1       1.627   4.456  19.934  0.00  0.00    +0.000 C 
ATOM      6  N   UNL     1       2.471   4.380  18.719  0.00  0.00    +0.000 NA
ATOM      7  C   UNL     1       2.372   5.661  17.982  0.00  0.00    +0.000 C 
ATOM      8  C   UNL     1       2.691   6.895  18.834  0.00  0.00    +0.000 C 
ENDROOT
BRANCH   1  13
ATOM      9  C   UNL     1       0.167  12.659  18.567  0.00  0.00    +0.000 C 
ATOM     10  C   UNL     1       0.667  11.309  18.906  0.00  0.00    +0.000 A 
ATOM     11  N   UNL     1       1.341  10.538  18.005  0.00  0.00    +0.000 N 
ATOM     12  N   UNL     1       1.643   9.313  18.457  0.00  0.00    +0.000 NA
ATOM     13  C   UNL     1       1.222   9.308  19.743  0.00  0.00    +0.000 A 
ATOM     14  C   UNL     1       0.597  10.544  20.045  0.00  0.00    +0.000 A 
ATOM     15 BR   UNL     1      -0.152  11.045  21.687  0.00  0.00    +0.000 Br
ATOM     16  H   UNL     1       1.619  10.779  17.059  0.00  0.00    +0.000 HD
ENDBRANCH   1  13
BRANCH   6  17
ATOM     17  C   UNL     1       3.863   4.015  19.053  0.00  0.00    +0.000 C 
BRANCH  17  18
ATOM     18  C   UNL     1       4.804   4.227  17.866  0.00  0.00    +0.000 C 
ATOM     19  O   UNL     1       4.698   3.544  16.848  0.00  0.00    +0.000 OA
BRANCH  18  20
ATOM     20  C   UNL     1       5.875   5.272  17.942  0.00  0.00    +0.000 A 
ATOM     21  C   UNL     1       5.900   6.383  17.086  0.00  0.00    +0.000 A 
ATOM     22  C   UNL     1       6.878   7.366  17.234  0.00  0.00    +0.000 A 
ATOM     23  C   UNL     1       7.844   7.230  18.223  0.00  0.00    +0.000 A 
ATOM     24  F   UNL     1       8.777   8.178  18.365  0.00  0.00    +0.000 F 
ATOM     25  C   UNL     1       7.850   6.127  19.068  0.00  0.00    +0.000 A 
ATOM     26  C   UNL     1       6.864   5.146  18.931  0.00  0.00    +0.000 A 
ENDBRANCH  18  20
ENDBRANCH  17  18
ENDBRANCH   6  17
TORSDOF 4
ENDMDL
MODEL 5
REMARK VINA RESULT:      -6.9      4.132      8.261
REMARK  Name = 
REMARK  5 active torsions:
REMARK  status: ('A' for Active; 'I' for Inactive)
REMARK    1  A    between atoms: C_1  and  C_2
REMARK    2  A    between atoms: C_5  and  C_6
REMARK    3  A    between atoms: N_11  and  C_12
REMARK    4  A    between atoms: C_12  and  C_13
REMARK    5  A    between atoms: C_13  and  C_15
REMARK                            x       y       z     vdW  Elec       q    Type
REMARK                         _______ _______ _______ _____ _____    ______ ____
ROOT
ATOM      1  C   UNL     1       0.732   8.822  20.681  0.00  0.00    +0.000 C 
ATOM      2  O   UNL     1       0.343   8.845  21.851  0.00  0.00    +0.000 OA
ATOM      3  N   UNL     1       1.496   7.756  20.197  0.00  0.00    +0.000 N 
ATOM      4  C   UNL     1       1.727   6.600  21.063  0.00  0.00    +0.000 C 
ATOM      5  C   UNL     1       1.871   5.293  20.251  0.00  0.00    +0.000 C 
ATOM      6  N   UNL     1       2.790   5.359  19.092  0.00  0.00    +0.000 NA
ATOM      7  C   UNL     1       2.450   6.544  18.272  0.00  0.00    +0.000 C 
ATOM      8  C   UNL     1       2.417   7.858  19.062  0.00  0.00    +0.000 C 
ENDROOT
BRANCH   1  13
ATOM      9  C   UNL     1      -0.749  13.195  18.465  0.00  0.00    +0.000 C 
ATOM     10  C   UNL     1      -0.278  11.841  18.826  0.00  0.00    +0.000 A 
ATOM     11  N   UNL     1      -0.066  10.872  17.889  0.00  0.00    +0.000 N 
ATOM     12  N   UNL     1       0.276   9.684  18.405  0.00  0.00    +0.000 NA
ATOM     13  C   UNL     1       0.374   9.902  19.737  0.00  0.00    +0.000 A 
ATOM     14  C   UNL     1       0.021  11.243  20.027  0.00  0.00    +0.000 A 
ATOM     15 BR   UNL     1      -0.005  12.051  21.717  0.00  0.00    +0.000 Br
ATOM     16  H   UNL     1      -0.146  10.949  16.881  0.00  0.00    +0.000 HD
ENDBRANCH   1  13
BRANCH   6  17
ATOM     17  C   UNL     1       4.203   5.346  19.524  0.00  0.00    +0.000 C 
BRANCH  17  18
ATOM     18  C   UNL     1       4.984   4.202  18.873  0.00  0.00    +0.000 C 
ATOM     19  O   UNL     1       5.126   3.126  19.452  0.00  0.00    +0.000 OA
BRANCH  18  20
ATOM     20  C   UNL     1       5.592   4.393  17.517  0.00  0.00    +0.000 A 
ATOM     21  C   UNL     1       6.942   4.731  17.343  0.00  0.00    +0.000 A 
ATOM     22  C   UNL     1       7.484   4.834  16.062  0.00  0.00    +0.000 A 
ATOM     23  C   UNL     1       6.673   4.621  14.955  0.00  0.00    +0.000 A 
ATOM     24  F   UNL     1       7.198   4.716  13.727  0.00  0.00    +0.000 F 
ATOM     25  C   UNL     1       5.328   4.305  15.105  0.00  0.00    +0.000 A 
ATOM     26  C   UNL     1       4.785   4.188  16.387  0.00  0.00    +0.000 A 
ENDBRANCH  18  20
ENDBRANCH  17  18
ENDBRANCH   6  17
TORSDOF 4
ENDMDL
MODEL 6
REMARK VINA RESULT:      -6.9      4.111      8.229
REMARK  Name = 
REMARK  5 active torsions:
REMARK  status: ('A' for Active; 'I' for Inactive)
REMARK    1  A    between atoms: C_1  and  C_2
REMARK    2  A    between atoms: C_5  and  C_6
REMARK    3  A    between atoms: N_11  and  C_12
REMARK    4  A    between atoms: C_12  and  C_13
REMARK    5  A    between atoms: C_13  and  C_15
REMARK                            x       y       z     vdW  Elec       q    Type
REMARK                         _______ _______ _______ _____ _____    ______ ____
ROOT
ATOM      1  C   UNL     1       0.680   9.123  20.600  0.00  0.00    +0.000 C 
ATOM      2  O   UNL     1       0.352   9.178  21.788  0.00  0.00    +0.000 OA
ATOM      3  N   UNL     1       1.448   8.062  20.114  0.00  0.00    +0.000 N 
ATOM      4  C   UNL     1       1.758   6.944  21.006  0.00  0.00    +0.000 C 
ATOM      5  C   UNL     1       1.898   5.613  20.235  0.00  0.00    +0.000 C 
ATOM      6  N   UNL     1       2.752   5.662  19.026  0.00  0.00    +0.000 NA
ATOM      7  C   UNL     1       2.335   6.806  18.184  0.00  0.00    +0.000 C 
ATOM      8  C   UNL     1       2.305   8.147  18.928  0.00  0.00    +0.000 C 
ENDROOT
BRANCH   1  13
ATOM      9  C   UNL     1      -0.357  13.485  18.124  0.00  0.00    +0.000 C 
ATOM     10  C   UNL     1      -0.181  12.097  18.603  0.00  0.00    +0.000 A 
ATOM     11  N   UNL     1      -0.729  11.030  17.952  0.00  0.00    +0.000 N 
ATOM     12  N   UNL     1      -0.539   9.859  18.574  0.00  0.00    +0.000 NA
ATOM     13  C   UNL     1       0.241  10.157  19.639  0.00  0.00    +0.000 A 
ATOM     14  C   UNL     1       0.470  11.555  19.685  0.00  0.00    +0.000 A 
ATOM     15 BR   UNL     1       1.487  12.479  20.958  0.00  0.00    +0.000 Br
ATOM     16  H   UNL     1      -1.255  11.030  17.084  0.00  0.00    +0.000 HD
ENDBRANCH   1  13
BRANCH   6  17
ATOM     17  C   UNL     1       4.186   5.703  19.382  0.00  0.00    +0.000 C 
BRANCH  17  18
ATOM     18  C   UNL     1       4.941   4.493  18.829  0.00  0.00    +0.000 C 
ATOM     19  O   UNL     1       5.032   3.454  19.483  0.00  0.00    +0.000 OA
BRANCH  18  20
ATOM     20  C   UNL     1       5.588   4.572  17.481  0.00  0.00    +0.000 A 
ATOM     21  C   UNL     1       5.097   3.866  16.372  0.00  0.00    +0.000 A 
ATOM     22  C   UNL     1       5.690   4.019  15.119  0.00  0.00    +0.000 A 
ATOM     23  C   UNL     1       6.787   4.859  14.977  0.00  0.00    +0.000 A 
ATOM     24  F   UNL     1       7.350   5.008  13.772  0.00  0.00    +0.000 F 
ATOM     25  C   UNL     1       7.302   5.552  16.066  0.00  0.00    +0.000 A 
ATOM     26  C   UNL     1       6.702   5.411  17.320  0.00  0.00    +0.000 A 
ENDBRANCH  18  20
ENDBRANCH  17  18
ENDBRANCH   6  17
TORSDOF 4
ENDMDL
MODEL 7
REMARK VINA RESULT:      -6.6      2.523      3.219
REMARK  Name = 
REMARK  5 active torsions:
REMARK  status: ('A' for Active; 'I' for Inactive)
REMARK    1  A    between atoms: C_1  and  C_2
REMARK    2  A    between atoms: C_5  and  C_6
REMARK    3  A    between atoms: N_11  and  C_12
REMARK    4  A    between atoms: C_12  and  C_13
REMARK    5  A    between atoms: C_13  and  C_15
REMARK                            x       y       z     vdW  Elec       q    Type
REMARK                         _______ _______ _______ _____ _____    ______ ____
ROOT
ATOM      1  C   UNL     1       2.780   6.590  19.191  0.00  0.00    +0.000 C 
ATOM      2  O   UNL     1       2.634   5.828  20.151  0.00  0.00    +0.000 OA
ATOM      3  N   UNL     1       2.112   7.817  19.138  0.00  0.00    +0.000 N 
ATOM      4  C   UNL     1       1.332   8.249  20.297  0.00  0.00    +0.000 C 
ATOM      5  C   UNL     1       1.311   9.788  20.435  0.00  0.00    +0.000 C 
ATOM      6  N   UNL     1       0.997  10.536  19.196  0.00  0.00    +0.000 NA
ATOM      7  C   UNL     1       1.861  10.040  18.100  0.00  0.00    +0.000 C 
ATOM      8  C   UNL     1       1.794   8.521  17.894  0.00  0.00    +0.000 C 
ENDROOT
BRANCH   1  13
ATOM      9  C   UNL     1       5.383   4.290  15.428  0.00  0.00    +0.000 C 
ATOM     10  C   UNL     1       4.794   5.191  16.441  0.00  0.00    +0.000 A 
ATOM     11  N   UNL     1       5.291   6.439  16.681  0.00  0.00    +0.000 N 
ATOM     12  N   UNL     1       4.687   7.079  17.691  0.00  0.00    +0.000 NA
ATOM     13  C   UNL     1       3.692   6.249  18.079  0.00  0.00    +0.000 A 
ATOM     14  C   UNL     1       3.745   5.054  17.318  0.00  0.00    +0.000 A 
ATOM     15 BR   UNL     1       2.590   3.586  17.463  0.00  0.00    +0.000 Br
ATOM     16  H   UNL     1       6.049   6.913  16.201  0.00  0.00    +0.000 HD
ENDBRANCH   1  13
BRANCH   6  17
ATOM     17  C   UNL     1      -0.442  10.461  18.871  0.00  0.00    +0.000 C 
BRANCH  17  18
ATOM     18  C   UNL     1      -1.115  11.832  18.959  0.00  0.00    +0.000 C 
ATOM     19  O   UNL     1      -0.932  12.681  18.088  0.00  0.00    +0.000 OA
BRANCH  18  20
ATOM     20  C   UNL     1      -2.000  12.153  20.124  0.00  0.00    +0.000 A 
ATOM     21  C   UNL     1      -3.329  12.573  19.961  0.00  0.00    +0.000 A 
ATOM     22  C   UNL     1      -4.139  12.798  21.075  0.00  0.00    +0.000 A 
ATOM     23  C   UNL     1      -3.616  12.625  22.350  0.00  0.00    +0.000 A 
ATOM     24  F   UNL     1      -4.398  12.838  23.415  0.00  0.00    +0.000 F 
ATOM     25  C   UNL     1      -2.296  12.230  22.533  0.00  0.00    +0.000 A 
ATOM     26  C   UNL     1      -1.486  11.991  21.421  0.00  0.00    +0.000 A 
ENDBRANCH  18  20
ENDBRANCH  17  18
ENDBRANCH   6  17
TORSDOF 4
ENDMDL
MODEL 8
REMARK VINA RESULT:      -6.6      4.673      8.176
REMARK  Name = 
REMARK  5 active torsions:
REMARK  status: ('A' for Active; 'I' for Inactive)
REMARK    1  A    between atoms: C_1  and  C_2
REMARK    2  A    between atoms: C_5  and  C_6
REMARK    3  A    between atoms: N_11  and  C_12
REMARK    4  A    between atoms: C_12  and  C_13
REMARK    5  A    between atoms: C_13  and  C_15
REMARK                            x       y       z     vdW  Elec       q    Type
REMARK                         _______ _______ _______ _____ _____    ______ ____
ROOT
ATOM      1  C   UNL     1       0.197  12.879  21.283  0.00  0.00    +0.000 C 
ATOM      2  O   UNL     1      -0.024  13.140  22.468  0.00  0.00    +0.000 OA
ATOM      3  N   UNL     1       0.417  11.564  20.863  0.00  0.00    +0.000 N 
ATOM      4  C   UNL     1       0.257  10.477  21.829  0.00  0.00    +0.000 C 
ATOM      5  C   UNL     1      -0.219   9.172  21.152  0.00  0.00    +0.000 C 
ATOM      6  N   UNL     1       0.521   8.778  19.932  0.00  0.00    +0.000 NA
ATOM      7  C   UNL     1       0.598   9.939  19.016  0.00  0.00    +0.000 C 
ATOM      8  C   UNL     1       1.176  11.204  19.663  0.00  0.00    +0.000 C 
ENDROOT
BRANCH   1  13
ATOM      9  C   UNL     1       1.238  16.945  18.347  0.00  0.00    +0.000 C 
ATOM     10  C   UNL     1       0.712  15.731  19.007  0.00  0.00    +0.000 A 
ATOM     11  N   UNL     1      -0.475  15.163  18.644  0.00  0.00    +0.000 N 
ATOM     12  N   UNL     1      -0.834  14.121  19.406  0.00  0.00    +0.000 NA
ATOM     13  C   UNL     1       0.203  13.943  20.257  0.00  0.00    +0.000 A 
ATOM     14  C   UNL     1       1.179  14.946  20.034  0.00  0.00    +0.000 A 
ATOM     15 BR   UNL     1       2.805  15.145  20.944  0.00  0.00    +0.000 Br
ATOM     16  H   UNL     1      -1.097  15.441  17.892  0.00  0.00    +0.000 HD
ENDBRANCH   1  13
BRANCH   6  17
ATOM     17  C   UNL     1       1.849   8.220  20.264  0.00  0.00    +0.000 C 
BRANCH  17  18
ATOM     18  C   UNL     1       2.367   7.297  19.160  0.00  0.00    +0.000 C 
ATOM     19  O   UNL     1       3.028   7.743  18.224  0.00  0.00    +0.000 OA
BRANCH  18  20
ATOM     20  C   UNL     1       2.061   5.831  19.211  0.00  0.00    +0.000 A 
ATOM     21  C   UNL     1       2.164   5.006  18.082  0.00  0.00    +0.000 A 
ATOM     22  C   UNL     1       1.934   3.634  18.188  0.00  0.00    +0.000 A 
ATOM     23  C   UNL     1       1.580   3.090  19.416  0.00  0.00    +0.000 A 
ATOM     24  F   UNL     1       1.365   1.773  19.514  0.00  0.00    +0.000 F 
ATOM     25  C   UNL     1       1.452   3.894  20.543  0.00  0.00    +0.000 A 
ATOM     26  C   UNL     1       1.695   5.266  20.443  0.00  0.00    +0.000 A 
ENDBRANCH  18  20
ENDBRANCH  17  18
ENDBRANCH   6  17
TORSDOF 4
ENDMDL
MODEL 9
REMARK VINA RESULT:      -6.6      3.372      4.258
REMARK  Name = 
REMARK  5 active torsions:
REMARK  status: ('A' for Active; 'I' for Inactive)
REMARK    1  A    between atoms: C_1  and  C_2
REMARK    2  A    between atoms: C_5  and  C_6
REMARK    3  A    between atoms: N_11  and  C_12
REMARK    4  A    between atoms: C_12  and  C_13
REMARK    5  A    between atoms: C_13  and  C_15
REMARK                            x       y       z     vdW  Elec       q    Type
REMARK                         _______ _______ _______ _____ _____    ______ ____
ROOT
ATOM      1  C   UNL     1       2.851   6.953  18.450  0.00  0.00    +0.000 C 
ATOM      2  O   UNL     1       3.422   7.264  17.401  0.00  0.00    +0.000 OA
ATOM      3  N   UNL     1       2.089   7.886  19.159  0.00  0.00    +0.000 N 
ATOM      4  C   UNL     1       1.869   9.210  18.576  0.00  0.00    +0.000 C 
ATOM      5  C   UNL     1       0.509   9.807  19.002  0.00  0.00    +0.000 C 
ATOM      6  N   UNL     1       0.205   9.737  20.449  0.00  0.00    +0.000 NA
ATOM      7  C   UNL     1       0.432   8.353  20.925  0.00  0.00    +0.000 C 
ATOM      8  C   UNL     1       1.826   7.804  20.598  0.00  0.00    +0.000 C 
ENDROOT
BRANCH   1  13
ATOM      9  C   UNL     1       4.324   2.320  20.063  0.00  0.00    +0.000 C 
ATOM     10  C   UNL     1       3.628   3.565  19.673  0.00  0.00    +0.000 A 
ATOM     11  N   UNL     1       2.267   3.662  19.659  0.00  0.00    +0.000 N 
ATOM     12  N   UNL     1       1.811   4.835  19.198  0.00  0.00    +0.000 NA
ATOM     13  C   UNL     1       2.923   5.574  18.976  0.00  0.00    +0.000 A 
ATOM     14  C   UNL     1       4.074   4.796  19.256  0.00  0.00    +0.000 A 
ATOM     15 BR   UNL     1       5.858   5.351  19.112  0.00  0.00    +0.000 Br
ATOM     16  H   UNL     1       1.587   2.963  19.941  0.00  0.00    +0.000 HD
ENDBRANCH   1  13
BRANCH   6  17
ATOM     17  C   UNL     1       0.979  10.740  21.211  0.00  0.00    +0.000 C 
BRANCH  17  18
ATOM     18  C   UNL     1       0.345  12.130  21.124  0.00  0.00    +0.000 C 
ATOM     19  O   UNL     1       0.991  13.093  20.714  0.00  0.00    +0.000 OA
BRANCH  18  20
ATOM     20  C   UNL     1      -1.078  12.327  21.550  0.00  0.00    +0.000 A 
ATOM     21  C   UNL     1      -2.070  12.772  20.664  0.00  0.00    +0.000 A 
ATOM     22  C   UNL     1      -3.396  12.879  21.086  0.00  0.00    +0.000 A 
ATOM     23  C   UNL     1      -3.727  12.562  22.397  0.00  0.00    +0.000 A 
ATOM     24  F   UNL     1      -5.000  12.661  22.796  0.00  0.00    +0.000 F 
ATOM     25  C   UNL     1      -2.755  12.138  23.296  0.00  0.00    +0.000 A 
ATOM     26  C   UNL     1      -1.429  12.018  22.874  0.00  0.00    +0.000 A 
ENDBRANCH  18  20
ENDBRANCH  17  18
ENDBRANCH   6  17
TORSDOF 4
ENDMDL
