MODEL 1
REMARK VINA RESULT:      -9.9      0.000      0.000
REMARK  Name = 
REMARK  2 active torsions:
REMARK  status: ('A' for Active; 'I' for Inactive)
REMARK    1  A    between atoms: C_1  and  C_17
REMARK    2  A    between atoms: C_4  and  C_5
REMARK                            x       y       z     vdW  Elec       q    Type
REMARK                         _______ _______ _______ _____ _____    ______ ____
ROOT
ATOM      1  C   UNL     1       4.406   3.684  16.641  0.00  0.00    +0.000 C 
ATOM      2  C   UNL     1       3.648   4.466  17.423  0.00  0.00    +0.000 C 
ATOM      3  C   UNL     1       3.715   5.969  17.594  0.00  0.00    +0.000 C 
ATOM      4  C   UNL     1       3.146   6.252  19.008  0.00  0.00    +0.000 C 
ATOM      5  C   UNL     1       2.347   5.001  19.287  0.00  0.00    +0.000 A 
ATOM      6  C   UNL     1       1.445   4.792  20.323  0.00  0.00    +0.000 A 
ATOM      7  C   UNL     1       0.789   3.564  20.395  0.00  0.00    +0.000 A 
ATOM      8  C   UNL     1       1.047   2.560  19.455  0.00  0.00    +0.000 A 
ATOM      9  C   UNL     1       1.986   2.765  18.438  0.00  0.00    +0.000 A 
ATOM     10  C   UNL     1       2.643   3.983  18.370  0.00  0.00    +0.000 A 
ENDROOT
BRANCH   4  11
ATOM     11  C   UNL     1       2.353   7.540  19.063  0.00  0.00    +0.000 A 
ATOM     12  C   UNL     1       1.792   7.995  20.269  0.00  0.00    +0.000 A 
ATOM     13  C   UNL     1       1.003   9.144  20.300  0.00  0.00    +0.000 A 
ATOM     14  C   UNL     1       0.775   9.861  19.129  0.00  0.00    +0.000 A 
ATOM     15  C   UNL     1       1.354   9.443  17.932  0.00  0.00    +0.000 A 
ATOM     16  C   UNL     1       2.142   8.290  17.898  0.00  0.00    +0.000 A 
ENDBRANCH   4  11
BRANCH   1  17
ATOM     17  C   UNL     1       5.455   4.187  15.759  0.00  0.00    +0.000 A 
ATOM     18  C   UNL     1       5.443   3.915  14.392  0.00  0.00    +0.000 A 
ATOM     19  C   UNL     1       6.478   4.388  13.587  0.00  0.00    +0.000 A 
ATOM     20  C   UNL     1       7.489   5.127  14.181  0.00  0.00    +0.000 A 
ATOM     21  N   UNL     1       7.533   5.419  15.498  0.00  0.00    +0.000 NA
ATOM     22  C   UNL     1       6.516   4.942  16.255  0.00  0.00    +0.000 A 
ENDBRANCH   1  17
TORSDOF 2
ENDMDL
MODEL 2
REMARK VINA RESULT:      -9.9      0.067      1.031
REMARK  Name = 
REMARK  2 active torsions:
REMARK  status: ('A' for Active; 'I' for Inactive)
REMARK    1  A    between atoms: C_1  and  C_17
REMARK    2  A    between atoms: C_4  and  C_5
REMARK                            x       y       z     vdW  Elec       q    Type
REMARK                         _______ _______ _______ _____ _____    ______ ____
ROOT
ATOM      1  C   UNL     1       4.445   3.660  16.664  0.00  0.00    +0.000 C 
ATOM      2  C   UNL     1       3.673   4.435  17.439  0.00  0.00    +0.000 C 
ATOM      3  C   UNL     1       3.703   5.941  17.588  0.00  0.00    +0.000 C 
ATOM      4  C   UNL     1       3.136   6.230  19.002  0.00  0.00    +0.000 C 
ATOM      5  C   UNL     1       2.369   4.965  19.304  0.00  0.00    +0.000 A 
ATOM      6  C   UNL     1       1.478   4.749  20.348  0.00  0.00    +0.000 A 
ATOM      7  C   UNL     1       0.853   3.506  20.442  0.00  0.00    +0.000 A 
ATOM      8  C   UNL     1       1.131   2.495  19.514  0.00  0.00    +0.000 A 
ATOM      9  C   UNL     1       2.059   2.708  18.488  0.00  0.00    +0.000 A 
ATOM     10  C   UNL     1       2.685   3.941  18.399  0.00  0.00    +0.000 A 
ENDROOT
BRANCH   4  11
ATOM     11  C   UNL     1       2.312   7.500  19.043  0.00  0.00    +0.000 A 
ATOM     12  C   UNL     1       2.116   8.274  17.887  0.00  0.00    +0.000 A 
ATOM     13  C   UNL     1       1.417   9.479  17.945  0.00  0.00    +0.000 A 
ATOM     14  C   UNL     1       0.892   9.919  19.157  0.00  0.00    +0.000 A 
ATOM     15  C   UNL     1       1.046   9.144  20.306  0.00  0.00    +0.000 A 
ATOM     16  C   UNL     1       1.750   7.939  20.250  0.00  0.00    +0.000 A 
ENDBRANCH   4  11
BRANCH   1  17
ATOM     17  C   UNL     1       5.476   4.176  15.768  0.00  0.00    +0.000 A 
ATOM     18  C   UNL     1       5.420   3.949  14.395  0.00  0.00    +0.000 A 
ATOM     19  C   UNL     1       6.439   4.432  13.575  0.00  0.00    +0.000 A 
ATOM     20  C   UNL     1       7.479   5.136  14.163  0.00  0.00    +0.000 A 
ATOM     21  N   UNL     1       7.564   5.385  15.486  0.00  0.00    +0.000 NA
ATOM     22  C   UNL     1       6.562   4.899  16.257  0.00  0.00    +0.000 A 
ENDBRANCH   1  17
TORSDOF 2
ENDMDL
MODEL 3
REMARK VINA RESULT:      -9.2      0.616      1.029
REMARK  Name = 
REMARK  2 active torsions:
REMARK  status: ('A' for Active; 'I' for Inactive)
REMARK    1  A    between atoms: C_1  and  C_17
REMARK    2  A    between atoms: C_4  and  C_5
REMARK                            x       y       z     vdW  Elec       q    Type
REMARK                         _______ _______ _______ _____ _____    ______ ____
ROOT
ATOM      1  C   UNL     1       4.374   3.550  16.716  0.00  0.00    +0.000 C 
ATOM      2  C   UNL     1       3.619   4.349  17.484  0.00  0.00    +0.000 C 
ATOM      3  C   UNL     1       3.708   5.851  17.650  0.00  0.00    +0.000 C 
ATOM      4  C   UNL     1       3.125   6.149  19.055  0.00  0.00    +0.000 C 
ATOM      5  C   UNL     1       2.301   4.913  19.328  0.00  0.00    +0.000 A 
ATOM      6  C   UNL     1       1.382   4.724  20.352  0.00  0.00    +0.000 A 
ATOM      7  C   UNL     1       0.704   3.507  20.421  0.00  0.00    +0.000 A 
ATOM      8  C   UNL     1       0.958   2.495  19.488  0.00  0.00    +0.000 A 
ATOM      9  C   UNL     1       1.914   2.679  18.483  0.00  0.00    +0.000 A 
ATOM     10  C   UNL     1       2.592   3.886  18.419  0.00  0.00    +0.000 A 
ENDROOT
BRANCH   4  11
ATOM     11  C   UNL     1       2.353   7.451  19.094  0.00  0.00    +0.000 A 
ATOM     12  C   UNL     1       1.797   7.928  20.293  0.00  0.00    +0.000 A 
ATOM     13  C   UNL     1       1.027   9.090  20.310  0.00  0.00    +0.000 A 
ATOM     14  C   UNL     1       0.814   9.798  19.131  0.00  0.00    +0.000 A 
ATOM     15  C   UNL     1       1.389   9.358  17.940  0.00  0.00    +0.000 A 
ATOM     16  C   UNL     1       2.157   8.192  17.920  0.00  0.00    +0.000 A 
ENDBRANCH   4  11
BRANCH   1  17
ATOM     17  C   UNL     1       5.443   4.031  15.846  0.00  0.00    +0.000 A 
ATOM     18  C   UNL     1       6.574   4.656  16.367  0.00  0.00    +0.000 A 
ATOM     19  C   UNL     1       7.560   5.128  15.502  0.00  0.00    +0.000 A 
ATOM     20  C   UNL     1       7.381   4.949  14.139  0.00  0.00    +0.000 A 
ATOM     21  N   UNL     1       6.305   4.342  13.596  0.00  0.00    +0.000 NA
ATOM     22  C   UNL     1       5.362   3.898  14.461  0.00  0.00    +0.000 A 
ENDBRANCH   1  17
TORSDOF 2
ENDMDL
MODEL 4
REMARK VINA RESULT:      -9.1      0.615      1.457
REMARK  Name = 
REMARK  2 active torsions:
REMARK  status: ('A' for Active; 'I' for Inactive)
REMARK    1  A    between atoms: C_1  and  C_17
REMARK    2  A    between atoms: C_4  and  C_5
REMARK                            x       y       z     vdW  Elec       q    Type
REMARK                         _______ _______ _______ _____ _____    ______ ____
ROOT
ATOM      1  C   UNL     1       4.389   3.546  16.744  0.00  0.00    +0.000 C 
ATOM      2  C   UNL     1       3.622   4.341  17.504  0.00  0.00    +0.000 C 
ATOM      3  C   UNL     1       3.691   5.845  17.657  0.00  0.00    +0.000 C 
ATOM      4  C   UNL     1       3.102   6.148  19.059  0.00  0.00    +0.000 C 
ATOM      5  C   UNL     1       2.295   4.903  19.342  0.00  0.00    +0.000 A 
ATOM      6  C   UNL     1       1.376   4.710  20.366  0.00  0.00    +0.000 A 
ATOM      7  C   UNL     1       0.715   3.485  20.444  0.00  0.00    +0.000 A 
ATOM      8  C   UNL     1       0.985   2.468  19.521  0.00  0.00    +0.000 A 
ATOM      9  C   UNL     1       1.940   2.657  18.515  0.00  0.00    +0.000 A 
ATOM     10  C   UNL     1       2.601   3.873  18.442  0.00  0.00    +0.000 A 
ENDROOT
BRANCH   4  11
ATOM     11  C   UNL     1       2.312   7.439  19.085  0.00  0.00    +0.000 A 
ATOM     12  C   UNL     1       2.137   8.205  17.921  0.00  0.00    +0.000 A 
ATOM     13  C   UNL     1       1.471   9.429  17.965  0.00  0.00    +0.000 A 
ATOM     14  C   UNL     1       0.958   9.897  19.171  0.00  0.00    +0.000 A 
ATOM     15  C   UNL     1       1.091   9.131  20.329  0.00  0.00    +0.000 A 
ATOM     16  C   UNL     1       1.762   7.907  20.287  0.00  0.00    +0.000 A 
ENDBRANCH   4  11
BRANCH   1  17
ATOM     17  C   UNL     1       5.453   4.035  15.872  0.00  0.00    +0.000 A 
ATOM     18  C   UNL     1       6.587   4.655  16.391  0.00  0.00    +0.000 A 
ATOM     19  C   UNL     1       7.568   5.134  15.523  0.00  0.00    +0.000 A 
ATOM     20  C   UNL     1       7.380   4.967  14.160  0.00  0.00    +0.000 A 
ATOM     21  N   UNL     1       6.302   4.364  13.619  0.00  0.00    +0.000 NA
ATOM     22  C   UNL     1       5.364   3.913  14.486  0.00  0.00    +0.000 A 
ENDBRANCH   1  17
TORSDOF 2
ENDMDL
MODEL 5
REMARK VINA RESULT:      -8.8      2.566      6.344
REMARK  Name = 
REMARK  2 active torsions:
REMARK  status: ('A' for Active; 'I' for Inactive)
REMARK    1  A    between atoms: C_1  and  C_17
REMARK    2  A    between atoms: C_4  and  C_5
REMARK                            x       y       z     vdW  Elec       q    Type
REMARK                         _______ _______ _______ _____ _____    ______ ____
ROOT
ATOM      1  C   UNL     1       1.088   7.084  20.777  0.00  0.00    +0.000 C 
ATOM      2  C   UNL     1       1.930   6.323  20.064  0.00  0.00    +0.000 C 
ATOM      3  C   UNL     1       2.974   6.764  19.060  0.00  0.00    +0.000 C 
ATOM      4  C   UNL     1       3.160   5.561  18.098  0.00  0.00    +0.000 C 
ATOM      5  C   UNL     1       2.632   4.410  18.920  0.00  0.00    +0.000 A 
ATOM      6  C   UNL     1       2.750   3.054  18.644  0.00  0.00    +0.000 A 
ATOM      7  C   UNL     1       2.206   2.141  19.547  0.00  0.00    +0.000 A 
ATOM      8  C   UNL     1       1.542   2.584  20.696  0.00  0.00    +0.000 A 
ATOM      9  C   UNL     1       1.394   3.952  20.948  0.00  0.00    +0.000 A 
ATOM     10  C   UNL     1       1.929   4.859  20.047  0.00  0.00    +0.000 A 
ENDROOT
BRANCH   4  11
ATOM     11  C   UNL     1       4.594   5.410  17.637  0.00  0.00    +0.000 A 
ATOM     12  C   UNL     1       4.900   5.188  16.283  0.00  0.00    +0.000 A 
ATOM     13  C   UNL     1       6.216   4.978  15.874  0.00  0.00    +0.000 A 
ATOM     14  C   UNL     1       7.246   5.000  16.811  0.00  0.00    +0.000 A 
ATOM     15  C   UNL     1       6.962   5.255  18.152  0.00  0.00    +0.000 A 
ATOM     16  C   UNL     1       5.644   5.461  18.564  0.00  0.00    +0.000 A 
ENDBRANCH   4  11
BRANCH   1  17
ATOM     17  C   UNL     1       1.061   8.542  20.718  0.00  0.00    +0.000 A 
ATOM     18  C   UNL     1       0.970   9.216  19.502  0.00  0.00    +0.000 A 
ATOM     19  C   UNL     1       0.976  10.610  19.485  0.00  0.00    +0.000 A 
ATOM     20  C   UNL     1       1.067  11.283  20.694  0.00  0.00    +0.000 A 
ATOM     21  N   UNL     1       1.149  10.668  21.892  0.00  0.00    +0.000 NA
ATOM     22  C   UNL     1       1.145   9.313  21.876  0.00  0.00    +0.000 A 
ENDBRANCH   1  17
TORSDOF 2
ENDMDL
MODEL 6
REMARK VINA RESULT:      -8.7      2.605      6.268
REMARK  Name = 
REMARK  2 active torsions:
REMARK  status: ('A' for Active; 'I' for Inactive)
REMARK    1  A    between atoms: C_1  and  C_17
REMARK    2  A    between atoms: C_4  and  C_5
REMARK                            x       y       z     vdW  Elec       q    Type
REMARK                         _______ _______ _______ _____ _____    ______ ____
ROOT
ATOM      1  C   UNL     1       1.059   7.126  20.768  0.00  0.00    +0.000 C 
ATOM      2  C   UNL     1       1.909   6.384  20.045  0.00  0.00    +0.000 C 
ATOM      3  C   UNL     1       2.951   6.850  19.051  0.00  0.00    +0.000 C 
ATOM      4  C   UNL     1       3.150   5.666  18.070  0.00  0.00    +0.000 C 
ATOM      5  C   UNL     1       2.630   4.497  18.872  0.00  0.00    +0.000 A 
ATOM      6  C   UNL     1       2.760   3.146  18.573  0.00  0.00    +0.000 A 
ATOM      7  C   UNL     1       2.222   2.214  19.459  0.00  0.00    +0.000 A 
ATOM      8  C   UNL     1       1.551   2.632  20.614  0.00  0.00    +0.000 A 
ATOM      9  C   UNL     1       1.390   3.994  20.888  0.00  0.00    +0.000 A 
ATOM     10  C   UNL     1       1.920   4.921  20.004  0.00  0.00    +0.000 A 
ENDROOT
BRANCH   4  11
ATOM     11  C   UNL     1       4.586   5.534  17.610  0.00  0.00    +0.000 A 
ATOM     12  C   UNL     1       5.646   5.541  18.533  0.00  0.00    +0.000 A 
ATOM     13  C   UNL     1       6.970   5.492  18.100  0.00  0.00    +0.000 A 
ATOM     14  C   UNL     1       7.252   5.421  16.739  0.00  0.00    +0.000 A 
ATOM     15  C   UNL     1       6.211   5.376  15.812  0.00  0.00    +0.000 A 
ATOM     16  C   UNL     1       4.884   5.430  16.244  0.00  0.00    +0.000 A 
ENDBRANCH   4  11
BRANCH   1  17
ATOM     17  C   UNL     1       1.020   8.585  20.734  0.00  0.00    +0.000 A 
ATOM     18  C   UNL     1       0.927   9.278  19.529  0.00  0.00    +0.000 A 
ATOM     19  C   UNL     1       0.922  10.672  19.535  0.00  0.00    +0.000 A 
ATOM     20  C   UNL     1       1.002  11.325  20.756  0.00  0.00    +0.000 A 
ATOM     21  N   UNL     1       1.083  10.691  21.944  0.00  0.00    +0.000 NA
ATOM     22  C   UNL     1       1.091   9.337  21.905  0.00  0.00    +0.000 A 
ENDBRANCH   1  17
TORSDOF 2
ENDMDL
MODEL 7
REMARK VINA RESULT:      -8.7      2.761      6.590
REMARK  Name = 
REMARK  2 active torsions:
REMARK  status: ('A' for Active; 'I' for Inactive)
REMARK    1  A    between atoms: C_1  and  C_17
REMARK    2  A    between atoms: C_4  and  C_5
REMARK                            x       y       z     vdW  Elec       q    Type
REMARK                         _______ _______ _______ _____ _____    ______ ____
ROOT
ATOM      1  C   UNL     1       2.282   9.161  17.684  0.00  0.00    +0.000 C 
ATOM      2  C   UNL     1       2.536   7.917  18.116  0.00  0.00    +0.000 C 
ATOM      3  C   UNL     1       1.848   7.149  19.224  0.00  0.00    +0.000 C 
ATOM      4  C   UNL     1       2.896   6.127  19.734  0.00  0.00    +0.000 C 
ATOM      5  C   UNL     1       3.854   6.043  18.570  0.00  0.00    +0.000 A 
ATOM      6  C   UNL     1       4.873   5.117  18.383  0.00  0.00    +0.000 A 
ATOM      7  C   UNL     1       5.640   5.197  17.221  0.00  0.00    +0.000 A 
ATOM      8  C   UNL     1       5.397   6.200  16.274  0.00  0.00    +0.000 A 
ATOM      9  C   UNL     1       4.394   7.152  16.488  0.00  0.00    +0.000 A 
ATOM     10  C   UNL     1       3.637   7.075  17.646  0.00  0.00    +0.000 A 
ENDROOT
BRANCH   4  11
ATOM     11  C   UNL     1       2.268   4.810  20.139  0.00  0.00    +0.000 A 
ATOM     12  C   UNL     1       2.503   4.255  21.408  0.00  0.00    +0.000 A 
ATOM     13  C   UNL     1       1.981   3.008  21.750  0.00  0.00    +0.000 A 
ATOM     14  C   UNL     1       1.204   2.307  20.832  0.00  0.00    +0.000 A 
ATOM     15  C   UNL     1       0.931   2.861  19.582  0.00  0.00    +0.000 A 
ATOM     16  C   UNL     1       1.457   4.107  19.237  0.00  0.00    +0.000 A 
ENDBRANCH   4  11
BRANCH   1  17
ATOM     17  C   UNL     1       1.222  10.009  18.222  0.00  0.00    +0.000 A 
ATOM     18  C   UNL     1      -0.118   9.763  17.933  0.00  0.00    +0.000 A 
ATOM     19  C   UNL     1      -1.100  10.613  18.442  0.00  0.00    +0.000 A 
ATOM     20  C   UNL     1      -0.701  11.679  19.234  0.00  0.00    +0.000 A 
ATOM     21  N   UNL     1       0.585  11.945  19.544  0.00  0.00    +0.000 NA
ATOM     22  C   UNL     1       1.515  11.105  19.031  0.00  0.00    +0.000 A 
ENDBRANCH   1  17
TORSDOF 2
ENDMDL
MODEL 8
REMARK VINA RESULT:      -8.6      2.773      6.695
REMARK  Name = 
REMARK  2 active torsions:
REMARK  status: ('A' for Active; 'I' for Inactive)
REMARK    1  A    between atoms: C_1  and  C_17
REMARK    2  A    between atoms: C_4  and  C_5
REMARK                            x       y       z     vdW  Elec       q    Type
REMARK                         _______ _______ _______ _____ _____    ______ ____
ROOT
ATOM      1  C   UNL     1       2.212   9.187  17.725  0.00  0.00    +0.000 C 
ATOM      2  C   UNL     1       2.497   7.940  18.124  0.00  0.00    +0.000 C 
ATOM      3  C   UNL     1       1.840   7.132  19.223  0.00  0.00    +0.000 C 
ATOM      4  C   UNL     1       2.916   6.120  19.696  0.00  0.00    +0.000 C 
ATOM      5  C   UNL     1       3.858   6.082  18.516  0.00  0.00    +0.000 A 
ATOM      6  C   UNL     1       4.893   5.182  18.294  0.00  0.00    +0.000 A 
ATOM      7  C   UNL     1       5.641   5.305  17.123  0.00  0.00    +0.000 A 
ATOM      8  C   UNL     1       5.365   6.323  16.204  0.00  0.00    +0.000 A 
ATOM      9  C   UNL     1       4.347   7.249  16.454  0.00  0.00    +0.000 A 
ATOM     10  C   UNL     1       3.607   7.131  17.620  0.00  0.00    +0.000 A 
ENDROOT
BRANCH   4  11
ATOM     11  C   UNL     1       2.319   4.782  20.078  0.00  0.00    +0.000 A 
ATOM     12  C   UNL     1       1.524   4.058  19.174  0.00  0.00    +0.000 A 
ATOM     13  C   UNL     1       0.919   2.862  19.555  0.00  0.00    +0.000 A 
ATOM     14  C   UNL     1       1.112   2.366  20.841  0.00  0.00    +0.000 A 
ATOM     15  C   UNL     1       1.928   3.054  21.739  0.00  0.00    +0.000 A 
ATOM     16  C   UNL     1       2.531   4.255  21.360  0.00  0.00    +0.000 A 
ENDBRANCH   4  11
BRANCH   1  17
ATOM     17  C   UNL     1       1.143  10.001  18.298  0.00  0.00    +0.000 A 
ATOM     18  C   UNL     1      -0.187   9.815  17.925  0.00  0.00    +0.000 A 
ATOM     19  C   UNL     1      -1.175  10.632  18.472  0.00  0.00    +0.000 A 
ATOM     20  C   UNL     1      -0.796  11.605  19.384  0.00  0.00    +0.000 A 
ATOM     21  N   UNL     1       0.478  11.810  19.777  0.00  0.00    +0.000 NA
ATOM     22  C   UNL     1       1.417  11.004  19.225  0.00  0.00    +0.000 A 
ENDBRANCH   1  17
TORSDOF 2
ENDMDL
MODEL 9
REMARK VINA RESULT:      -8.4      2.800      6.703
REMARK  Name = 
REMARK  2 active torsions:
REMARK  status: ('A' for Active; 'I' for Inactive)
REMARK    1  A    between atoms: C_1  and  C_17
REMARK    2  A    between atoms: C_4  and  C_5
REMARK                            x       y       z     vdW  Elec       q    Type
REMARK                         _______ _______ _______ _____ _____    ______ ____
ROOT
ATOM      1  C   UNL     1       2.224   9.229  17.715  0.00  0.00    +0.000 C 
ATOM      2  C   UNL     1       2.485   7.980  18.126  0.00  0.00    +0.000 C 
ATOM      3  C   UNL     1       1.806   7.192  19.226  0.00  0.00    +0.000 C 
ATOM      4  C   UNL     1       2.862   6.166  19.713  0.00  0.00    +0.000 C 
ATOM      5  C   UNL     1       3.812   6.103  18.541  0.00  0.00    +0.000 A 
ATOM      6  C   UNL     1       4.832   5.183  18.333  0.00  0.00    +0.000 A 
ATOM      7  C   UNL     1       5.591   5.285  17.167  0.00  0.00    +0.000 A 
ATOM      8  C   UNL     1       5.339   6.301  16.238  0.00  0.00    +0.000 A 
ATOM      9  C   UNL     1       4.335   7.246  16.474  0.00  0.00    +0.000 A 
ATOM     10  C   UNL     1       3.585   7.149  17.635  0.00  0.00    +0.000 A 
ENDROOT
BRANCH   4  11
ATOM     11  C   UNL     1       2.240   4.841  20.101  0.00  0.00    +0.000 A 
ATOM     12  C   UNL     1       2.456   4.284  21.373  0.00  0.00    +0.000 A 
ATOM     13  C   UNL     1       1.941   3.031  21.701  0.00  0.00    +0.000 A 
ATOM     14  C   UNL     1       1.190   2.324  20.766  0.00  0.00    +0.000 A 
ATOM     15  C   UNL     1       0.936   2.878  19.512  0.00  0.00    +0.000 A 
ATOM     16  C   UNL     1       1.455   4.132  19.181  0.00  0.00    +0.000 A 
ENDBRANCH   4  11
BRANCH   1  17
ATOM     17  C   UNL     1       1.166  10.065  18.274  0.00  0.00    +0.000 A 
ATOM     18  C   UNL     1       1.450  11.077  19.189  0.00  0.00    +0.000 A 
ATOM     19  C   UNL     1       0.408  11.835  19.723  0.00  0.00    +0.000 A 
ATOM     20  C   UNL     1      -0.886  11.557  19.312  0.00  0.00    +0.000 A 
ATOM     21  N   UNL     1      -1.201  10.593  18.422  0.00  0.00    +0.000 NA
ATOM     22  C   UNL     1      -0.169   9.870  17.925  0.00  0.00    +0.000 A 
ENDBRANCH   1  17
TORSDOF 2
ENDMDL
