MODEL 1
REMARK VINA RESULT:      -7.8      0.000      0.000
REMARK  Name = 
REMARK  5 active torsions:
REMARK  status: ('A' for Active; 'I' for Inactive)
REMARK    1  A    between atoms: C_1  and  N_2
REMARK    2  A    between atoms: N_2  and  C_3
REMARK    3  A    between atoms: N_2  and  C_10
REMARK    4  A    between atoms: C_3  and  C_4
REMARK    5  A    between atoms: C_13  and  C_15
REMARK                            x       y       z     vdW  Elec       q    Type
REMARK                         _______ _______ _______ _____ _____    ______ ____
ROOT
ATOM      1  C   UNL     1       3.551   4.592  20.162  0.00  0.00    +0.000 C 
ATOM      2  C   UNL     1       4.834   5.237  19.590  0.00  0.00    +0.000 C 
ATOM      3  N   UNL     1       5.112   4.553  18.328  0.00  0.00    +0.000 N 
ATOM      4  C   UNL     1       6.054   4.965  17.379  0.00  0.00    +0.000 C 
ATOM      5  O   UNL     1       6.176   4.345  16.321  0.00  0.00    +0.000 OA
ATOM      6  C   UNL     1       4.446   3.244  18.271  0.00  0.00    +0.000 C 
ATOM      7  C   UNL     1       3.493   3.054  17.087  0.00  0.00    +0.000 C 
ATOM      8  C   UNL     1       2.199   2.282  17.394  0.00  0.00    +0.000 C 
ATOM      9  C   UNL     1       1.720   2.259  18.845  0.00  0.00    +0.000 C 
ATOM     10  O   UNL     1       2.768   2.161  19.785  0.00  0.00    +0.000 OA
ATOM     11  C   UNL     1       3.791   3.125  19.655  0.00  0.00    +0.000 C 
ENDROOT
BRANCH   4  12
ATOM     12  C   UNL     1       6.846   6.152  17.670  0.00  0.00    +0.000 A 
ATOM     13  C   UNL     1       7.833   6.375  18.619  0.00  0.00    +0.000 A 
ATOM     14  C   UNL     1       8.277   7.711  18.459  0.00  0.00    +0.000 A 
ATOM     15  C   UNL     1       7.506   8.251  17.457  0.00  0.00    +0.000 A 
ATOM     16  O   UNL     1       6.635   7.325  16.984  0.00  0.00    +0.000 OA
ENDBRANCH   4  12
BRANCH   1  18
ATOM     17  C   UNL     1       1.134   4.652  20.502  0.00  0.00    +0.000 C 
ATOM     18  N   UNL     1       2.287   5.364  19.919  0.00  0.00    +0.000 NA
BRANCH  18  19
ATOM     19  C   UNL     1       2.301   6.736  20.435  0.00  0.00    +0.000 C 
BRANCH  19  20
ATOM     20  C   UNL     1       1.952   7.852  19.483  0.00  0.00    +0.000 A 
ATOM     21  C   UNL     1       1.216   8.945  19.961  0.00  0.00    +0.000 A 
ATOM     22  C   UNL     1       1.009  10.054  19.151  0.00  0.00    +0.000 A 
ATOM     23  C   UNL     1       1.553  10.043  17.878  0.00  0.00    +0.000 A 
ATOM     24  N   UNL     1       2.281   9.020  17.383  0.00  0.00    +0.000 NA
ATOM     25  C   UNL     1       2.476   7.955  18.199  0.00  0.00    +0.000 A 
ENDBRANCH  19  20
ENDBRANCH  18  19
ENDBRANCH   1  18
TORSDOF 4
ENDMDL
MODEL 2
REMARK VINA RESULT:      -7.4      1.037      1.359
REMARK  Name = 
REMARK  5 active torsions:
REMARK  status: ('A' for Active; 'I' for Inactive)
REMARK    1  A    between atoms: C_1  and  N_2
REMARK    2  A    between atoms: N_2  and  C_3
REMARK    3  A    between atoms: N_2  and  C_10
REMARK    4  A    between atoms: C_3  and  C_4
REMARK    5  A    between atoms: C_13  and  C_15
REMARK                            x       y       z     vdW  Elec       q    Type
REMARK                         _______ _______ _______ _____ _____    ______ ____
ROOT
ATOM      1  C   UNL     1       3.421   4.956  20.031  0.00  0.00    +0.000 C 
ATOM      2  C   UNL     1       4.768   5.532  19.538  0.00  0.00    +0.000 C 
ATOM      3  N   UNL     1       5.207   4.671  18.441  0.00  0.00    +0.000 N 
ATOM      4  C   UNL     1       6.265   4.953  17.570  0.00  0.00    +0.000 C 
ATOM      5  O   UNL     1       6.524   4.183  16.643  0.00  0.00    +0.000 OA
ATOM      6  C   UNL     1       4.554   3.355  18.498  0.00  0.00    +0.000 C 
ATOM      7  C   UNL     1       3.764   2.970  17.244  0.00  0.00    +0.000 C 
ATOM      8  C   UNL     1       2.441   2.227  17.496  0.00  0.00    +0.000 C 
ATOM      9  C   UNL     1       1.777   2.415  18.859  0.00  0.00    +0.000 C 
ATOM     10  O   UNL     1       2.693   2.481  19.931  0.00  0.00    +0.000 OA
ATOM     11  C   UNL     1       3.724   3.434  19.788  0.00  0.00    +0.000 C 
ENDROOT
BRANCH   4  12
ATOM     12  C   UNL     1       7.013   6.185  17.777  0.00  0.00    +0.000 A 
ATOM     13  C   UNL     1       7.983   6.514  18.712  0.00  0.00    +0.000 A 
ATOM     14  C   UNL     1       8.382   7.849  18.455  0.00  0.00    +0.000 A 
ATOM     15  C   UNL     1       7.601   8.285  17.411  0.00  0.00    +0.000 A 
ATOM     16  O   UNL     1       6.767   7.296  17.004  0.00  0.00    +0.000 OA
ENDBRANCH   4  12
BRANCH   1  18
ATOM     17  C   UNL     1       1.113   5.595  20.507  0.00  0.00    +0.000 C 
ATOM     18  N   UNL     1       2.199   5.657  19.512  0.00  0.00    +0.000 NA
BRANCH  18  19
ATOM     19  C   UNL     1       2.413   7.058  19.137  0.00  0.00    +0.000 C 
BRANCH  19  20
ATOM     20  C   UNL     1       1.673   8.118  19.915  0.00  0.00    +0.000 A 
ATOM     21  C   UNL     1       1.711   8.081  21.315  0.00  0.00    +0.000 A 
ATOM     22  C   UNL     1       1.169   9.125  22.055  0.00  0.00    +0.000 A 
ATOM     23  C   UNL     1       0.606  10.186  21.369  0.00  0.00    +0.000 A 
ATOM     24  N   UNL     1       0.561  10.271  20.023  0.00  0.00    +0.000 NA
ATOM     25  C   UNL     1       1.107   9.244  19.327  0.00  0.00    +0.000 A 
ENDBRANCH  19  20
ENDBRANCH  18  19
ENDBRANCH   1  18
TORSDOF 4
ENDMDL
MODEL 3
REMARK VINA RESULT:      -7.4      2.277      5.203
REMARK  Name = 
REMARK  5 active torsions:
REMARK  status: ('A' for Active; 'I' for Inactive)
REMARK    1  A    between atoms: C_1  and  N_2
REMARK    2  A    between atoms: N_2  and  C_3
REMARK    3  A    between atoms: N_2  and  C_10
REMARK    4  A    between atoms: C_3  and  C_4
REMARK    5  A    between atoms: C_13  and  C_15
REMARK                            x       y       z     vdW  Elec       q    Type
REMARK                         _______ _______ _______ _____ _____    ______ ____
ROOT
ATOM      1  C   UNL     1       2.092   4.119  18.027  0.00  0.00    +0.000 C 
ATOM      2  C   UNL     1       1.837   5.638  18.157  0.00  0.00    +0.000 C 
ATOM      3  N   UNL     1       1.694   5.911  19.587  0.00  0.00    +0.000 N 
ATOM      4  C   UNL     1       1.667   7.185  20.165  0.00  0.00    +0.000 C 
ATOM      5  O   UNL     1       1.592   7.306  21.389  0.00  0.00    +0.000 OA
ATOM      6  C   UNL     1       1.348   4.692  20.333  0.00  0.00    +0.000 C 
ATOM      7  C   UNL     1       2.323   4.320  21.453  0.00  0.00    +0.000 C 
ATOM      8  C   UNL     1       2.605   2.817  21.616  0.00  0.00    +0.000 C 
ATOM      9  C   UNL     1       2.372   1.921  20.399  0.00  0.00    +0.000 C 
ATOM     10  O   UNL     1       1.242   2.287  19.636  0.00  0.00    +0.000 OA
ATOM     11  C   UNL     1       1.199   3.637  19.227  0.00  0.00    +0.000 C 
ENDROOT
BRANCH   4  12
ATOM     12  C   UNL     1       1.762   8.339  19.283  0.00  0.00    +0.000 A 
ATOM     13  C   UNL     1       2.563   8.572  18.175  0.00  0.00    +0.000 A 
ATOM     14  C   UNL     1       2.241   9.862  17.686  0.00  0.00    +0.000 A 
ATOM     15  C   UNL     1       1.299  10.373  18.547  0.00  0.00    +0.000 A 
ATOM     16  O   UNL     1       1.013   9.469  19.517  0.00  0.00    +0.000 OA
ENDBRANCH   4  12
BRANCH   1  18
ATOM     17  C   UNL     1       3.622   2.429  17.154  0.00  0.00    +0.000 C 
ATOM     18  N   UNL     1       3.530   3.727  17.847  0.00  0.00    +0.000 NA
BRANCH  18  19
ATOM     19  C   UNL     1       4.342   4.707  17.119  0.00  0.00    +0.000 C 
BRANCH  19  20
ATOM     20  C   UNL     1       5.630   5.168  17.755  0.00  0.00    +0.000 A 
ATOM     21  C   UNL     1       6.444   6.072  17.059  0.00  0.00    +0.000 A 
ATOM     22  C   UNL     1       7.555   6.630  17.679  0.00  0.00    +0.000 A 
ATOM     23  C   UNL     1       7.819   6.271  18.989  0.00  0.00    +0.000 A 
ATOM     24  N   UNL     1       7.055   5.417  19.702  0.00  0.00    +0.000 NA
ATOM     25  C   UNL     1       5.971   4.897  19.076  0.00  0.00    +0.000 A 
ENDBRANCH  19  20
ENDBRANCH  18  19
ENDBRANCH   1  18
TORSDOF 4
ENDMDL
MODEL 4
REMARK VINA RESULT:      -7.3      0.933      1.182
REMARK  Name = 
REMARK  5 active torsions:
REMARK  status: ('A' for Active; 'I' for Inactive)
REMARK    1  A    between atoms: C_1  and  N_2
REMARK    2  A    between atoms: N_2  and  C_3
REMARK    3  A    between atoms: N_2  and  C_10
REMARK    4  A    between atoms: C_3  and  C_4
REMARK    5  A    between atoms: C_13  and  C_15
REMARK                            x       y       z     vdW  Elec       q    Type
REMARK                         _______ _______ _______ _____ _____    ______ ____
ROOT
ATOM      1  C   UNL     1       3.479   4.880  19.997  0.00  0.00    +0.000 C 
ATOM      2  C   UNL     1       4.823   5.476  19.518  0.00  0.00    +0.000 C 
ATOM      3  N   UNL     1       5.282   4.625  18.420  0.00  0.00    +0.000 N 
ATOM      4  C   UNL     1       6.343   4.925  17.559  0.00  0.00    +0.000 C 
ATOM      5  O   UNL     1       6.619   4.164  16.631  0.00  0.00    +0.000 OA
ATOM      6  C   UNL     1       4.645   3.301  18.466  0.00  0.00    +0.000 C 
ATOM      7  C   UNL     1       3.869   2.912  17.204  0.00  0.00    +0.000 C 
ATOM      8  C   UNL     1       2.554   2.152  17.441  0.00  0.00    +0.000 C 
ATOM      9  C   UNL     1       1.877   2.324  18.800  0.00  0.00    +0.000 C 
ATOM     10  O   UNL     1       2.783   2.396  19.879  0.00  0.00    +0.000 OA
ATOM     11  C   UNL     1       3.803   3.363  19.749  0.00  0.00    +0.000 C 
ENDROOT
BRANCH   4  12
ATOM     12  C   UNL     1       7.073   6.166  17.778  0.00  0.00    +0.000 A 
ATOM     13  C   UNL     1       8.004   6.514  18.745  0.00  0.00    +0.000 A 
ATOM     14  C   UNL     1       8.403   7.848  18.487  0.00  0.00    +0.000 A 
ATOM     15  C   UNL     1       7.660   8.266  17.408  0.00  0.00    +0.000 A 
ATOM     16  O   UNL     1       6.849   7.265  16.982  0.00  0.00    +0.000 OA
ENDBRANCH   4  12
BRANCH   1  18
ATOM     17  C   UNL     1       1.377   5.973  20.587  0.00  0.00    +0.000 C 
ATOM     18  N   UNL     1       2.253   5.568  19.472  0.00  0.00    +0.000 NA
BRANCH  18  19
ATOM     19  C   UNL     1       2.523   6.743  18.637  0.00  0.00    +0.000 C 
BRANCH  19  20
ATOM     20  C   UNL     1       1.933   8.064  19.064  0.00  0.00    +0.000 A 
ATOM     21  C   UNL     1       1.494   8.959  18.079  0.00  0.00    +0.000 A 
ATOM     22  C   UNL     1       0.811  10.113  18.442  0.00  0.00    +0.000 A 
ATOM     23  C   UNL     1       0.578  10.338  19.787  0.00  0.00    +0.000 A 
ATOM     24  N   UNL     1       0.969   9.496  20.767  0.00  0.00    +0.000 NA
ATOM     25  C   UNL     1       1.624   8.373  20.384  0.00  0.00    +0.000 A 
ENDBRANCH  19  20
ENDBRANCH  18  19
ENDBRANCH   1  18
TORSDOF 4
ENDMDL
MODEL 5
REMARK VINA RESULT:      -7.1      2.291      5.065
REMARK  Name = 
REMARK  5 active torsions:
REMARK  status: ('A' for Active; 'I' for Inactive)
REMARK    1  A    between atoms: C_1  and  N_2
REMARK    2  A    between atoms: N_2  and  C_3
REMARK    3  A    between atoms: N_2  and  C_10
REMARK    4  A    between atoms: C_3  and  C_4
REMARK    5  A    between atoms: C_13  and  C_15
REMARK                            x       y       z     vdW  Elec       q    Type
REMARK                         _______ _______ _______ _____ _____    ______ ____
ROOT
ATOM      1  C   UNL     1       2.160   4.026  18.004  0.00  0.00    +0.000 C 
ATOM      2  C   UNL     1       1.912   5.548  18.110  0.00  0.00    +0.000 C 
ATOM      3  N   UNL     1       1.735   5.838  19.533  0.00  0.00    +0.000 N 
ATOM      4  C   UNL     1       1.702   7.119  20.095  0.00  0.00    +0.000 C 
ATOM      5  O   UNL     1       1.598   7.256  21.315  0.00  0.00    +0.000 OA
ATOM      6  C   UNL     1       1.363   4.631  20.284  0.00  0.00    +0.000 C 
ATOM      7  C   UNL     1       2.309   4.266  21.432  0.00  0.00    +0.000 C 
ATOM      8  C   UNL     1       2.578   2.764  21.619  0.00  0.00    +0.000 C 
ATOM      9  C   UNL     1       2.368   1.855  20.408  0.00  0.00    +0.000 C 
ATOM     10  O   UNL     1       1.260   2.218  19.613  0.00  0.00    +0.000 OA
ATOM     11  C   UNL     1       1.235   3.563  19.187  0.00  0.00    +0.000 C 
ENDROOT
BRANCH   4  12
ATOM     12  C   UNL     1       1.826   8.263  19.202  0.00  0.00    +0.000 A 
ATOM     13  C   UNL     1       2.629   8.464  18.089  0.00  0.00    +0.000 A 
ATOM     14  C   UNL     1       2.341   9.758  17.589  0.00  0.00    +0.000 A 
ATOM     15  C   UNL     1       1.416  10.301  18.449  0.00  0.00    +0.000 A 
ATOM     16  O   UNL     1       1.109   9.414  19.428  0.00  0.00    +0.000 OA
ENDBRANCH   4  12
BRANCH   1  18
ATOM     17  C   UNL     1       3.699   2.186  17.551  0.00  0.00    +0.000 C 
ATOM     18  N   UNL     1       3.599   3.623  17.864  0.00  0.00    +0.000 NA
BRANCH  18  19
ATOM     19  C   UNL     1       4.348   4.377  16.853  0.00  0.00    +0.000 C 
BRANCH  19  20
ATOM     20  C   UNL     1       5.438   5.305  17.327  0.00  0.00    +0.000 A 
ATOM     21  C   UNL     1       6.414   4.811  18.203  0.00  0.00    +0.000 A 
ATOM     22  C   UNL     1       7.512   5.594  18.537  0.00  0.00    +0.000 A 
ATOM     23  C   UNL     1       7.607   6.856  17.977  0.00  0.00    +0.000 A 
ATOM     24  N   UNL     1       6.699   7.366  17.118  0.00  0.00    +0.000 NA
ATOM     25  C   UNL     1       5.645   6.575  16.801  0.00  0.00    +0.000 A 
ENDBRANCH  19  20
ENDBRANCH  18  19
ENDBRANCH   1  18
TORSDOF 4
ENDMDL
MODEL 6
REMARK VINA RESULT:      -6.9      1.316      1.739
REMARK  Name = 
REMARK  5 active torsions:
REMARK  status: ('A' for Active; 'I' for Inactive)
REMARK    1  A    between atoms: C_1  and  N_2
REMARK    2  A    between atoms: N_2  and  C_3
REMARK    3  A    between atoms: N_2  and  C_10
REMARK    4  A    between atoms: C_3  and  C_4
REMARK    5  A    between atoms: C_13  and  C_15
REMARK                            x       y       z     vdW  Elec       q    Type
REMARK                         _______ _______ _______ _____ _____    ______ ____
ROOT
ATOM      1  C   UNL     1       3.353   5.075  20.035  0.00  0.00    +0.000 C 
ATOM      2  C   UNL     1       4.706   5.627  19.532  0.00  0.00    +0.000 C 
ATOM      3  N   UNL     1       5.126   4.754  18.437  0.00  0.00    +0.000 N 
ATOM      4  C   UNL     1       6.183   5.014  17.558  0.00  0.00    +0.000 C 
ATOM      5  O   UNL     1       6.425   4.237  16.634  0.00  0.00    +0.000 OA
ATOM      6  C   UNL     1       4.452   3.449  18.504  0.00  0.00    +0.000 C 
ATOM      7  C   UNL     1       3.648   3.071  17.256  0.00  0.00    +0.000 C 
ATOM      8  C   UNL     1       2.315   2.351  17.518  0.00  0.00    +0.000 C 
ATOM      9  C   UNL     1       1.662   2.555  18.885  0.00  0.00    +0.000 C 
ATOM     10  O   UNL     1       2.585   2.611  19.951  0.00  0.00    +0.000 OA
ATOM     11  C   UNL     1       3.630   3.547  19.798  0.00  0.00    +0.000 C 
ENDROOT
BRANCH   4  12
ATOM     12  C   UNL     1       6.952   6.236  17.755  0.00  0.00    +0.000 A 
ATOM     13  C   UNL     1       6.925   7.446  17.077  0.00  0.00    +0.000 A 
ATOM     14  C   UNL     1       7.878   8.295  17.691  0.00  0.00    +0.000 A 
ATOM     15  C   UNL     1       8.475   7.546  18.678  0.00  0.00    +0.000 A 
ATOM     16  O   UNL     1       7.932   6.303  18.717  0.00  0.00    +0.000 OA
ENDBRANCH   4  12
BRANCH   1  18
ATOM     17  C   UNL     1       1.026   5.665  20.477  0.00  0.00    +0.000 C 
ATOM     18  N   UNL     1       2.140   5.793  19.520  0.00  0.00    +0.000 NA
BRANCH  18  19
ATOM     19  C   UNL     1       2.350   7.215  19.231  0.00  0.00    +0.000 C 
BRANCH  19  20
ATOM     20  C   UNL     1       1.613   8.224  20.077  0.00  0.00    +0.000 A 
ATOM     21  C   UNL     1       0.668   9.058  19.466  0.00  0.00    +0.000 A 
ATOM     22  C   UNL     1      -0.132   9.889  20.240  0.00  0.00    +0.000 A 
ATOM     23  C   UNL     1       0.032   9.858  21.614  0.00  0.00    +0.000 A 
ATOM     24  N   UNL     1       0.918   9.059  22.245  0.00  0.00    +0.000 NA
ATOM     25  C   UNL     1       1.678   8.251  21.466  0.00  0.00    +0.000 A 
ENDBRANCH  19  20
ENDBRANCH  18  19
ENDBRANCH   1  18
TORSDOF 4
ENDMDL
MODEL 7
REMARK VINA RESULT:      -6.8      2.051      5.222
REMARK  Name = 
REMARK  5 active torsions:
REMARK  status: ('A' for Active; 'I' for Inactive)
REMARK    1  A    between atoms: C_1  and  N_2
REMARK    2  A    between atoms: N_2  and  C_3
REMARK    3  A    between atoms: N_2  and  C_10
REMARK    4  A    between atoms: C_3  and  C_4
REMARK    5  A    between atoms: C_13  and  C_15
REMARK                            x       y       z     vdW  Elec       q    Type
REMARK                         _______ _______ _______ _____ _____    ______ ____
ROOT
ATOM      1  C   UNL     1       3.034   4.259  17.058  0.00  0.00    +0.000 C 
ATOM      2  C   UNL     1       2.457   5.608  17.544  0.00  0.00    +0.000 C 
ATOM      3  N   UNL     1       2.317   5.498  18.995  0.00  0.00    +0.000 N 
ATOM      4  C   UNL     1       2.034   6.561  19.860  0.00  0.00    +0.000 C 
ATOM      5  O   UNL     1       1.987   6.372  21.077  0.00  0.00    +0.000 OA
ATOM      6  C   UNL     1       2.279   4.093  19.425  0.00  0.00    +0.000 C 
ATOM      7  C   UNL     1       3.359   3.696  20.436  0.00  0.00    +0.000 C 
ATOM      8  C   UNL     1       3.972   2.299  20.239  0.00  0.00    +0.000 C 
ATOM      9  C   UNL     1       3.890   1.686  18.841  0.00  0.00    +0.000 C 
ATOM     10  O   UNL     1       2.677   1.958  18.174  0.00  0.00    +0.000 OA
ATOM     11  C   UNL     1       2.320   3.321  18.097  0.00  0.00    +0.000 C 
ENDROOT
BRANCH   4  12
ATOM     12  C   UNL     1       1.836   7.882  19.279  0.00  0.00    +0.000 A 
ATOM     13  C   UNL     1       2.229   8.406  18.057  0.00  0.00    +0.000 A 
ATOM     14  C   UNL     1       1.766   9.743  18.002  0.00  0.00    +0.000 A 
ATOM     15  C   UNL     1       1.158   9.986  19.212  0.00  0.00    +0.000 A 
ATOM     16  O   UNL     1       1.205   8.876  19.990  0.00  0.00    +0.000 OA
ENDBRANCH   4  12
BRANCH   1  18
ATOM     17  C   UNL     1       4.810   3.600  15.518  0.00  0.00    +0.000 C 
ATOM     18  N   UNL     1       4.514   4.252  16.807  0.00  0.00    +0.000 NA
BRANCH  18  19
ATOM     19  C   UNL     1       5.140   5.578  16.817  0.00  0.00    +0.000 C 
BRANCH  19  20
ATOM     20  C   UNL     1       6.305   5.801  17.749  0.00  0.00    +0.000 A 
ATOM     21  C   UNL     1       7.185   6.862  17.493  0.00  0.00    +0.000 A 
ATOM     22  C   UNL     1       8.174   7.185  18.412  0.00  0.00    +0.000 A 
ATOM     23  C   UNL     1       8.255   6.437  19.573  0.00  0.00    +0.000 A 
ATOM     24  N   UNL     1       7.420   5.418  19.868  0.00  0.00    +0.000 NA
ATOM     25  C   UNL     1       6.457   5.132  18.958  0.00  0.00    +0.000 A 
ENDBRANCH  19  20
ENDBRANCH  18  19
ENDBRANCH   1  18
TORSDOF 4
ENDMDL
MODEL 8
REMARK VINA RESULT:      -6.7      2.147      5.180
REMARK  Name = 
REMARK  5 active torsions:
REMARK  status: ('A' for Active; 'I' for Inactive)
REMARK    1  A    between atoms: C_1  and  N_2
REMARK    2  A    between atoms: N_2  and  C_3
REMARK    3  A    between atoms: N_2  and  C_10
REMARK    4  A    between atoms: C_3  and  C_4
REMARK    5  A    between atoms: C_13  and  C_15
REMARK                            x       y       z     vdW  Elec       q    Type
REMARK                         _______ _______ _______ _____ _____    ______ ____
ROOT
ATOM      1  C   UNL     1       2.974   4.354  17.202  0.00  0.00    +0.000 C 
ATOM      2  C   UNL     1       2.383   5.704  17.670  0.00  0.00    +0.000 C 
ATOM      3  N   UNL     1       2.245   5.611  19.123  0.00  0.00    +0.000 N 
ATOM      4  C   UNL     1       1.952   6.683  19.974  0.00  0.00    +0.000 C 
ATOM      5  O   UNL     1       1.907   6.509  21.193  0.00  0.00    +0.000 OA
ATOM      6  C   UNL     1       2.221   4.211  19.571  0.00  0.00    +0.000 C 
ATOM      7  C   UNL     1       3.305   3.838  20.586  0.00  0.00    +0.000 C 
ATOM      8  C   UNL     1       3.931   2.445  20.407  0.00  0.00    +0.000 C 
ATOM      9  C   UNL     1       3.855   1.812  19.018  0.00  0.00    +0.000 C 
ATOM     10  O   UNL     1       2.639   2.064  18.347  0.00  0.00    +0.000 OA
ATOM     11  C   UNL     1       2.269   3.423  18.254  0.00  0.00    +0.000 C 
ENDROOT
BRANCH   4  12
ATOM     12  C   UNL     1       1.741   7.994  19.377  0.00  0.00    +0.000 A 
ATOM     13  C   UNL     1       2.159   8.517  18.162  0.00  0.00    +0.000 A 
ATOM     14  C   UNL     1       1.667   9.843  18.082  0.00  0.00    +0.000 A 
ATOM     15  C   UNL     1       1.017  10.080  19.270  0.00  0.00    +0.000 A 
ATOM     16  O   UNL     1       1.066   8.978  20.059  0.00  0.00    +0.000 OA
ENDBRANCH   4  12
BRANCH   1  18
ATOM     17  C   UNL     1       4.787   3.435  15.850  0.00  0.00    +0.000 C 
ATOM     18  N   UNL     1       4.453   4.358  16.950  0.00  0.00    +0.000 NA
BRANCH  18  19
ATOM     19  C   UNL     1       5.016   5.677  16.643  0.00  0.00    +0.000 C 
BRANCH  19  20
ATOM     20  C   UNL     1       6.123   6.195  17.526  0.00  0.00    +0.000 A 
ATOM     21  C   UNL     1       6.571   5.400  18.589  0.00  0.00    +0.000 A 
ATOM     22  C   UNL     1       7.687   5.781  19.323  0.00  0.00    +0.000 A 
ATOM     23  C   UNL     1       8.332   6.953  18.969  0.00  0.00    +0.000 A 
ATOM     24  N   UNL     1       7.945   7.741  17.943  0.00  0.00    +0.000 NA
ATOM     25  C   UNL     1       6.861   7.339  17.237  0.00  0.00    +0.000 A 
ENDBRANCH  19  20
ENDBRANCH  18  19
ENDBRANCH   1  18
TORSDOF 4
ENDMDL
MODEL 9
REMARK VINA RESULT:      -6.7      2.047      5.231
REMARK  Name = 
REMARK  5 active torsions:
REMARK  status: ('A' for Active; 'I' for Inactive)
REMARK    1  A    between atoms: C_1  and  N_2
REMARK    2  A    between atoms: N_2  and  C_3
REMARK    3  A    between atoms: N_2  and  C_10
REMARK    4  A    between atoms: C_3  and  C_4
REMARK    5  A    between atoms: C_13  and  C_15
REMARK                            x       y       z     vdW  Elec       q    Type
REMARK                         _______ _______ _______ _____ _____    ______ ____
ROOT
ATOM      1  C   UNL     1       2.856   4.229  17.134  0.00  0.00    +0.000 C 
ATOM      2  C   UNL     1       2.257   5.374  17.983  0.00  0.00    +0.000 C 
ATOM      3  N   UNL     1       2.265   4.906  19.369  0.00  0.00    +0.000 N 
ATOM      4  C   UNL     1       2.011   5.705  20.490  0.00  0.00    +0.000 C 
ATOM      5  O   UNL     1       2.093   5.226  21.621  0.00  0.00    +0.000 OA
ATOM      6  C   UNL     1       2.345   3.440  19.440  0.00  0.00    +0.000 C 
ATOM      7  C   UNL     1       3.539   2.895  20.230  0.00  0.00    +0.000 C 
ATOM      8  C   UNL     1       4.204   1.638  19.646  0.00  0.00    +0.000 C 
ATOM      9  C   UNL     1       4.019   1.375  18.151  0.00  0.00    +0.000 C 
ATOM     10  O   UNL     1       2.734   1.706  17.673  0.00  0.00    +0.000 OA
ATOM     11  C   UNL     1       2.299   3.017  17.964  0.00  0.00    +0.000 C 
ENDROOT
BRANCH   4  12
ATOM     12  C   UNL     1       1.686   7.108  20.271  0.00  0.00    +0.000 A 
ATOM     13  C   UNL     1       0.913   7.988  21.014  0.00  0.00    +0.000 A 
ATOM     14  C   UNL     1       0.938   9.238  20.347  0.00  0.00    +0.000 A 
ATOM     15  C   UNL     1       1.681   9.046  19.206  0.00  0.00    +0.000 A 
ATOM     16  O   UNL     1       2.125   7.766  19.146  0.00  0.00    +0.000 OA
ENDBRANCH   4  12
BRANCH   1  18
ATOM     17  C   UNL     1       4.516   4.043  15.354  0.00  0.00    +0.000 C 
ATOM     18  N   UNL     1       4.302   4.396  16.769  0.00  0.00    +0.000 NA
BRANCH  18  19
ATOM     19  C   UNL     1       4.839   5.740  17.005  0.00  0.00    +0.000 C 
BRANCH  19  20
ATOM     20  C   UNL     1       6.090   5.864  17.839  0.00  0.00    +0.000 A 
ATOM     21  C   UNL     1       7.021   6.862  17.520  0.00  0.00    +0.000 A 
ATOM     22  C   UNL     1       8.103   7.099  18.358  0.00  0.00    +0.000 A 
ATOM     23  C   UNL     1       8.223   6.330  19.502  0.00  0.00    +0.000 A 
ATOM     24  N   UNL     1       7.343   5.370  19.856  0.00  0.00    +0.000 NA
ATOM     25  C   UNL     1       6.290   5.168  19.026  0.00  0.00    +0.000 A 
ENDBRANCH  19  20
ENDBRANCH  18  19
ENDBRANCH   1  18
TORSDOF 4
ENDMDL
