MODEL 1
REMARK VINA RESULT:      -8.2      0.000      0.000
REMARK  Name = 
REMARK  7 active torsions:
REMARK  status: ('A' for Active; 'I' for Inactive)
REMARK    1  A    between atoms: C_1  and  O_2
REMARK    2  A    between atoms: O_2  and  C_3
REMARK    3  A    between atoms: C_6  and  N_7
REMARK    4  A    between atoms: C_11  and  C_13
REMARK    5  A    between atoms: C_15  and  S_16
REMARK    6  A    between atoms: S_16  and  N_19
REMARK    7  A    between atoms: N_27  and  C_28
REMARK                            x       y       z     vdW  Elec       q    Type
REMARK                         _______ _______ _______ _____ _____    ______ ____
ROOT
ATOM      1  N   UNL     1       1.274   8.866  19.870  0.00  0.00    +0.000 N 
ATOM      2  C   UNL     1       1.447   8.106  21.115  0.00  0.00    +0.000 C 
ATOM      3  C   UNL     1       1.348   6.596  20.832  0.00  0.00    +0.000 C 
ATOM      4  N   UNL     1       2.241   6.189  19.743  0.00  0.00    +0.000 N 
ATOM      5  C   UNL     1       3.011   5.035  19.890  0.00  0.00    +0.000 C 
ATOM      6  O   UNL     1       2.948   4.348  20.904  0.00  0.00    +0.000 OA
ATOM      7  C   UNL     1       2.005   6.957  18.505  0.00  0.00    +0.000 C 
ATOM      8  C   UNL     1       2.133   8.470  18.748  0.00  0.00    +0.000 C 
ENDROOT
BRANCH   1  12
ATOM      9  C   UNL     1      -1.519  11.995  19.605  0.00  0.00    +0.000 A 
ATOM     10  C   UNL     1      -0.799  11.797  20.778  0.00  0.00    +0.000 A 
ATOM     11  C   UNL     1       0.149  10.775  20.857  0.00  0.00    +0.000 A 
ATOM     12  C   UNL     1       0.390   9.915  19.777  0.00  0.00    +0.000 A 
ATOM     13  C   UNL     1      -0.332  10.149  18.601  0.00  0.00    +0.000 A 
ATOM     14  C   UNL     1      -1.280  11.167  18.514  0.00  0.00    +0.000 A 
BRANCH   9  16
ATOM     15  C   UNL     1      -3.423  12.878  20.654  0.00  0.00    +0.000 C 
ATOM     16  O   UNL     1      -2.445  13.000  19.628  0.00  0.00    +0.000 OA
ENDBRANCH   9  16
ENDBRANCH   1  12
BRANCH   5  17
ATOM     17  C   UNL     1       3.902   4.681  18.793  0.00  0.00    +0.000 A 
ATOM     18  C   UNL     1       5.106   5.271  18.415  0.00  0.00    +0.000 A 
ATOM     19  C   UNL     1       5.600   4.602  17.277  0.00  0.00    +0.000 A 
ATOM     20  C   UNL     1       4.751   3.560  17.025  0.00  0.00    +0.000 A 
ATOM     21  N   UNL     1       3.710   3.626  17.919  0.00  0.00    +0.000 N 
ATOM     22  C   UNL     1       2.544   2.768  17.838  0.00  0.00    +0.000 C 
BRANCH  19  23
ATOM     23  S   UNL     1       7.037   5.042  16.404  0.00  0.00    +0.000 S 
ATOM     24  O   UNL     1       7.020   6.492  16.421  0.00  0.00    +0.000 OA
ATOM     25  O   UNL     1       8.084   4.276  17.043  0.00  0.00    +0.000 OA
BRANCH  23  26
ATOM     26  N   UNL     1       6.830   4.497  14.789  0.00  0.00    +0.000 NA
ATOM     27  C   UNL     1       5.433   4.518  14.294  0.00  0.00    +0.000 C 
ATOM     28  C   UNL     1       5.149   3.374  13.323  0.00  0.00    +0.000 C 
ATOM     29  C   UNL     1       5.576   3.661  11.889  0.00  0.00    +0.000 C 
ATOM     30  C   UNL     1       7.074   3.864  11.721  0.00  0.00    +0.000 C 
ATOM     31  C   UNL     1       7.572   5.123  12.416  0.00  0.00    +0.000 C 
ATOM     32  C   UNL     1       7.929   4.921  13.881  0.00  0.00    +0.000 C 
ENDBRANCH  23  26
ENDBRANCH  19  23
ENDBRANCH   5  17
TORSDOF 5
ENDMDL
MODEL 2
REMARK VINA RESULT:      -8.0      4.609     12.317
REMARK  Name = 
REMARK  7 active torsions:
REMARK  status: ('A' for Active; 'I' for Inactive)
REMARK    1  A    between atoms: C_1  and  O_2
REMARK    2  A    between atoms: O_2  and  C_3
REMARK    3  A    between atoms: C_6  and  N_7
REMARK    4  A    between atoms: C_11  and  C_13
REMARK    5  A    between atoms: C_15  and  S_16
REMARK    6  A    between atoms: S_16  and  N_19
REMARK    7  A    between atoms: N_27  and  C_28
REMARK                            x       y       z     vdW  Elec       q    Type
REMARK                         _______ _______ _______ _____ _____    ______ ____
ROOT
ATOM      1  N   UNL     1       1.610   8.579  19.542  0.00  0.00    +0.000 N 
ATOM      2  C   UNL     1       1.477   9.485  18.392  0.00  0.00    +0.000 C 
ATOM      3  C   UNL     1       0.048  10.054  18.330  0.00  0.00    +0.000 C 
ATOM      4  N   UNL     1      -0.360  10.635  19.612  0.00  0.00    +0.000 N 
ATOM      5  C   UNL     1      -1.004  11.873  19.624  0.00  0.00    +0.000 C 
ATOM      6  O   UNL     1      -1.247  12.479  18.585  0.00  0.00    +0.000 OA
ATOM      7  C   UNL     1      -0.240   9.677  20.729  0.00  0.00    +0.000 C 
ATOM      8  C   UNL     1       1.187   9.117  20.840  0.00  0.00    +0.000 C 
ENDROOT
BRANCH   1  12
ATOM      9  C   UNL     1       3.346   4.768  19.186  0.00  0.00    +0.000 A 
ATOM     10  C   UNL     1       2.569   5.082  20.297  0.00  0.00    +0.000 A 
ATOM     11  C   UNL     1       1.970   6.339  20.401  0.00  0.00    +0.000 A 
ATOM     12  C   UNL     1       2.142   7.317  19.413  0.00  0.00    +0.000 A 
ATOM     13  C   UNL     1       2.910   6.968  18.296  0.00  0.00    +0.000 A 
ATOM     14  C   UNL     1       3.513   5.716  18.184  0.00  0.00    +0.000 A 
BRANCH   9  16
ATOM     15  C   UNL     1       2.988   2.451  19.090  0.00  0.00    +0.000 C 
ATOM     16  O   UNL     1       3.916   3.526  19.182  0.00  0.00    +0.000 OA
ENDBRANCH   9  16
ENDBRANCH   1  12
BRANCH   5  17
ATOM     17  C   UNL     1      -1.370  12.425  20.921  0.00  0.00    +0.000 A 
ATOM     18  C   UNL     1      -2.576  12.321  21.611  0.00  0.00    +0.000 A 
ATOM     19  C   UNL     1      -2.469  13.040  22.819  0.00  0.00    +0.000 A 
ATOM     20  C   UNL     1      -1.183  13.496  22.902  0.00  0.00    +0.000 A 
ATOM     21  N   UNL     1      -0.528  13.153  21.744  0.00  0.00    +0.000 N 
ATOM     22  C   UNL     1       0.809  13.616  21.425  0.00  0.00    +0.000 C 
BRANCH  19  23
ATOM     23  S   UNL     1      -3.755  13.259  23.968  0.00  0.00    +0.000 S 
ATOM     24  O   UNL     1      -4.100  11.906  24.362  0.00  0.00    +0.000 OA
ATOM     25  O   UNL     1      -3.227  14.224  24.907  0.00  0.00    +0.000 OA
BRANCH  23  26
ATOM     26  N   UNL     1      -5.076  13.949  23.116  0.00  0.00    +0.000 NA
ATOM     27  C   UNL     1      -6.043  12.974  22.559  0.00  0.00    +0.000 C 
ATOM     28  C   UNL     1      -6.647  13.450  21.240  0.00  0.00    +0.000 C 
ATOM     29  C   UNL     1      -7.826  14.400  21.407  0.00  0.00    +0.000 C 
ATOM     30  C   UNL     1      -7.468  15.710  22.091  0.00  0.00    +0.000 C 
ATOM     31  C   UNL     1      -7.060  15.515  23.545  0.00  0.00    +0.000 C 
ATOM     32  C   UNL     1      -5.583  15.202  23.736  0.00  0.00    +0.000 C 
ENDBRANCH  23  26
ENDBRANCH  19  23
ENDBRANCH   5  17
TORSDOF 5
ENDMDL
MODEL 3
REMARK VINA RESULT:      -7.8      4.616     12.342
REMARK  Name = 
REMARK  7 active torsions:
REMARK  status: ('A' for Active; 'I' for Inactive)
REMARK    1  A    between atoms: C_1  and  O_2
REMARK    2  A    between atoms: O_2  and  C_3
REMARK    3  A    between atoms: C_6  and  N_7
REMARK    4  A    between atoms: C_11  and  C_13
REMARK    5  A    between atoms: C_15  and  S_16
REMARK    6  A    between atoms: S_16  and  N_19
REMARK    7  A    between atoms: N_27  and  C_28
REMARK                            x       y       z     vdW  Elec       q    Type
REMARK                         _______ _______ _______ _____ _____    ______ ____
ROOT
ATOM      1  N   UNL     1       1.457   8.722  19.505  0.00  0.00    +0.000 N 
ATOM      2  C   UNL     1       1.216   9.621  18.367  0.00  0.00    +0.000 C 
ATOM      3  C   UNL     1      -0.240  10.122  18.388  0.00  0.00    +0.000 C 
ATOM      4  N   UNL     1      -0.599  10.684  19.694  0.00  0.00    +0.000 N 
ATOM      5  C   UNL     1      -1.299  11.891  19.745  0.00  0.00    +0.000 C 
ATOM      6  O   UNL     1      -1.630  12.483  18.723  0.00  0.00    +0.000 OA
ATOM      7  C   UNL     1      -0.371   9.733  20.799  0.00  0.00    +0.000 C 
ATOM      8  C   UNL     1       1.085   9.241  20.827  0.00  0.00    +0.000 C 
ENDROOT
BRANCH   1  12
ATOM      9  C   UNL     1       3.130   4.904  18.971  0.00  0.00    +0.000 A 
ATOM     10  C   UNL     1       3.354   5.904  18.030  0.00  0.00    +0.000 A 
ATOM     11  C   UNL     1       2.821   7.180  18.222  0.00  0.00    +0.000 A 
ATOM     12  C   UNL     1       2.040   7.487  19.343  0.00  0.00    +0.000 A 
ATOM     13  C   UNL     1       1.848   6.470  20.286  0.00  0.00    +0.000 A 
ATOM     14  C   UNL     1       2.375   5.193  20.103  0.00  0.00    +0.000 A 
BRANCH   9  16
ATOM     15  C   UNL     1       2.795   2.803  17.981  0.00  0.00    +0.000 C 
ATOM     16  O   UNL     1       3.666   3.679  18.688  0.00  0.00    +0.000 OA
ENDBRANCH   9  16
ENDBRANCH   1  12
BRANCH   5  17
ATOM     17  C   UNL     1      -1.615  12.425  21.062  0.00  0.00    +0.000 A 
ATOM     18  C   UNL     1      -2.799  12.324  21.791  0.00  0.00    +0.000 A 
ATOM     19  C   UNL     1      -2.644  13.022  23.005  0.00  0.00    +0.000 A 
ATOM     20  C   UNL     1      -1.350  13.460  23.053  0.00  0.00    +0.000 A 
ATOM     21  N   UNL     1      -0.738  13.129  21.869  0.00  0.00    +0.000 N 
ATOM     22  C   UNL     1       0.593  13.582  21.513  0.00  0.00    +0.000 C 
BRANCH  19  23
ATOM     23  S   UNL     1      -3.889  13.236  24.200  0.00  0.00    +0.000 S 
ATOM     24  O   UNL     1      -4.254  11.881  24.565  0.00  0.00    +0.000 OA
ATOM     25  O   UNL     1      -3.309  14.161  25.149  0.00  0.00    +0.000 OA
BRANCH  23  26
ATOM     26  N   UNL     1      -5.218  13.982  23.409  0.00  0.00    +0.000 NA
ATOM     27  C   UNL     1      -4.883  15.192  22.624  0.00  0.00    +0.000 C 
ATOM     28  C   UNL     1      -6.010  16.222  22.643  0.00  0.00    +0.000 C 
ATOM     29  C   UNL     1      -7.106  15.959  21.618  0.00  0.00    +0.000 C 
ATOM     30  C   UNL     1      -7.855  14.655  21.839  0.00  0.00    +0.000 C 
ATOM     31  C   UNL     1      -6.973  13.433  21.623  0.00  0.00    +0.000 C 
ATOM     32  C   UNL     1      -6.195  13.005  22.858  0.00  0.00    +0.000 C 
ENDBRANCH  23  26
ENDBRANCH  19  23
ENDBRANCH   5  17
TORSDOF 5
ENDMDL
MODEL 4
REMARK VINA RESULT:      -7.7      4.659     11.847
REMARK  Name = 
REMARK  7 active torsions:
REMARK  status: ('A' for Active; 'I' for Inactive)
REMARK    1  A    between atoms: C_1  and  O_2
REMARK    2  A    between atoms: O_2  and  C_3
REMARK    3  A    between atoms: C_6  and  N_7
REMARK    4  A    between atoms: C_11  and  C_13
REMARK    5  A    between atoms: C_15  and  S_16
REMARK    6  A    between atoms: S_16  and  N_19
REMARK    7  A    between atoms: N_27  and  C_28
REMARK                            x       y       z     vdW  Elec       q    Type
REMARK                         _______ _______ _______ _____ _____    ______ ____
ROOT
ATOM      1  N   UNL     1       1.769   8.017  19.613  0.00  0.00    +0.000 N 
ATOM      2  C   UNL     1       2.042   8.957  18.517  0.00  0.00    +0.000 C 
ATOM      3  C   UNL     1       0.781   9.782  18.202  0.00  0.00    +0.000 C 
ATOM      4  N   UNL     1       0.224  10.401  19.409  0.00  0.00    +0.000 N 
ATOM      5  C   UNL     1      -0.180  11.736  19.364  0.00  0.00    +0.000 C 
ATOM      6  O   UNL     1      -0.089  12.399  18.336  0.00  0.00    +0.000 OA
ATOM      7  C   UNL     1      -0.065   9.412  20.466  0.00  0.00    +0.000 C 
ATOM      8  C   UNL     1       1.186   8.595  20.829  0.00  0.00    +0.000 C 
ENDROOT
BRANCH   1  12
ATOM      9  C   UNL     1       2.851   3.964  19.354  0.00  0.00    +0.000 A 
ATOM     10  C   UNL     1       2.208   4.445  20.490  0.00  0.00    +0.000 A 
ATOM     11  C   UNL     1       1.824   5.785  20.564  0.00  0.00    +0.000 A 
ATOM     12  C   UNL     1       2.085   6.682  19.519  0.00  0.00    +0.000 A 
ATOM     13  C   UNL     1       2.713   6.167  18.379  0.00  0.00    +0.000 A 
ATOM     14  C   UNL     1       3.101   4.831  18.296  0.00  0.00    +0.000 A 
BRANCH   9  16
ATOM     15  C   UNL     1       4.458   2.391  20.024  0.00  0.00    +0.000 C 
ATOM     16  O   UNL     1       3.215   2.647  19.380  0.00  0.00    +0.000 OA
ENDBRANCH   9  16
ENDBRANCH   1  12
BRANCH   5  17
ATOM     17  C   UNL     1      -0.706  12.317  20.592  0.00  0.00    +0.000 A 
ATOM     18  C   UNL     1      -1.972  12.179  21.157  0.00  0.00    +0.000 A 
ATOM     19  C   UNL     1      -2.027  12.947  22.337  0.00  0.00    +0.000 A 
ATOM     20  C   UNL     1      -0.780  13.469  22.534  0.00  0.00    +0.000 A 
ATOM     21  N   UNL     1       0.009  13.117  21.466  0.00  0.00    +0.000 N 
ATOM     22  C   UNL     1       1.350  13.634  21.269  0.00  0.00    +0.000 C 
BRANCH  19  23
ATOM     23  S   UNL     1      -3.437  13.143  23.336  0.00  0.00    +0.000 S 
ATOM     24  O   UNL     1      -3.579  11.856  23.989  0.00  0.00    +0.000 OA
ATOM     25  O   UNL     1      -3.176  14.359  24.076  0.00  0.00    +0.000 OA
BRANCH  23  26
ATOM     26  N   UNL     1      -4.768  13.387  22.280  0.00  0.00    +0.000 NA
ATOM     27  C   UNL     1      -6.089  13.019  22.841  0.00  0.00    +0.000 C 
ATOM     28  C   UNL     1      -7.036  12.470  21.776  0.00  0.00    +0.000 C 
ATOM     29  C   UNL     1      -7.763  13.547  20.981  0.00  0.00    +0.000 C 
ATOM     30  C   UNL     1      -6.840  14.440  20.165  0.00  0.00    +0.000 C 
ATOM     31  C   UNL     1      -5.941  15.301  21.041  0.00  0.00    +0.000 C 
ATOM     32  C   UNL     1      -4.645  14.619  21.456  0.00  0.00    +0.000 C 
ENDBRANCH  23  26
ENDBRANCH  19  23
ENDBRANCH   5  17
TORSDOF 5
ENDMDL
MODEL 5
REMARK VINA RESULT:      -7.7      2.831      5.049
REMARK  Name = 
REMARK  7 active torsions:
REMARK  status: ('A' for Active; 'I' for Inactive)
REMARK    1  A    between atoms: C_1  and  O_2
REMARK    2  A    between atoms: O_2  and  C_3
REMARK    3  A    between atoms: C_6  and  N_7
REMARK    4  A    between atoms: C_11  and  C_13
REMARK    5  A    between atoms: C_15  and  S_16
REMARK    6  A    between atoms: S_16  and  N_19
REMARK    7  A    between atoms: N_27  and  C_28
REMARK                            x       y       z     vdW  Elec       q    Type
REMARK                         _______ _______ _______ _____ _____    ______ ____
ROOT
ATOM      1  N   UNL     1      -1.955  12.101  20.265  0.00  0.00    +0.000 N 
ATOM      2  C   UNL     1      -1.015  12.385  21.359  0.00  0.00    +0.000 C 
ATOM      3  C   UNL     1      -0.551  11.070  22.012  0.00  0.00    +0.000 C 
ATOM      4  N   UNL     1      -0.053  10.117  21.015  0.00  0.00    +0.000 N 
ATOM      5  C   UNL     1       1.132   9.426  21.268  0.00  0.00    +0.000 C 
ATOM      6  O   UNL     1       1.759   9.588  22.309  0.00  0.00    +0.000 OA
ATOM      7  C   UNL     1      -1.045   9.840  19.957  0.00  0.00    +0.000 C 
ATOM      8  C   UNL     1      -1.502  11.132  19.261  0.00  0.00    +0.000 C 
ENDROOT
BRANCH   1  12
ATOM      9  C   UNL     1      -5.707  13.981  20.042  0.00  0.00    +0.000 A 
ATOM     10  C   UNL     1      -4.690  14.538  20.811  0.00  0.00    +0.000 A 
ATOM     11  C   UNL     1      -3.435  13.928  20.863  0.00  0.00    +0.000 A 
ATOM     12  C   UNL     1      -3.167  12.743  20.166  0.00  0.00    +0.000 A 
ATOM     13  C   UNL     1      -4.200  12.215  19.382  0.00  0.00    +0.000 A 
ATOM     14  C   UNL     1      -5.456  12.816  19.325  0.00  0.00    +0.000 A 
BRANCH   9  16
ATOM     15  C   UNL     1      -7.917  14.045  19.254  0.00  0.00    +0.000 C 
ATOM     16  O   UNL     1      -6.909  14.629  20.072  0.00  0.00    +0.000 OA
ENDBRANCH   9  16
ENDBRANCH   1  12
BRANCH   5  17
ATOM     17  C   UNL     1       1.603   8.507  20.240  0.00  0.00    +0.000 A 
ATOM     18  C   UNL     1       1.793   7.128  20.315  0.00  0.00    +0.000 A 
ATOM     19  C   UNL     1       2.285   6.672  19.075  0.00  0.00    +0.000 A 
ATOM     20  C   UNL     1       2.304   7.747  18.231  0.00  0.00    +0.000 A 
ATOM     21  N   UNL     1       1.923   8.860  18.941  0.00  0.00    +0.000 N 
ATOM     22  C   UNL     1       1.983  10.203  18.397  0.00  0.00    +0.000 C 
BRANCH  19  23
ATOM     23  S   UNL     1       2.747   5.033  18.726  0.00  0.00    +0.000 S 
ATOM     24  O   UNL     1       2.737   4.388  20.025  0.00  0.00    +0.000 OA
ATOM     25  O   UNL     1       1.852   4.636  17.661  0.00  0.00    +0.000 OA
BRANCH  23  26
ATOM     26  N   UNL     1       4.358   5.081  18.137  0.00  0.00    +0.000 NA
ATOM     27  C   UNL     1       5.393   4.642  19.101  0.00  0.00    +0.000 C 
ATOM     28  C   UNL     1       6.704   5.406  18.928  0.00  0.00    +0.000 C 
ATOM     29  C   UNL     1       7.605   4.849  17.832  0.00  0.00    +0.000 C 
ATOM     30  C   UNL     1       6.999   4.926  16.440  0.00  0.00    +0.000 C 
ATOM     31  C   UNL     1       5.782   4.025  16.284  0.00  0.00    +0.000 C 
ATOM     32  C   UNL     1       4.473   4.673  16.710  0.00  0.00    +0.000 C 
ENDBRANCH  23  26
ENDBRANCH  19  23
ENDBRANCH   5  17
TORSDOF 5
ENDMDL
MODEL 6
REMARK VINA RESULT:      -7.6      4.504     12.464
REMARK  Name = 
REMARK  7 active torsions:
REMARK  status: ('A' for Active; 'I' for Inactive)
REMARK    1  A    between atoms: C_1  and  O_2
REMARK    2  A    between atoms: O_2  and  C_3
REMARK    3  A    between atoms: C_6  and  N_7
REMARK    4  A    between atoms: C_11  and  C_13
REMARK    5  A    between atoms: C_15  and  S_16
REMARK    6  A    between atoms: S_16  and  N_19
REMARK    7  A    between atoms: N_27  and  C_28
REMARK                            x       y       z     vdW  Elec       q    Type
REMARK                         _______ _______ _______ _____ _____    ______ ____
ROOT
ATOM      1  N   UNL     1       1.644   8.581  19.445  0.00  0.00    +0.000 N 
ATOM      2  C   UNL     1       1.615   9.505  18.303  0.00  0.00    +0.000 C 
ATOM      3  C   UNL     1       0.192  10.058  18.105  0.00  0.00    +0.000 C 
ATOM      4  N   UNL     1      -0.350  10.612  19.349  0.00  0.00    +0.000 N 
ATOM      5  C   UNL     1      -1.009  11.842  19.315  0.00  0.00    +0.000 C 
ATOM      6  O   UNL     1      -1.154  12.462  18.267  0.00  0.00    +0.000 OA
ATOM      7  C   UNL     1      -0.332   9.636  20.456  0.00  0.00    +0.000 C 
ATOM      8  C   UNL     1       1.085   9.091  20.703  0.00  0.00    +0.000 C 
ENDROOT
BRANCH   1  12
ATOM      9  C   UNL     1       3.246   4.708  19.122  0.00  0.00    +0.000 A 
ATOM     10  C   UNL     1       3.483   5.649  18.124  0.00  0.00    +0.000 A 
ATOM     11  C   UNL     1       2.973   6.944  18.246  0.00  0.00    +0.000 A 
ATOM     12  C   UNL     1       2.203   7.328  19.351  0.00  0.00    +0.000 A 
ATOM     13  C   UNL     1       1.998   6.369  20.350  0.00  0.00    +0.000 A 
ATOM     14  C   UNL     1       2.502   5.075  20.237  0.00  0.00    +0.000 A 
BRANCH   9  16
ATOM     15  C   UNL     1       3.283   2.823  17.725  0.00  0.00    +0.000 C 
ATOM     16  O   UNL     1       3.758   3.460  18.906  0.00  0.00    +0.000 OA
ENDBRANCH   9  16
ENDBRANCH   1  12
BRANCH   5  17
ATOM     17  C   UNL     1      -1.512  12.367  20.577  0.00  0.00    +0.000 A 
ATOM     18  C   UNL     1      -2.796  12.288  21.112  0.00  0.00    +0.000 A 
ATOM     19  C   UNL     1      -2.814  12.964  22.349  0.00  0.00    +0.000 A 
ATOM     20  C   UNL     1      -1.533  13.367  22.603  0.00  0.00    +0.000 A 
ATOM     21  N   UNL     1      -0.753  13.036  21.522  0.00  0.00    +0.000 N 
ATOM     22  C   UNL     1       0.628  13.458  21.383  0.00  0.00    +0.000 C 
BRANCH  19  23
ATOM     23  S   UNL     1      -4.222  13.196  23.340  0.00  0.00    +0.000 S 
ATOM     24  O   UNL     1      -5.271  12.502  22.618  0.00  0.00    +0.000 OA
ATOM     25  O   UNL     1      -3.794  12.785  24.660  0.00  0.00    +0.000 OA
BRANCH  23  26
ATOM     26  N   UNL     1      -4.562  14.878  23.343  0.00  0.00    +0.000 NA
ATOM     27  C   UNL     1      -3.904  15.650  24.423  0.00  0.00    +0.000 C 
ATOM     28  C   UNL     1      -4.766  16.813  24.909  0.00  0.00    +0.000 C 
ATOM     29  C   UNL     1      -4.651  18.068  24.053  0.00  0.00    +0.000 C 
ATOM     30  C   UNL     1      -5.132  17.884  22.623  0.00  0.00    +0.000 C 
ATOM     31  C   UNL     1      -4.252  16.926  21.832  0.00  0.00    +0.000 C 
ATOM     32  C   UNL     1      -4.642  15.463  21.977  0.00  0.00    +0.000 C 
ENDBRANCH  23  26
ENDBRANCH  19  23
ENDBRANCH   5  17
TORSDOF 5
ENDMDL
MODEL 7
REMARK VINA RESULT:      -7.6      3.701     10.929
REMARK  Name = 
REMARK  7 active torsions:
REMARK  status: ('A' for Active; 'I' for Inactive)
REMARK    1  A    between atoms: C_1  and  O_2
REMARK    2  A    between atoms: O_2  and  C_3
REMARK    3  A    between atoms: C_6  and  N_7
REMARK    4  A    between atoms: C_11  and  C_13
REMARK    5  A    between atoms: C_15  and  S_16
REMARK    6  A    between atoms: S_16  and  N_19
REMARK    7  A    between atoms: N_27  and  C_28
REMARK                            x       y       z     vdW  Elec       q    Type
REMARK                         _______ _______ _______ _____ _____    ______ ____
ROOT
ATOM      1  N   UNL     1       2.688   7.029  18.682  0.00  0.00    +0.000 N 
ATOM      2  C   UNL     1       2.170   6.887  20.050  0.00  0.00    +0.000 C 
ATOM      3  C   UNL     1       1.867   8.273  20.647  0.00  0.00    +0.000 C 
ATOM      4  N   UNL     1       1.020   9.073  19.756  0.00  0.00    +0.000 N 
ATOM      5  C   UNL     1      -0.058   9.778  20.294  0.00  0.00    +0.000 C 
ATOM      6  O   UNL     1      -0.305   9.752  21.495  0.00  0.00    +0.000 OA
ATOM      7  C   UNL     1       1.599   9.214  18.406  0.00  0.00    +0.000 C 
ATOM      8  C   UNL     1       1.880   7.844  17.767  0.00  0.00    +0.000 C 
ENDROOT
BRANCH   1  12
ATOM      9  C   UNL     1       6.135   4.995  17.399  0.00  0.00    +0.000 A 
ATOM     10  C   UNL     1       5.547   5.958  16.585  0.00  0.00    +0.000 A 
ATOM     11  C   UNL     1       4.418   6.653  17.023  0.00  0.00    +0.000 A 
ATOM     12  C   UNL     1       3.837   6.395  18.272  0.00  0.00    +0.000 A 
ATOM     13  C   UNL     1       4.461   5.438  19.080  0.00  0.00    +0.000 A 
ATOM     14  C   UNL     1       5.588   4.738  18.651  0.00  0.00    +0.000 A 
BRANCH   9  16
ATOM     15  C   UNL     1       7.341   4.444  15.463  0.00  0.00    +0.000 C 
ATOM     16  O   UNL     1       7.218   4.346  16.877  0.00  0.00    +0.000 OA
ENDBRANCH   9  16
ENDBRANCH   1  12
BRANCH   5  17
ATOM     17  C   UNL     1      -0.886  10.540  19.370  0.00  0.00    +0.000 A 
ATOM     18  C   UNL     1      -2.016  10.133  18.662  0.00  0.00    +0.000 A 
ATOM     19  C   UNL     1      -2.467  11.210  17.873  0.00  0.00    +0.000 A 
ATOM     20  C   UNL     1      -1.676  12.284  18.171  0.00  0.00    +0.000 A 
ATOM     21  N   UNL     1      -0.703  11.874  19.049  0.00  0.00    +0.000 N 
ATOM     22  C   UNL     1       0.404  12.718  19.453  0.00  0.00    +0.000 C 
BRANCH  19  23
ATOM     23  S   UNL     1      -3.801  11.142  16.761  0.00  0.00    +0.000 S 
ATOM     24  O   UNL     1      -3.346  11.925  15.627  0.00  0.00    +0.000 OA
ATOM     25  O   UNL     1      -4.098   9.730  16.654  0.00  0.00    +0.000 OA
BRANCH  23  26
ATOM     26  N   UNL     1      -5.118  11.951  17.508  0.00  0.00    +0.000 NA
ATOM     27  C   UNL     1      -6.050  12.628  16.577  0.00  0.00    +0.000 C 
ATOM     28  C   UNL     1      -6.636  13.905  17.173  0.00  0.00    +0.000 C 
ATOM     29  C   UNL     1      -7.839  13.671  18.078  0.00  0.00    +0.000 C 
ATOM     30  C   UNL     1      -7.526  12.848  19.318  0.00  0.00    +0.000 C 
ATOM     31  C   UNL     1      -7.145  11.413  18.983  0.00  0.00    +0.000 C 
ATOM     32  C   UNL     1      -5.667  11.219  18.682  0.00  0.00    +0.000 C 
ENDBRANCH  23  26
ENDBRANCH  19  23
ENDBRANCH   5  17
TORSDOF 5
ENDMDL
MODEL 8
REMARK VINA RESULT:      -7.5      4.617     12.587
REMARK  Name = 
REMARK  7 active torsions:
REMARK  status: ('A' for Active; 'I' for Inactive)
REMARK    1  A    between atoms: C_1  and  O_2
REMARK    2  A    between atoms: O_2  and  C_3
REMARK    3  A    between atoms: C_6  and  N_7
REMARK    4  A    between atoms: C_11  and  C_13
REMARK    5  A    between atoms: C_15  and  S_16
REMARK    6  A    between atoms: S_16  and  N_19
REMARK    7  A    between atoms: N_27  and  C_28
REMARK                            x       y       z     vdW  Elec       q    Type
REMARK                         _______ _______ _______ _____ _____    ______ ____
ROOT
ATOM      1  N   UNL     1       1.626   8.507  19.552  0.00  0.00    +0.000 N 
ATOM      2  C   UNL     1       1.659   9.441  18.418  0.00  0.00    +0.000 C 
ATOM      3  C   UNL     1       0.258  10.031  18.178  0.00  0.00    +0.000 C 
ATOM      4  N   UNL     1      -0.312  10.589  19.408  0.00  0.00    +0.000 N 
ATOM      5  C   UNL     1      -0.939  11.835  19.363  0.00  0.00    +0.000 C 
ATOM      6  O   UNL     1      -1.034  12.467  18.317  0.00  0.00    +0.000 OA
ATOM      7  C   UNL     1      -0.355   9.603  20.506  0.00  0.00    +0.000 C 
ATOM      8  C   UNL     1       1.039   9.021  20.795  0.00  0.00    +0.000 C 
ENDROOT
BRANCH   1  12
ATOM      9  C   UNL     1       3.140   4.597  19.250  0.00  0.00    +0.000 A 
ATOM     10  C   UNL     1       3.401   5.528  18.249  0.00  0.00    +0.000 A 
ATOM     11  C   UNL     1       2.921   6.834  18.364  0.00  0.00    +0.000 A 
ATOM     12  C   UNL     1       2.157   7.241  19.465  0.00  0.00    +0.000 A 
ATOM     13  C   UNL     1       1.928   6.292  20.468  0.00  0.00    +0.000 A 
ATOM     14  C   UNL     1       2.402   4.986  20.363  0.00  0.00    +0.000 A 
BRANCH   9  16
ATOM     15  C   UNL     1       2.845   2.545  18.152  0.00  0.00    +0.000 C 
ATOM     16  O   UNL     1       3.624   3.337  19.041  0.00  0.00    +0.000 OA
ENDBRANCH   9  16
ENDBRANCH   1  12
BRANCH   5  17
ATOM     17  C   UNL     1      -1.470  12.362  20.613  0.00  0.00    +0.000 A 
ATOM     18  C   UNL     1      -2.758  12.254  21.135  0.00  0.00    +0.000 A 
ATOM     19  C   UNL     1      -2.808  12.945  22.362  0.00  0.00    +0.000 A 
ATOM     20  C   UNL     1      -1.541  13.387  22.625  0.00  0.00    +0.000 A 
ATOM     21  N   UNL     1      -0.741  13.064  21.557  0.00  0.00    +0.000 N 
ATOM     22  C   UNL     1       0.629  13.522  21.428  0.00  0.00    +0.000 C 
BRANCH  19  23
ATOM     23  S   UNL     1      -4.234  13.150  23.335  0.00  0.00    +0.000 S 
ATOM     24  O   UNL     1      -5.263  12.449  22.592  0.00  0.00    +0.000 OA
ATOM     25  O   UNL     1      -3.819  12.735  24.658  0.00  0.00    +0.000 OA
BRANCH  23  26
ATOM     26  N   UNL     1      -4.595  14.829  23.347  0.00  0.00    +0.000 NA
ATOM     27  C   UNL     1      -6.001  15.170  23.026  0.00  0.00    +0.000 C 
ATOM     28  C   UNL     1      -6.115  16.492  22.270  0.00  0.00    +0.000 C 
ATOM     29  C   UNL     1      -6.106  17.722  23.170  0.00  0.00    +0.000 C 
ATOM     30  C   UNL     1      -4.813  17.905  23.949  0.00  0.00    +0.000 C 
ATOM     31  C   UNL     1      -4.594  16.806  24.979  0.00  0.00    +0.000 C 
ATOM     32  C   UNL     1      -3.894  15.572  24.428  0.00  0.00    +0.000 C 
ENDBRANCH  23  26
ENDBRANCH  19  23
ENDBRANCH   5  17
TORSDOF 5
ENDMDL
MODEL 9
REMARK VINA RESULT:      -7.5      2.816      4.894
REMARK  Name = 
REMARK  7 active torsions:
REMARK  status: ('A' for Active; 'I' for Inactive)
REMARK    1  A    between atoms: C_1  and  O_2
REMARK    2  A    between atoms: O_2  and  C_3
REMARK    3  A    between atoms: C_6  and  N_7
REMARK    4  A    between atoms: C_11  and  C_13
REMARK    5  A    between atoms: C_15  and  S_16
REMARK    6  A    between atoms: S_16  and  N_19
REMARK    7  A    between atoms: N_27  and  C_28
REMARK                            x       y       z     vdW  Elec       q    Type
REMARK                         _______ _______ _______ _____ _____    ______ ____
ROOT
ATOM      1  N   UNL     1      -1.962  11.660  19.982  0.00  0.00    +0.000 N 
ATOM      2  C   UNL     1      -0.995  12.065  21.011  0.00  0.00    +0.000 C 
ATOM      3  C   UNL     1      -0.468  10.827  21.759  0.00  0.00    +0.000 C 
ATOM      4  N   UNL     1       0.024   9.803  20.831  0.00  0.00    +0.000 N 
ATOM      5  C   UNL     1       1.239   9.170  21.100  0.00  0.00    +0.000 C 
ATOM      6  O   UNL     1       1.896   9.441  22.099  0.00  0.00    +0.000 OA
ATOM      7  C   UNL     1      -0.994   9.406  19.839  0.00  0.00    +0.000 C 
ATOM      8  C   UNL     1      -1.514  10.618  19.050  0.00  0.00    +0.000 C 
ENDROOT
BRANCH   1  12
ATOM      9  C   UNL     1      -5.681  13.576  19.586  0.00  0.00    +0.000 A 
ATOM     10  C   UNL     1      -5.335  12.536  18.728  0.00  0.00    +0.000 A 
ATOM     11  C   UNL     1      -4.111  11.882  18.878  0.00  0.00    +0.000 A 
ATOM     12  C   UNL     1      -3.196  12.256  19.871  0.00  0.00    +0.000 A 
ATOM     13  C   UNL     1      -3.579  13.289  20.734  0.00  0.00    +0.000 A 
ATOM     14  C   UNL     1      -4.798  13.949  20.592  0.00  0.00    +0.000 A 
BRANCH   9  16
ATOM     15  C   UNL     1      -6.858  15.598  19.409  0.00  0.00    +0.000 C 
ATOM     16  O   UNL     1      -6.885  14.176  19.348  0.00  0.00    +0.000 OA
ENDBRANCH   9  16
ENDBRANCH   1  12
BRANCH   5  17
ATOM     17  C   UNL     1       1.701   8.177  20.140  0.00  0.00    +0.000 A 
ATOM     18  C   UNL     1       1.833   6.798  20.296  0.00  0.00    +0.000 A 
ATOM     19  C   UNL     1       2.343   6.254  19.101  0.00  0.00    +0.000 A 
ATOM     20  C   UNL     1       2.431   7.278  18.200  0.00  0.00    +0.000 A 
ATOM     21  N   UNL     1       2.075   8.443  18.834  0.00  0.00    +0.000 N 
ATOM     22  C   UNL     1       2.207   9.750  18.220  0.00  0.00    +0.000 C 
BRANCH  19  23
ATOM     23  S   UNL     1       2.747   4.581  18.858  0.00  0.00    +0.000 S 
ATOM     24  O   UNL     1       2.717   4.021  20.195  0.00  0.00    +0.000 OA
ATOM     25  O   UNL     1       1.837   4.148  17.819  0.00  0.00    +0.000 OA
BRANCH  23  26
ATOM     26  N   UNL     1       4.358   4.535  18.266  0.00  0.00    +0.000 NA
ATOM     27  C   UNL     1       4.503   4.807  16.817  0.00  0.00    +0.000 C 
ATOM     28  C   UNL     1       5.649   4.014  16.193  0.00  0.00    +0.000 C 
ATOM     29  C   UNL     1       7.017   4.661  16.369  0.00  0.00    +0.000 C 
ATOM     30  C   UNL     1       7.459   4.782  17.819  0.00  0.00    +0.000 C 
ATOM     31  C   UNL     1       6.590   5.748  18.613  0.00  0.00    +0.000 C 
ATOM     32  C   UNL     1       5.348   5.110  19.217  0.00  0.00    +0.000 C 
ENDBRANCH  23  26
ENDBRANCH  19  23
ENDBRANCH   5  17
TORSDOF 5
ENDMDL
