MODEL 1
REMARK VINA RESULT:      -8.7      0.000      0.000
REMARK  Name = 
REMARK  5 active torsions:
REMARK  status: ('A' for Active; 'I' for Inactive)
REMARK    1  A    between atoms: C_2  and  C_24
REMARK    2  A    between atoms: C_6  and  C_7
REMARK    3  A    between atoms: C_11  and  S_12
REMARK    4  A    between atoms: S_12  and  C_15
REMARK    5  A    between atoms: C_15  and  C_16
REMARK                            x       y       z     vdW  Elec       q    Type
REMARK                         _______ _______ _______ _____ _____    ______ ____
ROOT
ATOM      1  O   UNL     1       7.861   9.900  17.309  0.00  0.00    +0.000 OA
ATOM      2  C   UNL     1       8.564   9.456  18.213  0.00  0.00    +0.000 C 
ATOM      3  N   UNL     1       8.511   8.172  18.729  0.00  0.00    +0.000 N 
ATOM      4  C   UNL     1       7.678   7.254  18.145  0.00  0.00    +0.000 A 
ATOM      5  N   UNL     1       7.124   7.344  16.966  0.00  0.00    +0.000 NA
ATOM      6  C   UNL     1       6.281   6.264  16.721  0.00  0.00    +0.000 A 
ATOM      7  C   UNL     1       6.177   5.389  17.794  0.00  0.00    +0.000 A 
ATOM      8  S   UNL     1       7.286   5.859  19.036  0.00  0.00    +0.000 S 
ATOM      9  H   UNL     1       9.026   7.951  19.569  0.00  0.00    +0.000 HD
ENDROOT
BRANCH   2  10
ATOM     10  C   UNL     1       9.523  10.393  18.868  0.00  0.00    +0.000 A 
ATOM     11  C   UNL     1       9.339  10.689  20.218  0.00  0.00    +0.000 A 
ATOM     12  C   UNL     1      10.206  11.584  20.830  0.00  0.00    +0.000 A 
ATOM     13  C   UNL     1      11.215  12.163  20.072  0.00  0.00    +0.000 A 
ATOM     14  C   UNL     1      11.329  11.808  18.733  0.00  0.00    +0.000 A 
ATOM     15  N   UNL     1      10.518  10.924  18.102  0.00  0.00    +0.000 NA
ENDBRANCH   2  10
BRANCH   6  16
ATOM     16  C   UNL     1       5.583   6.162  15.398  0.00  0.00    +0.000 C 
ATOM     17  F   UNL     1       4.688   5.136  15.363  0.00  0.00    +0.000 F 
ATOM     18  F   UNL     1       4.882   7.286  15.108  0.00  0.00    +0.000 F 
ATOM     19  F   UNL     1       6.453   5.937  14.380  0.00  0.00    +0.000 F 
ENDBRANCH   6  16
BRANCH   7  20
ATOM     20  S   UNL     1       5.199   3.928  18.059  0.00  0.00    +0.000 S 
ATOM     21  O   UNL     1       5.449   3.124  16.881  0.00  0.00    +0.000 OA
ATOM     22  O   UNL     1       5.573   3.480  19.383  0.00  0.00    +0.000 OA
BRANCH  20  23
ATOM     23  C   UNL     1       3.506   4.518  18.025  0.00  0.00    +0.000 C 
BRANCH  23  24
ATOM     24  C   UNL     1       2.728   3.941  19.179  0.00  0.00    +0.000 A 
ATOM     25  C   UNL     1       2.585   4.634  20.391  0.00  0.00    +0.000 A 
ATOM     26  C   UNL     1       1.898   4.054  21.464  0.00  0.00    +0.000 A 
ATOM     27  C   UNL     1       1.340   2.782  21.339  0.00  0.00    +0.000 A 
ATOM     28  C   UNL     1       1.467   2.088  20.139  0.00  0.00    +0.000 A 
ATOM     29  C   UNL     1       2.154   2.669  19.076  0.00  0.00    +0.000 A 
ATOM     30  F   UNL     1       2.294   1.973  17.940  0.00  0.00    +0.000 F 
ENDBRANCH  23  24
ENDBRANCH  20  23
ENDBRANCH   7  20
TORSDOF 5
ENDMDL
MODEL 2
REMARK VINA RESULT:      -8.5      1.003      1.526
REMARK  Name = 
REMARK  5 active torsions:
REMARK  status: ('A' for Active; 'I' for Inactive)
REMARK    1  A    between atoms: C_2  and  C_24
REMARK    2  A    between atoms: C_6  and  C_7
REMARK    3  A    between atoms: C_11  and  S_12
REMARK    4  A    between atoms: S_12  and  C_15
REMARK    5  A    between atoms: C_15  and  C_16
REMARK                            x       y       z     vdW  Elec       q    Type
REMARK                         _______ _______ _______ _____ _____    ______ ____
ROOT
ATOM      1  O   UNL     1       7.783   9.832  17.266  0.00  0.00    +0.000 OA
ATOM      2  C   UNL     1       8.468   9.399  18.189  0.00  0.00    +0.000 C 
ATOM      3  N   UNL     1       8.418   8.117  18.708  0.00  0.00    +0.000 N 
ATOM      4  C   UNL     1       7.612   7.186  18.106  0.00  0.00    +0.000 A 
ATOM      5  N   UNL     1       7.087   7.266  16.914  0.00  0.00    +0.000 NA
ATOM      6  C   UNL     1       6.265   6.174  16.651  0.00  0.00    +0.000 A 
ATOM      7  C   UNL     1       6.144   5.301  17.723  0.00  0.00    +0.000 A 
ATOM      8  S   UNL     1       7.215   5.789  18.992  0.00  0.00    +0.000 S 
ATOM      9  H   UNL     1       8.915   7.904  19.562  0.00  0.00    +0.000 HD
ENDROOT
BRANCH   2  10
ATOM     10  C   UNL     1       9.398  10.351  18.866  0.00  0.00    +0.000 A 
ATOM     11  C   UNL     1      10.436  10.904  18.118  0.00  0.00    +0.000 A 
ATOM     12  C   UNL     1      11.326  11.766  18.745  0.00  0.00    +0.000 A 
ATOM     13  C   UNL     1      11.159  12.034  20.097  0.00  0.00    +0.000 A 
ATOM     14  C   UNL     1      10.093  11.442  20.765  0.00  0.00    +0.000 A 
ATOM     15  N   UNL     1       9.190  10.612  20.188  0.00  0.00    +0.000 NA
ENDBRANCH   2  10
BRANCH   6  16
ATOM     16  C   UNL     1       5.602   6.059  15.310  0.00  0.00    +0.000 C 
ATOM     17  F   UNL     1       4.664   5.072  15.280  0.00  0.00    +0.000 F 
ATOM     18  F   UNL     1       4.960   7.203  14.964  0.00  0.00    +0.000 F 
ATOM     19  F   UNL     1       6.491   5.764  14.328  0.00  0.00    +0.000 F 
ENDBRANCH   6  16
BRANCH   7  20
ATOM     20  S   UNL     1       5.178   3.828  17.968  0.00  0.00    +0.000 S 
ATOM     21  O   UNL     1       5.466   3.026  16.798  0.00  0.00    +0.000 OA
ATOM     22  O   UNL     1       5.527   3.388  19.302  0.00  0.00    +0.000 OA
BRANCH  20  23
ATOM     23  C   UNL     1       3.480   4.397  17.894  0.00  0.00    +0.000 C 
BRANCH  23  24
ATOM     24  C   UNL     1       2.685   3.824  19.038  0.00  0.00    +0.000 A 
ATOM     25  C   UNL     1       1.926   2.652  18.893  0.00  0.00    +0.000 A 
ATOM     26  C   UNL     1       1.158   2.167  19.957  0.00  0.00    +0.000 A 
ATOM     27  C   UNL     1       1.143   2.839  21.180  0.00  0.00    +0.000 A 
ATOM     28  C   UNL     1       1.899   3.997  21.340  0.00  0.00    +0.000 A 
ATOM     29  C   UNL     1       2.660   4.476  20.275  0.00  0.00    +0.000 A 
ATOM     30  F   UNL     1       3.355   5.609  20.437  0.00  0.00    +0.000 F 
ENDBRANCH  23  24
ENDBRANCH  20  23
ENDBRANCH   7  20
TORSDOF 5
ENDMDL
MODEL 3
REMARK VINA RESULT:      -8.5      0.992      1.397
REMARK  Name = 
REMARK  5 active torsions:
REMARK  status: ('A' for Active; 'I' for Inactive)
REMARK    1  A    between atoms: C_2  and  C_24
REMARK    2  A    between atoms: C_6  and  C_7
REMARK    3  A    between atoms: C_11  and  S_12
REMARK    4  A    between atoms: S_12  and  C_15
REMARK    5  A    between atoms: C_15  and  C_16
REMARK                            x       y       z     vdW  Elec       q    Type
REMARK                         _______ _______ _______ _____ _____    ______ ____
ROOT
ATOM      1  O   UNL     1       7.708  10.234  17.606  0.00  0.00    +0.000 OA
ATOM      2  C   UNL     1       8.588   9.705  18.280  0.00  0.00    +0.000 C 
ATOM      3  N   UNL     1       8.660   8.365  18.619  0.00  0.00    +0.000 N 
ATOM      4  C   UNL     1       7.736   7.497  18.099  0.00  0.00    +0.000 A 
ATOM      5  N   UNL     1       6.949   7.716  17.080  0.00  0.00    +0.000 NA
ATOM      6  C   UNL     1       6.088   6.642  16.868  0.00  0.00    +0.000 A 
ATOM      7  C   UNL     1       6.219   5.634  17.812  0.00  0.00    +0.000 A 
ATOM      8  S   UNL     1       7.554   5.984  18.856  0.00  0.00    +0.000 S 
ATOM      9  H   UNL     1       9.340   8.058  19.301  0.00  0.00    +0.000 HD
ENDROOT
BRANCH   2  10
ATOM     10  C   UNL     1       9.650  10.588  18.848  0.00  0.00    +0.000 A 
ATOM     11  C   UNL     1       9.587  10.910  20.202  0.00  0.00    +0.000 A 
ATOM     12  C   UNL     1      10.550  11.756  20.734  0.00  0.00    +0.000 A 
ATOM     13  C   UNL     1      11.533  12.263  19.894  0.00  0.00    +0.000 A 
ATOM     14  C   UNL     1      11.524  11.886  18.556  0.00  0.00    +0.000 A 
ATOM     15  N   UNL     1      10.615  11.047  18.001  0.00  0.00    +0.000 NA
ENDBRANCH   2  10
BRANCH   6  16
ATOM     16  C   UNL     1       5.133   6.684  15.712  0.00  0.00    +0.000 C 
ATOM     17  F   UNL     1       3.905   7.145  16.073  0.00  0.00    +0.000 F 
ATOM     18  F   UNL     1       5.571   7.503  14.724  0.00  0.00    +0.000 F 
ATOM     19  F   UNL     1       4.931   5.453  15.176  0.00  0.00    +0.000 F 
ENDBRANCH   6  16
BRANCH   7  20
ATOM     20  S   UNL     1       5.336   4.112  18.072  0.00  0.00    +0.000 S 
ATOM     21  O   UNL     1       5.697   3.302  16.928  0.00  0.00    +0.000 OA
ATOM     22  O   UNL     1       5.679   3.723  19.423  0.00  0.00    +0.000 OA
BRANCH  20  23
ATOM     23  C   UNL     1       3.609   4.578  17.947  0.00  0.00    +0.000 C 
BRANCH  23  24
ATOM     24  C   UNL     1       2.814   3.943  19.058  0.00  0.00    +0.000 A 
ATOM     25  C   UNL     1       2.293   2.644  18.942  0.00  0.00    +0.000 A 
ATOM     26  C   UNL     1       1.517   2.096  19.969  0.00  0.00    +0.000 A 
ATOM     27  C   UNL     1       1.258   2.832  21.126  0.00  0.00    +0.000 A 
ATOM     28  C   UNL     1       1.776   4.117  21.257  0.00  0.00    +0.000 A 
ATOM     29  C   UNL     1       2.546   4.658  20.230  0.00  0.00    +0.000 A 
ATOM     30  F   UNL     1       3.010   5.908  20.361  0.00  0.00    +0.000 F 
ENDBRANCH  23  24
ENDBRANCH  20  23
ENDBRANCH   7  20
TORSDOF 5
ENDMDL
MODEL 4
REMARK VINA RESULT:      -8.5      4.496      7.201
REMARK  Name = 
REMARK  5 active torsions:
REMARK  status: ('A' for Active; 'I' for Inactive)
REMARK    1  A    between atoms: C_2  and  C_24
REMARK    2  A    between atoms: C_6  and  C_7
REMARK    3  A    between atoms: C_11  and  S_12
REMARK    4  A    between atoms: S_12  and  C_15
REMARK    5  A    between atoms: C_15  and  C_16
REMARK                            x       y       z     vdW  Elec       q    Type
REMARK                         _______ _______ _______ _____ _____    ______ ____
ROOT
ATOM      1  O   UNL     1       1.210   8.278  21.829  0.00  0.00    +0.000 OA
ATOM      2  C   UNL     1       1.240   8.796  20.715  0.00  0.00    +0.000 C 
ATOM      3  N   UNL     1       1.698   8.201  19.552  0.00  0.00    +0.000 N 
ATOM      4  C   UNL     1       2.076   6.885  19.583  0.00  0.00    +0.000 A 
ATOM      5  N   UNL     1       1.791   6.014  20.512  0.00  0.00    +0.000 NA
ATOM      6  C   UNL     1       2.395   4.786  20.256  0.00  0.00    +0.000 A 
ATOM      7  C   UNL     1       3.199   4.791  19.125  0.00  0.00    +0.000 A 
ATOM      8  S   UNL     1       3.040   6.306  18.305  0.00  0.00    +0.000 S 
ATOM      9  H   UNL     1       1.820   8.761  18.720  0.00  0.00    +0.000 HD
ENDROOT
BRANCH   2  10
ATOM     10  C   UNL     1       0.805  10.220  20.604  0.00  0.00    +0.000 A 
ATOM     11  C   UNL     1       0.801  10.812  19.342  0.00  0.00    +0.000 A 
ATOM     12  C   UNL     1       0.429  12.144  19.230  0.00  0.00    +0.000 A 
ATOM     13  C   UNL     1       0.088  12.843  20.381  0.00  0.00    +0.000 A 
ATOM     14  C   UNL     1       0.113  12.172  21.598  0.00  0.00    +0.000 A 
ATOM     15  N   UNL     1       0.450  10.868  21.749  0.00  0.00    +0.000 NA
ENDBRANCH   2  10
BRANCH   6  16
ATOM     16  C   UNL     1       2.151   3.638  21.190  0.00  0.00    +0.000 C 
ATOM     17  F   UNL     1       2.965   2.579  20.930  0.00  0.00    +0.000 F 
ATOM     18  F   UNL     1       2.375   3.980  22.483  0.00  0.00    +0.000 F 
ATOM     19  F   UNL     1       0.881   3.168  21.096  0.00  0.00    +0.000 F 
ENDBRANCH   6  16
BRANCH   7  20
ATOM     20  S   UNL     1       4.251   3.556  18.396  0.00  0.00    +0.000 S 
ATOM     21  O   UNL     1       5.250   3.306  19.415  0.00  0.00    +0.000 OA
ATOM     22  O   UNL     1       3.339   2.524  17.951  0.00  0.00    +0.000 OA
BRANCH  20  23
ATOM     23  C   UNL     1       5.017   4.392  17.008  0.00  0.00    +0.000 C 
BRANCH  23  24
ATOM     24  C   UNL     1       6.096   5.325  17.490  0.00  0.00    +0.000 A 
ATOM     25  C   UNL     1       6.961   4.973  18.538  0.00  0.00    +0.000 A 
ATOM     26  C   UNL     1       7.924   5.877  19.000  0.00  0.00    +0.000 A 
ATOM     27  C   UNL     1       8.042   7.139  18.418  0.00  0.00    +0.000 A 
ATOM     28  C   UNL     1       7.197   7.498  17.371  0.00  0.00    +0.000 A 
ATOM     29  C   UNL     1       6.238   6.594  16.918  0.00  0.00    +0.000 A 
ATOM     30  F   UNL     1       5.413   6.969  15.931  0.00  0.00    +0.000 F 
ENDBRANCH  23  24
ENDBRANCH  20  23
ENDBRANCH   7  20
TORSDOF 5
ENDMDL
MODEL 5
REMARK VINA RESULT:      -8.3      4.306      7.215
REMARK  Name = 
REMARK  5 active torsions:
REMARK  status: ('A' for Active; 'I' for Inactive)
REMARK    1  A    between atoms: C_2  and  C_24
REMARK    2  A    between atoms: C_6  and  C_7
REMARK    3  A    between atoms: C_11  and  S_12
REMARK    4  A    between atoms: S_12  and  C_15
REMARK    5  A    between atoms: C_15  and  C_16
REMARK                            x       y       z     vdW  Elec       q    Type
REMARK                         _______ _______ _______ _____ _____    ______ ____
ROOT
ATOM      1  O   UNL     1       1.142   7.931  21.964  0.00  0.00    +0.000 OA
ATOM      2  C   UNL     1       1.204   8.532  20.894  0.00  0.00    +0.000 C 
ATOM      3  N   UNL     1       1.722   8.035  19.710  0.00  0.00    +0.000 N 
ATOM      4  C   UNL     1       2.127   6.727  19.658  0.00  0.00    +0.000 A 
ATOM      5  N   UNL     1       1.824   5.784  20.508  0.00  0.00    +0.000 NA
ATOM      6  C   UNL     1       2.465   4.590  20.186  0.00  0.00    +0.000 A 
ATOM      7  C   UNL     1       3.313   4.695  19.093  0.00  0.00    +0.000 A 
ATOM      8  S   UNL     1       3.153   6.265  18.382  0.00  0.00    +0.000 S 
ATOM      9  H   UNL     1       1.864   8.658  18.927  0.00  0.00    +0.000 HD
ENDROOT
BRANCH   2  10
ATOM     10  C   UNL     1       0.743   9.951  20.870  0.00  0.00    +0.000 A 
ATOM     11  C   UNL     1       0.003  10.423  21.953  0.00  0.00    +0.000 A 
ATOM     12  C   UNL     1      -0.458  11.732  21.928  0.00  0.00    +0.000 A 
ATOM     13  C   UNL     1      -0.179  12.519  20.819  0.00  0.00    +0.000 A 
ATOM     14  C   UNL     1       0.570  11.969  19.785  0.00  0.00    +0.000 A 
ATOM     15  N   UNL     1       1.057  10.704  19.778  0.00  0.00    +0.000 NA
ENDBRANCH   2  10
BRANCH   6  16
ATOM     16  C   UNL     1       2.209   3.371  21.021  0.00  0.00    +0.000 C 
ATOM     17  F   UNL     1       1.809   3.684  22.284  0.00  0.00    +0.000 F 
ATOM     18  F   UNL     1       1.230   2.593  20.495  0.00  0.00    +0.000 F 
ATOM     19  F   UNL     1       3.323   2.606  21.157  0.00  0.00    +0.000 F 
ENDBRANCH   6  16
BRANCH   7  20
ATOM     20  S   UNL     1       4.420   3.539  18.318  0.00  0.00    +0.000 S 
ATOM     21  O   UNL     1       5.439   3.309  19.321  0.00  0.00    +0.000 OA
ATOM     22  O   UNL     1       3.558   2.476  17.847  0.00  0.00    +0.000 OA
BRANCH  20  23
ATOM     23  C   UNL     1       5.130   4.456  16.951  0.00  0.00    +0.000 C 
BRANCH  23  24
ATOM     24  C   UNL     1       6.186   5.407  17.452  0.00  0.00    +0.000 A 
ATOM     25  C   UNL     1       7.064   5.053  18.489  0.00  0.00    +0.000 A 
ATOM     26  C   UNL     1       8.004   5.973  18.969  0.00  0.00    +0.000 A 
ATOM     27  C   UNL     1       8.084   7.251  18.416  0.00  0.00    +0.000 A 
ATOM     28  C   UNL     1       7.226   7.611  17.381  0.00  0.00    +0.000 A 
ATOM     29  C   UNL     1       6.290   6.692  16.910  0.00  0.00    +0.000 A 
ATOM     30  F   UNL     1       5.451   7.067  15.935  0.00  0.00    +0.000 F 
ENDBRANCH  23  24
ENDBRANCH  20  23
ENDBRANCH   7  20
TORSDOF 5
ENDMDL
MODEL 6
REMARK VINA RESULT:      -8.2      1.244      1.951
REMARK  Name = 
REMARK  5 active torsions:
REMARK  status: ('A' for Active; 'I' for Inactive)
REMARK    1  A    between atoms: C_2  and  C_24
REMARK    2  A    between atoms: C_6  and  C_7
REMARK    3  A    between atoms: C_11  and  S_12
REMARK    4  A    between atoms: S_12  and  C_15
REMARK    5  A    between atoms: C_15  and  C_16
REMARK                            x       y       z     vdW  Elec       q    Type
REMARK                         _______ _______ _______ _____ _____    ______ ____
ROOT
ATOM      1  O   UNL     1       7.798   9.738  17.214  0.00  0.00    +0.000 OA
ATOM      2  C   UNL     1       8.447   9.309  18.165  0.00  0.00    +0.000 C 
ATOM      3  N   UNL     1       8.347   8.042  18.713  0.00  0.00    +0.000 N 
ATOM      4  C   UNL     1       7.531   7.120  18.112  0.00  0.00    +0.000 A 
ATOM      5  N   UNL     1       7.040   7.184  16.905  0.00  0.00    +0.000 NA
ATOM      6  C   UNL     1       6.194   6.109  16.646  0.00  0.00    +0.000 A 
ATOM      7  C   UNL     1       6.022   5.267  17.735  0.00  0.00    +0.000 A 
ATOM      8  S   UNL     1       7.072   5.756  19.020  0.00  0.00    +0.000 S 
ATOM      9  H   UNL     1       8.815   7.837  19.585  0.00  0.00    +0.000 HD
ENDROOT
BRANCH   2  10
ATOM     10  C   UNL     1       9.385  10.252  18.843  0.00  0.00    +0.000 A 
ATOM     11  C   UNL     1       9.184  10.526  20.195  0.00  0.00    +0.000 A 
ATOM     12  C   UNL     1      10.030  11.425  20.828  0.00  0.00    +0.000 A 
ATOM     13  C   UNL     1      11.039  12.029  20.089  0.00  0.00    +0.000 A 
ATOM     14  C   UNL     1      11.171  11.694  18.747  0.00  0.00    +0.000 A 
ATOM     15  N   UNL     1      10.380  10.807  18.095  0.00  0.00    +0.000 NA
ENDBRANCH   2  10
BRANCH   6  16
ATOM     16  C   UNL     1       5.563   5.979  15.291  0.00  0.00    +0.000 C 
ATOM     17  F   UNL     1       4.865   7.093  14.938  0.00  0.00    +0.000 F 
ATOM     18  F   UNL     1       6.489   5.788  14.318  0.00  0.00    +0.000 F 
ATOM     19  F   UNL     1       4.682   4.949  15.238  0.00  0.00    +0.000 F 
ENDBRANCH   6  16
BRANCH   7  20
ATOM     20  S   UNL     1       5.009   3.827  17.990  0.00  0.00    +0.000 S 
ATOM     21  O   UNL     1       5.464   2.899  16.977  0.00  0.00    +0.000 OA
ATOM     22  O   UNL     1       5.138   3.541  19.403  0.00  0.00    +0.000 OA
BRANCH  20  23
ATOM     23  C   UNL     1       3.351   4.378  17.587  0.00  0.00    +0.000 C 
BRANCH  23  24
ATOM     24  C   UNL     1       2.788   5.209  18.710  0.00  0.00    +0.000 A 
ATOM     25  C   UNL     1       2.226   4.620  19.853  0.00  0.00    +0.000 A 
ATOM     26  C   UNL     1       1.665   5.414  20.860  0.00  0.00    +0.000 A 
ATOM     27  C   UNL     1       1.666   6.804  20.743  0.00  0.00    +0.000 A 
ATOM     28  C   UNL     1       2.229   7.402  19.618  0.00  0.00    +0.000 A 
ATOM     29  C   UNL     1       2.783   6.605  18.618  0.00  0.00    +0.000 A 
ATOM     30  F   UNL     1       3.291   7.197  17.529  0.00  0.00    +0.000 F 
ENDBRANCH  23  24
ENDBRANCH  20  23
ENDBRANCH   7  20
TORSDOF 5
ENDMDL
MODEL 7
REMARK VINA RESULT:      -8.1      6.912      8.946
REMARK  Name = 
REMARK  5 active torsions:
REMARK  status: ('A' for Active; 'I' for Inactive)
REMARK    1  A    between atoms: C_2  and  C_24
REMARK    2  A    between atoms: C_6  and  C_7
REMARK    3  A    between atoms: C_11  and  S_12
REMARK    4  A    between atoms: S_12  and  C_15
REMARK    5  A    between atoms: C_15  and  C_16
REMARK                            x       y       z     vdW  Elec       q    Type
REMARK                         _______ _______ _______ _____ _____    ______ ____
ROOT
ATOM      1  O   UNL     1       2.556   5.824  18.919  0.00  0.00    +0.000 OA
ATOM      2  C   UNL     1       3.181   6.454  18.069  0.00  0.00    +0.000 C 
ATOM      3  N   UNL     1       3.056   7.806  17.802  0.00  0.00    +0.000 N 
ATOM      4  C   UNL     1       2.240   8.568  18.597  0.00  0.00    +0.000 A 
ATOM      5  N   UNL     1       1.772   8.243  19.771  0.00  0.00    +0.000 NA
ATOM      6  C   UNL     1       0.918   9.227  20.264  0.00  0.00    +0.000 A 
ATOM      7  C   UNL     1       0.714  10.276  19.379  0.00  0.00    +0.000 A 
ATOM      8  S   UNL     1       1.747  10.085  18.004  0.00  0.00    +0.000 S 
ATOM      9  H   UNL     1       3.505   8.198  16.986  0.00  0.00    +0.000 HD
ENDROOT
BRANCH   2  10
ATOM     10  C   UNL     1       4.118   5.690  17.193  0.00  0.00    +0.000 A 
ATOM     11  C   UNL     1       4.142   4.302  17.304  0.00  0.00    +0.000 A 
ATOM     12  C   UNL     1       5.032   3.583  16.517  0.00  0.00    +0.000 A 
ATOM     13  C   UNL     1       5.876   4.276  15.658  0.00  0.00    +0.000 A 
ATOM     14  C   UNL     1       5.781   5.662  15.608  0.00  0.00    +0.000 A 
ATOM     15  N   UNL     1       4.913   6.399  16.343  0.00  0.00    +0.000 NA
ENDBRANCH   2  10
BRANCH   6  16
ATOM     16  C   UNL     1       0.311   9.058  21.625  0.00  0.00    +0.000 C 
ATOM     17  F   UNL     1       1.197   8.552  22.526  0.00  0.00    +0.000 F 
ATOM     18  F   UNL     1      -0.117  10.239  22.138  0.00  0.00    +0.000 F 
ATOM     19  F   UNL     1      -0.742   8.202  21.609  0.00  0.00    +0.000 F 
ENDBRANCH   6  16
BRANCH   7  20
ATOM     20  S   UNL     1      -0.321  11.720  19.449  0.00  0.00    +0.000 S 
ATOM     21  O   UNL     1       0.062  12.362  20.690  0.00  0.00    +0.000 OA
ATOM     22  O   UNL     1      -0.130  12.362  18.167  0.00  0.00    +0.000 OA
BRANCH  20  23
ATOM     23  C   UNL     1      -1.982  11.065  19.609  0.00  0.00    +0.000 C 
BRANCH  23  24
ATOM     24  C   UNL     1      -2.603  10.877  18.250  0.00  0.00    +0.000 A 
ATOM     25  C   UNL     1      -2.020  10.044  17.282  0.00  0.00    +0.000 A 
ATOM     26  C   UNL     1      -2.591   9.925  16.010  0.00  0.00    +0.000 A 
ATOM     27  C   UNL     1      -3.753  10.628  15.690  0.00  0.00    +0.000 A 
ATOM     28  C   UNL     1      -4.347  11.450  16.644  0.00  0.00    +0.000 A 
ATOM     29  C   UNL     1      -3.772  11.566  17.908  0.00  0.00    +0.000 A 
ATOM     30  F   UNL     1      -4.339  12.386  18.802  0.00  0.00    +0.000 F 
ENDBRANCH  23  24
ENDBRANCH  20  23
ENDBRANCH   7  20
TORSDOF 5
ENDMDL
MODEL 8
REMARK VINA RESULT:      -8.1      4.664      7.265
REMARK  Name = 
REMARK  5 active torsions:
REMARK  status: ('A' for Active; 'I' for Inactive)
REMARK    1  A    between atoms: C_2  and  C_24
REMARK    2  A    between atoms: C_6  and  C_7
REMARK    3  A    between atoms: C_11  and  S_12
REMARK    4  A    between atoms: S_12  and  C_15
REMARK    5  A    between atoms: C_15  and  C_16
REMARK                            x       y       z     vdW  Elec       q    Type
REMARK                         _______ _______ _______ _____ _____    ______ ____
ROOT
ATOM      1  O   UNL     1       1.721   7.551  20.490  0.00  0.00    +0.000 OA
ATOM      2  C   UNL     1       1.781   8.285  19.507  0.00  0.00    +0.000 C 
ATOM      3  N   UNL     1       2.530   8.058  18.366  0.00  0.00    +0.000 N 
ATOM      4  C   UNL     1       3.208   6.874  18.240  0.00  0.00    +0.000 A 
ATOM      5  N   UNL     1       3.014   5.787  18.938  0.00  0.00    +0.000 NA
ATOM      6  C   UNL     1       3.928   4.796  18.592  0.00  0.00    +0.000 A 
ATOM      7  C   UNL     1       4.859   5.207  17.648  0.00  0.00    +0.000 A 
ATOM      8  S   UNL     1       4.454   6.791  17.085  0.00  0.00    +0.000 S 
ATOM      9  H   UNL     1       2.629   8.792  17.679  0.00  0.00    +0.000 HD
ENDROOT
BRANCH   2  10
ATOM     10  C   UNL     1       1.033   9.576  19.562  0.00  0.00    +0.000 A 
ATOM     11  C   UNL     1       0.014   9.710  20.502  0.00  0.00    +0.000 A 
ATOM     12  C   UNL     1      -0.709  10.894  20.541  0.00  0.00    +0.000 A 
ATOM     13  C   UNL     1      -0.400  11.897  19.631  0.00  0.00    +0.000 A 
ATOM     14  C   UNL     1       0.637  11.682  18.730  0.00  0.00    +0.000 A 
ATOM     15  N   UNL     1       1.380  10.550  18.672  0.00  0.00    +0.000 NA
ENDBRANCH   2  10
BRANCH   6  16
ATOM     16  C   UNL     1       3.841   3.453  19.254  0.00  0.00    +0.000 C 
ATOM     17  F   UNL     1       3.447   2.476  18.391  0.00  0.00    +0.000 F 
ATOM     18  F   UNL     1       5.038   3.056  19.754  0.00  0.00    +0.000 F 
ATOM     19  F   UNL     1       2.940   3.444  20.269  0.00  0.00    +0.000 F 
ENDBRANCH   6  16
BRANCH   7  20
ATOM     20  S   UNL     1       6.272   4.402  16.928  0.00  0.00    +0.000 S 
ATOM     21  O   UNL     1       7.268   4.444  17.978  0.00  0.00    +0.000 OA
ATOM     22  O   UNL     1       5.752   3.151  16.418  0.00  0.00    +0.000 OA
BRANCH  20  23
ATOM     23  C   UNL     1       6.769   5.492  15.595  0.00  0.00    +0.000 C 
BRANCH  23  24
ATOM     24  C   UNL     1       6.544   4.826  14.263  0.00  0.00    +0.000 A 
ATOM     25  C   UNL     1       5.410   4.038  14.016  0.00  0.00    +0.000 A 
ATOM     26  C   UNL     1       5.249   3.390  12.785  0.00  0.00    +0.000 A 
ATOM     27  C   UNL     1       6.212   3.527  11.786  0.00  0.00    +0.000 A 
ATOM     28  C   UNL     1       7.338   4.314  12.015  0.00  0.00    +0.000 A 
ATOM     29  C   UNL     1       7.493   4.954  13.243  0.00  0.00    +0.000 A 
ATOM     30  F   UNL     1       8.598   5.681  13.456  0.00  0.00    +0.000 F 
ENDBRANCH  23  24
ENDBRANCH  20  23
ENDBRANCH   7  20
TORSDOF 5
ENDMDL
MODEL 9
REMARK VINA RESULT:      -8.1      6.613      8.606
REMARK  Name = 
REMARK  5 active torsions:
REMARK  status: ('A' for Active; 'I' for Inactive)
REMARK    1  A    between atoms: C_2  and  C_24
REMARK    2  A    between atoms: C_6  and  C_7
REMARK    3  A    between atoms: C_11  and  S_12
REMARK    4  A    between atoms: S_12  and  C_15
REMARK    5  A    between atoms: C_15  and  C_16
REMARK                            x       y       z     vdW  Elec       q    Type
REMARK                         _______ _______ _______ _____ _____    ______ ____
ROOT
ATOM      1  O   UNL     1       3.250   5.255  18.244  0.00  0.00    +0.000 OA
ATOM      2  C   UNL     1       3.819   6.010  17.461  0.00  0.00    +0.000 C 
ATOM      3  N   UNL     1       3.611   7.374  17.348  0.00  0.00    +0.000 N 
ATOM      4  C   UNL     1       2.771   7.994  18.234  0.00  0.00    +0.000 A 
ATOM      5  N   UNL     1       2.347   7.515  19.373  0.00  0.00    +0.000 NA
ATOM      6  C   UNL     1       1.450   8.385  19.984  0.00  0.00    +0.000 A 
ATOM      7  C   UNL     1       1.168   9.512  19.225  0.00  0.00    +0.000 A 
ATOM      8  S   UNL     1       2.179   9.535  17.822  0.00  0.00    +0.000 S 
ATOM      9  H   UNL     1       4.019   7.879  16.573  0.00  0.00    +0.000 HD
ENDROOT
BRANCH   2  10
ATOM     10  C   UNL     1       4.779   5.405  16.491  0.00  0.00    +0.000 A 
ATOM     11  C   UNL     1       4.948   4.022  16.505  0.00  0.00    +0.000 A 
ATOM     12  C   UNL     1       5.861   3.450  15.629  0.00  0.00    +0.000 A 
ATOM     13  C   UNL     1       6.584   4.279  14.782  0.00  0.00    +0.000 A 
ATOM     14  C   UNL     1       6.349   5.648  14.831  0.00  0.00    +0.000 A 
ATOM     15  N   UNL     1       5.453   6.245  15.655  0.00  0.00    +0.000 NA
ENDBRANCH   2  10
BRANCH   6  16
ATOM     16  C   UNL     1       0.883   8.032  21.328  0.00  0.00    +0.000 C 
ATOM     17  F   UNL     1      -0.454   8.273  21.403  0.00  0.00    +0.000 F 
ATOM     18  F   UNL     1       1.049   6.717  21.617  0.00  0.00    +0.000 F 
ATOM     19  F   UNL     1       1.453   8.755  22.325  0.00  0.00    +0.000 F 
ENDBRANCH   6  16
BRANCH   7  20
ATOM     20  S   UNL     1       0.053  10.876  19.472  0.00  0.00    +0.000 S 
ATOM     21  O   UNL     1       0.539  11.890  18.559  0.00  0.00    +0.000 OA
ATOM     22  O   UNL     1      -1.264  10.293  19.335  0.00  0.00    +0.000 OA
BRANCH  20  23
ATOM     23  C   UNL     1       0.363  11.400  21.158  0.00  0.00    +0.000 C 
BRANCH  23  24
ATOM     24  C   UNL     1      -0.891  11.973  21.765  0.00  0.00    +0.000 A 
ATOM     25  C   UNL     1      -1.483  13.143  21.265  0.00  0.00    +0.000 A 
ATOM     26  C   UNL     1      -2.620  13.683  21.879  0.00  0.00    +0.000 A 
ATOM     27  C   UNL     1      -3.183  13.059  22.992  0.00  0.00    +0.000 A 
ATOM     28  C   UNL     1      -2.610  11.892  23.493  0.00  0.00    +0.000 A 
ATOM     29  C   UNL     1      -1.477  11.362  22.879  0.00  0.00    +0.000 A 
ATOM     30  F   UNL     1      -0.922  10.257  23.394  0.00  0.00    +0.000 F 
ENDBRANCH  23  24
ENDBRANCH  20  23
ENDBRANCH   7  20
TORSDOF 5
ENDMDL
