MODEL 1
REMARK VINA RESULT:      -7.9      0.000      0.000
REMARK  Name = 
REMARK  11 active torsions:
REMARK  status: ('A' for Active; 'I' for Inactive)
REMARK    1  A    between atoms: C_1  and  C_2
REMARK    2  A    between atoms: C_2  and  O_3
REMARK    3  A    between atoms: O_3  and  C_4
REMARK    4  A    between atoms: C_4  and  C_6
REMARK    5  A    between atoms: N_9  and  C_10
REMARK    6  A    between atoms: C_10  and  C_11
REMARK    7  A    between atoms: N_16  and  C_17
REMARK    8  A    between atoms: C_24  and  C_25
REMARK    9  A    between atoms: C_25  and  O_27
REMARK   10  A    between atoms: O_27  and  C_28
REMARK   11  A    between atoms: C_28  and  C_29
REMARK                            x       y       z     vdW  Elec       q    Type
REMARK                         _______ _______ _______ _____ _____    ______ ____
ROOT
ATOM      1  C   UNL     1       4.830   4.464  18.912  0.00  0.00    +0.000 C 
ENDROOT
BRANCH   1   2
ATOM      2  C   UNL     1       3.797   5.531  19.151  0.00  0.00    +0.000 C 
ATOM      3  O   UNL     1       3.155   5.545  20.205  0.00  0.00    +0.000 OA
ATOM      4  N   UNL     1       3.703   6.537  18.208  0.00  0.00    +0.000 N 
ATOM      5  C   UNL     1       2.868   7.634  18.218  0.00  0.00    +0.000 C 
ATOM      6  O   UNL     1       2.830   8.331  17.207  0.00  0.00    +0.000 OA
ATOM      7  N   UNL     1       2.174   7.841  19.379  0.00  0.00    +0.000 N 
ATOM      8  H   UNL     1       4.230   6.476  17.343  0.00  0.00    +0.000 HD
ATOM      9  H   UNL     1       2.416   7.238  20.166  0.00  0.00    +0.000 HD
BRANCH   7  10
ATOM     10  C   UNL     1       1.246   8.863  19.656  0.00  0.00    +0.000 A 
ATOM     11  C   UNL     1       0.683   9.685  18.674  0.00  0.00    +0.000 A 
ATOM     12  C   UNL     1      -0.234  10.676  19.022  0.00  0.00    +0.000 A 
ATOM     13  C   UNL     1      -0.597  10.866  20.355  0.00  0.00    +0.000 A 
ATOM     14  C   UNL     1      -0.048  10.051  21.345  0.00  0.00    +0.000 A 
ATOM     15  C   UNL     1       0.856   9.054  20.987  0.00  0.00    +0.000 A 
ATOM     16  F   UNL     1       1.382   8.283  21.953  0.00  0.00    +0.000 F 
ENDBRANCH   7  10
ENDBRANCH   1   2
BRANCH   1  20
ATOM     17  C   UNL     1       5.824   4.340  15.481  0.00  0.00    +0.000 A 
ATOM     18  N   UNL     1       4.512   3.928  15.471  0.00  0.00    +0.000 NA
ATOM     19  N   UNL     1       4.104   3.803  16.724  0.00  0.00    +0.000 NA
ATOM     20  N   UNL     1       5.114   4.201  17.518  0.00  0.00    +0.000 N 
ATOM     21  C   UNL     1       6.248   4.468  16.797  0.00  0.00    +0.000 A 
BRANCH  17  22
ATOM     22  C   UNL     1       6.588   4.613  14.280  0.00  0.00    +0.000 C 
ATOM     23  O   UNL     1       7.690   5.144  14.283  0.00  0.00    +0.000 OA
BRANCH  22  24
ATOM     24  O   UNL     1       5.884   4.296  13.151  0.00  0.00    +0.000 OA
BRANCH  24  26
ATOM     25  C   UNL     1       5.417   2.455  11.696  0.00  0.00    +0.000 C 
ATOM     26  C   UNL     1       6.507   3.320  12.305  0.00  0.00    +0.000 C 
ENDBRANCH  24  26
ENDBRANCH  22  24
ENDBRANCH  17  22
BRANCH  21  27
ATOM     27  C   UNL     1       7.519   4.876  17.312  0.00  0.00    +0.000 C 
ATOM     28  O   UNL     1       8.371   4.144  17.789  0.00  0.00    +0.000 OA
BRANCH  27  29
ATOM     29  O   UNL     1       7.635   6.224  17.166  0.00  0.00    +0.000 OA
BRANCH  29  30
ATOM     30  C   UNL     1       7.927   6.966  18.359  0.00  0.00    +0.000 C 
ATOM     31  C   UNL     1       8.136   8.434  18.041  0.00  0.00    +0.000 C 
ENDBRANCH  29  30
ENDBRANCH  27  29
ENDBRANCH  21  27
ENDBRANCH   1  20
TORSDOF 9
ENDMDL
MODEL 2
REMARK VINA RESULT:      -7.8      3.753      6.828
REMARK  Name = 
REMARK  11 active torsions:
REMARK  status: ('A' for Active; 'I' for Inactive)
REMARK    1  A    between atoms: C_1  and  C_2
REMARK    2  A    between atoms: C_2  and  O_3
REMARK    3  A    between atoms: O_3  and  C_4
REMARK    4  A    between atoms: C_4  and  C_6
REMARK    5  A    between atoms: N_9  and  C_10
REMARK    6  A    between atoms: C_10  and  C_11
REMARK    7  A    between atoms: N_16  and  C_17
REMARK    8  A    between atoms: C_24  and  C_25
REMARK    9  A    between atoms: C_25  and  O_27
REMARK   10  A    between atoms: O_27  and  C_28
REMARK   11  A    between atoms: C_28  and  C_29
REMARK                            x       y       z     vdW  Elec       q    Type
REMARK                         _______ _______ _______ _____ _____    ______ ____
ROOT
ATOM      1  C   UNL     1       7.634   5.613  17.777  0.00  0.00    +0.000 C 
ENDROOT
BRANCH   1   2
ATOM      2  C   UNL     1       8.093   6.900  18.407  0.00  0.00    +0.000 C 
ATOM      3  O   UNL     1       8.738   6.877  19.458  0.00  0.00    +0.000 OA
ATOM      4  N   UNL     1       7.869   8.062  17.695  0.00  0.00    +0.000 N 
ATOM      5  C   UNL     1       8.223   9.349  18.038  0.00  0.00    +0.000 C 
ATOM      6  O   UNL     1       7.795  10.265  17.340  0.00  0.00    +0.000 OA
ATOM      7  N   UNL     1       9.042   9.469  19.129  0.00  0.00    +0.000 N 
ATOM      8  H   UNL     1       7.313   8.041  16.847  0.00  0.00    +0.000 HD
ATOM      9  H   UNL     1       9.406   8.599  19.520  0.00  0.00    +0.000 HD
BRANCH   7  10
ATOM     10  C   UNL     1       9.537  10.653  19.707  0.00  0.00    +0.000 A 
ATOM     11  C   UNL     1       9.165  11.110  20.976  0.00  0.00    +0.000 A 
ATOM     12  C   UNL     1       9.701  12.292  21.486  0.00  0.00    +0.000 A 
ATOM     13  C   UNL     1      10.608  13.039  20.735  0.00  0.00    +0.000 A 
ATOM     14  C   UNL     1      10.992  12.593  19.471  0.00  0.00    +0.000 A 
ATOM     15  C   UNL     1      10.464  11.404  18.975  0.00  0.00    +0.000 A 
ATOM     16  F   UNL     1      10.837  10.993  17.751  0.00  0.00    +0.000 F 
ENDBRANCH   7  10
ENDBRANCH   1   2
BRANCH   1  20
ATOM     17  C   UNL     1       4.108   5.226  18.207  0.00  0.00    +0.000 A 
ATOM     18  N   UNL     1       4.637   4.910  19.436  0.00  0.00    +0.000 NA
ATOM     19  N   UNL     1       5.956   4.886  19.328  0.00  0.00    +0.000 NA
ATOM     20  N   UNL     1       6.264   5.252  18.072  0.00  0.00    +0.000 N 
ATOM     21  C   UNL     1       5.143   5.395  17.298  0.00  0.00    +0.000 A 
BRANCH  17  22
ATOM     22  C   UNL     1       2.687   5.374  17.960  0.00  0.00    +0.000 C 
ATOM     23  O   UNL     1       2.107   6.453  17.957  0.00  0.00    +0.000 OA
BRANCH  22  24
ATOM     24  O   UNL     1       2.067   4.162  17.832  0.00  0.00    +0.000 OA
BRANCH  24  26
ATOM     25  C   UNL     1       0.826   2.330  18.743  0.00  0.00    +0.000 C 
ATOM     26  C   UNL     1       1.283   3.762  18.964  0.00  0.00    +0.000 C 
ENDBRANCH  24  26
ENDBRANCH  22  24
ENDBRANCH  17  22
BRANCH  21  27
ATOM     27  C   UNL     1       5.093   5.737  15.910  0.00  0.00    +0.000 C 
ATOM     28  O   UNL     1       5.017   6.865  15.449  0.00  0.00    +0.000 OA
BRANCH  27  29
ATOM     29  O   UNL     1       5.165   4.594  15.176  0.00  0.00    +0.000 OA
BRANCH  29  30
ATOM     30  C   UNL     1       6.368   4.403  14.418  0.00  0.00    +0.000 C 
ATOM     31  C   UNL     1       6.077   3.670  13.122  0.00  0.00    +0.000 C 
ENDBRANCH  29  30
ENDBRANCH  27  29
ENDBRANCH  21  27
ENDBRANCH   1  20
TORSDOF 9
ENDMDL
MODEL 3
REMARK VINA RESULT:      -7.8      1.143      1.269
REMARK  Name = 
REMARK  11 active torsions:
REMARK  status: ('A' for Active; 'I' for Inactive)
REMARK    1  A    between atoms: C_1  and  C_2
REMARK    2  A    between atoms: C_2  and  O_3
REMARK    3  A    between atoms: O_3  and  C_4
REMARK    4  A    between atoms: C_4  and  C_6
REMARK    5  A    between atoms: N_9  and  C_10
REMARK    6  A    between atoms: C_10  and  C_11
REMARK    7  A    between atoms: N_16  and  C_17
REMARK    8  A    between atoms: C_24  and  C_25
REMARK    9  A    between atoms: C_25  and  O_27
REMARK   10  A    between atoms: O_27  and  C_28
REMARK   11  A    between atoms: C_28  and  C_29
REMARK                            x       y       z     vdW  Elec       q    Type
REMARK                         _______ _______ _______ _____ _____    ______ ____
ROOT
ATOM      1  C   UNL     1       3.812   4.989  19.709  0.00  0.00    +0.000 C 
ENDROOT
BRANCH   1   2
ATOM      2  C   UNL     1       2.843   6.137  19.618  0.00  0.00    +0.000 C 
ATOM      3  O   UNL     1       1.988   6.293  20.494  0.00  0.00    +0.000 OA
ATOM      4  N   UNL     1       3.043   7.049  18.600  0.00  0.00    +0.000 N 
ATOM      5  C   UNL     1       2.321   8.191  18.330  0.00  0.00    +0.000 C 
ATOM      6  O   UNL     1       2.564   8.787  17.283  0.00  0.00    +0.000 OA
ATOM      7  N   UNL     1       1.406   8.554  19.281  0.00  0.00    +0.000 N 
ATOM      8  H   UNL     1       3.741   6.870  17.886  0.00  0.00    +0.000 HD
ATOM      9  H   UNL     1       1.418   8.018  20.150  0.00  0.00    +0.000 HD
BRANCH   7  10
ATOM     10  C   UNL     1       0.527   9.654  19.255  0.00  0.00    +0.000 A 
ATOM     11  C   UNL     1      -0.307   9.952  18.172  0.00  0.00    +0.000 A 
ATOM     12  C   UNL     1      -1.155  11.059  18.219  0.00  0.00    +0.000 A 
ATOM     13  C   UNL     1      -1.178  11.886  19.341  0.00  0.00    +0.000 A 
ATOM     14  C   UNL     1      -0.355  11.597  20.429  0.00  0.00    +0.000 A 
ATOM     15  C   UNL     1       0.478  10.483  20.382  0.00  0.00    +0.000 A 
ATOM     16  F   UNL     1       1.271  10.225  21.435  0.00  0.00    +0.000 F 
ENDBRANCH   7  10
ENDBRANCH   1   2
BRANCH   1  20
ATOM     17  C   UNL     1       5.384   4.460  16.544  0.00  0.00    +0.000 A 
ATOM     18  N   UNL     1       4.130   3.917  16.396  0.00  0.00    +0.000 NA
ATOM     19  N   UNL     1       3.525   3.938  17.573  0.00  0.00    +0.000 NA
ATOM     20  N   UNL     1       4.350   4.553  18.439  0.00  0.00    +0.000 N 
ATOM     21  C   UNL     1       5.566   4.826  17.871  0.00  0.00    +0.000 A 
BRANCH  17  22
ATOM     22  C   UNL     1       6.320   4.629  15.449  0.00  0.00    +0.000 C 
ATOM     23  O   UNL     1       7.511   4.862  15.604  0.00  0.00    +0.000 OA
BRANCH  22  24
ATOM     24  O   UNL     1       5.688   4.594  14.236  0.00  0.00    +0.000 OA
BRANCH  24  26
ATOM     25  C   UNL     1       5.259   3.354  12.235  0.00  0.00    +0.000 C 
ATOM     26  C   UNL     1       6.312   3.756  13.254  0.00  0.00    +0.000 C 
ENDBRANCH  24  26
ENDBRANCH  22  24
ENDBRANCH  17  22
BRANCH  21  27
ATOM     27  C   UNL     1       6.694   5.436  18.504  0.00  0.00    +0.000 C 
ATOM     28  O   UNL     1       7.479   4.887  19.261  0.00  0.00    +0.000 OA
BRANCH  27  29
ATOM     29  O   UNL     1       6.764   6.736  18.109  0.00  0.00    +0.000 OA
BRANCH  29  30
ATOM     30  C   UNL     1       8.060   7.350  18.181  0.00  0.00    +0.000 C 
ATOM     31  C   UNL     1       7.987   8.809  17.771  0.00  0.00    +0.000 C 
ENDBRANCH  29  30
ENDBRANCH  27  29
ENDBRANCH  21  27
ENDBRANCH   1  20
TORSDOF 9
ENDMDL
MODEL 4
REMARK VINA RESULT:      -7.8      1.813      2.337
REMARK  Name = 
REMARK  11 active torsions:
REMARK  status: ('A' for Active; 'I' for Inactive)
REMARK    1  A    between atoms: C_1  and  C_2
REMARK    2  A    between atoms: C_2  and  O_3
REMARK    3  A    between atoms: O_3  and  C_4
REMARK    4  A    between atoms: C_4  and  C_6
REMARK    5  A    between atoms: N_9  and  C_10
REMARK    6  A    between atoms: C_10  and  C_11
REMARK    7  A    between atoms: N_16  and  C_17
REMARK    8  A    between atoms: C_24  and  C_25
REMARK    9  A    between atoms: C_25  and  O_27
REMARK   10  A    between atoms: O_27  and  C_28
REMARK   11  A    between atoms: C_28  and  C_29
REMARK                            x       y       z     vdW  Elec       q    Type
REMARK                         _______ _______ _______ _____ _____    ______ ____
ROOT
ATOM      1  C   UNL     1       3.408   5.259  19.797  0.00  0.00    +0.000 C 
ENDROOT
BRANCH   1   2
ATOM      2  C   UNL     1       2.794   6.620  19.615  0.00  0.00    +0.000 C 
ATOM      3  O   UNL     1       2.885   7.198  18.529  0.00  0.00    +0.000 OA
ATOM      4  N   UNL     1       2.038   7.114  20.661  0.00  0.00    +0.000 N 
ATOM      5  C   UNL     1       1.352   8.308  20.723  0.00  0.00    +0.000 C 
ATOM      6  O   UNL     1       0.866   8.631  21.804  0.00  0.00    +0.000 OA
ATOM      7  N   UNL     1       1.271   9.008  19.549  0.00  0.00    +0.000 N 
ATOM      8  H   UNL     1       2.009   6.620  21.547  0.00  0.00    +0.000 HD
ATOM      9  H   UNL     1       1.623   8.537  18.715  0.00  0.00    +0.000 HD
BRANCH   7  10
ATOM     10  C   UNL     1       0.654  10.254  19.332  0.00  0.00    +0.000 A 
ATOM     11  C   UNL     1       0.956  11.407  20.066  0.00  0.00    +0.000 A 
ATOM     12  C   UNL     1       0.305  12.609  19.792  0.00  0.00    +0.000 A 
ATOM     13  C   UNL     1      -0.660  12.678  18.788  0.00  0.00    +0.000 A 
ATOM     14  C   UNL     1      -0.967  11.538  18.045  0.00  0.00    +0.000 A 
ATOM     15  C   UNL     1      -0.303  10.345  18.314  0.00  0.00    +0.000 A 
ATOM     16  F   UNL     1      -0.617   9.255  17.595  0.00  0.00    +0.000 F 
ENDBRANCH   7  10
ENDBRANCH   1   2
BRANCH   1  20
ATOM     17  C   UNL     1       5.210   4.460  16.816  0.00  0.00    +0.000 A 
ATOM     18  N   UNL     1       3.960   3.924  16.613  0.00  0.00    +0.000 NA
ATOM     19  N   UNL     1       3.266   4.046  17.733  0.00  0.00    +0.000 NA
ATOM     20  N   UNL     1       4.033   4.716  18.611  0.00  0.00    +0.000 N 
ATOM     21  C   UNL     1       5.295   4.926  18.121  0.00  0.00    +0.000 A 
BRANCH  17  22
ATOM     22  C   UNL     1       6.230   4.529  15.789  0.00  0.00    +0.000 C 
ATOM     23  O   UNL     1       7.431   4.552  16.025  0.00  0.00    +0.000 OA
BRANCH  22  24
ATOM     24  O   UNL     1       5.684   4.666  14.543  0.00  0.00    +0.000 OA
BRANCH  24  26
ATOM     25  C   UNL     1       5.327   3.469  12.502  0.00  0.00    +0.000 C 
ATOM     26  C   UNL     1       6.364   3.950  13.503  0.00  0.00    +0.000 C 
ENDBRANCH  24  26
ENDBRANCH  22  24
ENDBRANCH  17  22
BRANCH  21  27
ATOM     27  C   UNL     1       6.383   5.570  18.792  0.00  0.00    +0.000 C 
ATOM     28  O   UNL     1       6.986   5.138  19.762  0.00  0.00    +0.000 OA
BRANCH  27  29
ATOM     29  O   UNL     1       6.653   6.743  18.159  0.00  0.00    +0.000 OA
BRANCH  29  30
ATOM     30  C   UNL     1       7.986   7.252  18.311  0.00  0.00    +0.000 C 
ATOM     31  C   UNL     1       8.076   8.682  17.815  0.00  0.00    +0.000 C 
ENDBRANCH  29  30
ENDBRANCH  27  29
ENDBRANCH  21  27
ENDBRANCH   1  20
TORSDOF 9
ENDMDL
MODEL 5
REMARK VINA RESULT:      -7.7      1.987      3.316
REMARK  Name = 
REMARK  11 active torsions:
REMARK  status: ('A' for Active; 'I' for Inactive)
REMARK    1  A    between atoms: C_1  and  C_2
REMARK    2  A    between atoms: C_2  and  O_3
REMARK    3  A    between atoms: O_3  and  C_4
REMARK    4  A    between atoms: C_4  and  C_6
REMARK    5  A    between atoms: N_9  and  C_10
REMARK    6  A    between atoms: C_10  and  C_11
REMARK    7  A    between atoms: N_16  and  C_17
REMARK    8  A    between atoms: C_24  and  C_25
REMARK    9  A    between atoms: C_25  and  O_27
REMARK   10  A    between atoms: O_27  and  C_28
REMARK   11  A    between atoms: C_28  and  C_29
REMARK                            x       y       z     vdW  Elec       q    Type
REMARK                         _______ _______ _______ _____ _____    ______ ____
ROOT
ATOM      1  C   UNL     1       3.316   5.845  19.800  0.00  0.00    +0.000 C 
ENDROOT
BRANCH   1   2
ATOM      2  C   UNL     1       2.331   6.980  19.723  0.00  0.00    +0.000 C 
ATOM      3  O   UNL     1       1.515   7.152  20.631  0.00  0.00    +0.000 OA
ATOM      4  N   UNL     1       2.475   7.867  18.672  0.00  0.00    +0.000 N 
ATOM      5  C   UNL     1       1.728   8.994  18.405  0.00  0.00    +0.000 C 
ATOM      6  O   UNL     1       1.918   9.563  17.333  0.00  0.00    +0.000 OA
ATOM      7  N   UNL     1       0.853   9.373  19.387  0.00  0.00    +0.000 N 
ATOM      8  H   UNL     1       3.142   7.676  17.932  0.00  0.00    +0.000 HD
ATOM      9  H   UNL     1       0.911   8.861  20.268  0.00  0.00    +0.000 HD
BRANCH   7  10
ATOM     10  C   UNL     1      -0.038  10.463  19.372  0.00  0.00    +0.000 A 
ATOM     11  C   UNL     1      -1.221  10.485  18.626  0.00  0.00    +0.000 A 
ATOM     12  C   UNL     1      -2.058  11.600  18.662  0.00  0.00    +0.000 A 
ATOM     13  C   UNL     1      -1.724  12.710  19.436  0.00  0.00    +0.000 A 
ATOM     14  C   UNL     1      -0.549  12.701  20.189  0.00  0.00    +0.000 A 
ATOM     15  C   UNL     1       0.274  11.578  20.159  0.00  0.00    +0.000 A 
ATOM     16  F   UNL     1       1.405  11.588  20.883  0.00  0.00    +0.000 F 
ENDBRANCH   7  10
ENDBRANCH   1   2
BRANCH   1  20
ATOM     17  C   UNL     1       5.722   5.109  17.263  0.00  0.00    +0.000 A 
ATOM     18  N   UNL     1       5.538   6.468  17.173  0.00  0.00    +0.000 NA
ATOM     19  N   UNL     1       4.549   6.810  17.983  0.00  0.00    +0.000 NA
ATOM     20  N   UNL     1       4.160   5.699  18.634  0.00  0.00    +0.000 N 
ATOM     21  C   UNL     1       4.802   4.585  18.160  0.00  0.00    +0.000 A 
BRANCH  17  22
ATOM     22  C   UNL     1       6.749   4.388  16.535  0.00  0.00    +0.000 C 
ATOM     23  O   UNL     1       7.931   4.385  16.854  0.00  0.00    +0.000 OA
BRANCH  22  24
ATOM     24  O   UNL     1       6.250   3.804  15.404  0.00  0.00    +0.000 OA
BRANCH  24  26
ATOM     25  C   UNL     1       6.163   3.611  13.020  0.00  0.00    +0.000 C 
ATOM     26  C   UNL     1       6.518   4.516  14.188  0.00  0.00    +0.000 C 
ENDBRANCH  24  26
ENDBRANCH  22  24
ENDBRANCH  17  22
BRANCH  21  27
ATOM     27  C   UNL     1       4.610   3.234  18.589  0.00  0.00    +0.000 C 
ATOM     28  O   UNL     1       5.047   2.736  19.614  0.00  0.00    +0.000 OA
BRANCH  27  29
ATOM     29  O   UNL     1       3.839   2.591  17.672  0.00  0.00    +0.000 OA
BRANCH  29  30
ATOM     30  C   UNL     1       2.665   1.939  18.178  0.00  0.00    +0.000 C 
ATOM     31  C   UNL     1       1.514   2.919  18.296  0.00  0.00    +0.000 C 
ENDBRANCH  29  30
ENDBRANCH  27  29
ENDBRANCH  21  27
ENDBRANCH   1  20
TORSDOF 9
ENDMDL
MODEL 6
REMARK VINA RESULT:      -7.5      1.732      2.250
REMARK  Name = 
REMARK  11 active torsions:
REMARK  status: ('A' for Active; 'I' for Inactive)
REMARK    1  A    between atoms: C_1  and  C_2
REMARK    2  A    between atoms: C_2  and  O_3
REMARK    3  A    between atoms: O_3  and  C_4
REMARK    4  A    between atoms: C_4  and  C_6
REMARK    5  A    between atoms: N_9  and  C_10
REMARK    6  A    between atoms: C_10  and  C_11
REMARK    7  A    between atoms: N_16  and  C_17
REMARK    8  A    between atoms: C_24  and  C_25
REMARK    9  A    between atoms: C_25  and  O_27
REMARK   10  A    between atoms: O_27  and  C_28
REMARK   11  A    between atoms: C_28  and  C_29
REMARK                            x       y       z     vdW  Elec       q    Type
REMARK                         _______ _______ _______ _____ _____    ______ ____
ROOT
ATOM      1  C   UNL     1       3.610   5.483  19.607  0.00  0.00    +0.000 C 
ENDROOT
BRANCH   1   2
ATOM      2  C   UNL     1       2.875   6.760  19.303  0.00  0.00    +0.000 C 
ATOM      3  O   UNL     1       2.833   7.188  18.147  0.00  0.00    +0.000 OA
ATOM      4  N   UNL     1       2.166   7.339  20.338  0.00  0.00    +0.000 N 
ATOM      5  C   UNL     1       1.392   8.479  20.304  0.00  0.00    +0.000 C 
ATOM      6  O   UNL     1       0.968   8.914  21.372  0.00  0.00    +0.000 OA
ATOM      7  N   UNL     1       1.162   9.003  19.060  0.00  0.00    +0.000 N 
ATOM      8  H   UNL     1       2.247   6.971  21.280  0.00  0.00    +0.000 HD
ATOM      9  H   UNL     1       1.485   8.447  18.267  0.00  0.00    +0.000 HD
BRANCH   7  10
ATOM     10  C   UNL     1       0.431  10.161  18.736  0.00  0.00    +0.000 A 
ATOM     11  C   UNL     1      -0.905  10.142  18.319  0.00  0.00    +0.000 A 
ATOM     12  C   UNL     1      -1.567  11.332  18.018  0.00  0.00    +0.000 A 
ATOM     13  C   UNL     1      -0.907  12.555  18.122  0.00  0.00    +0.000 A 
ATOM     14  C   UNL     1       0.423  12.590  18.543  0.00  0.00    +0.000 A 
ATOM     15  C   UNL     1       1.073  11.399  18.855  0.00  0.00    +0.000 A 
ATOM     16  F   UNL     1       2.356  11.449  19.250  0.00  0.00    +0.000 F 
ENDBRANCH   7  10
ENDBRANCH   1   2
BRANCH   1  20
ATOM     17  C   UNL     1       5.433   4.519  16.689  0.00  0.00    +0.000 A 
ATOM     18  N   UNL     1       4.207   3.916  16.539  0.00  0.00    +0.000 NA
ATOM     19  N   UNL     1       3.513   4.100  17.650  0.00  0.00    +0.000 NA
ATOM     20  N   UNL     1       4.254   4.871  18.465  0.00  0.00    +0.000 N 
ATOM     21  C   UNL     1       5.504   5.094  17.950  0.00  0.00    +0.000 A 
BRANCH  17  22
ATOM     22  C   UNL     1       6.446   4.546  15.652  0.00  0.00    +0.000 C 
ATOM     23  O   UNL     1       7.646   4.441  15.872  0.00  0.00    +0.000 OA
BRANCH  22  24
ATOM     24  O   UNL     1       5.904   4.803  14.423  0.00  0.00    +0.000 OA
BRANCH  24  26
ATOM     25  C   UNL     1       6.975   4.257  12.354  0.00  0.00    +0.000 C 
ATOM     26  C   UNL     1       6.064   3.752  13.461  0.00  0.00    +0.000 C 
ENDBRANCH  24  26
ENDBRANCH  22  24
ENDBRANCH  17  22
BRANCH  21  27
ATOM     27  C   UNL     1       6.565   5.835  18.559  0.00  0.00    +0.000 C 
ATOM     28  O   UNL     1       7.383   5.400  19.355  0.00  0.00    +0.000 OA
BRANCH  27  29
ATOM     29  O   UNL     1       6.530   7.111  18.089  0.00  0.00    +0.000 OA
BRANCH  29  30
ATOM     30  C   UNL     1       7.725   7.583  17.448  0.00  0.00    +0.000 C 
ATOM     31  C   UNL     1       8.188   8.887  18.067  0.00  0.00    +0.000 C 
ENDBRANCH  29  30
ENDBRANCH  27  29
ENDBRANCH  21  27
ENDBRANCH   1  20
TORSDOF 9
ENDMDL
MODEL 7
REMARK VINA RESULT:      -7.5      2.246      3.713
REMARK  Name = 
REMARK  11 active torsions:
REMARK  status: ('A' for Active; 'I' for Inactive)
REMARK    1  A    between atoms: C_1  and  C_2
REMARK    2  A    between atoms: C_2  and  O_3
REMARK    3  A    between atoms: O_3  and  C_4
REMARK    4  A    between atoms: C_4  and  C_6
REMARK    5  A    between atoms: N_9  and  C_10
REMARK    6  A    between atoms: C_10  and  C_11
REMARK    7  A    between atoms: N_16  and  C_17
REMARK    8  A    between atoms: C_24  and  C_25
REMARK    9  A    between atoms: C_25  and  O_27
REMARK   10  A    between atoms: O_27  and  C_28
REMARK   11  A    between atoms: C_28  and  C_29
REMARK                            x       y       z     vdW  Elec       q    Type
REMARK                         _______ _______ _______ _____ _____    ______ ____
ROOT
ATOM      1  C   UNL     1       3.211   5.954  19.616  0.00  0.00    +0.000 C 
ENDROOT
BRANCH   1   2
ATOM      2  C   UNL     1       2.389   7.214  19.596  0.00  0.00    +0.000 C 
ATOM      3  O   UNL     1       2.079   7.732  18.520  0.00  0.00    +0.000 OA
ATOM      4  N   UNL     1       1.909   7.670  20.808  0.00  0.00    +0.000 N 
ATOM      5  C   UNL     1       1.113   8.770  21.046  0.00  0.00    +0.000 C 
ATOM      6  O   UNL     1       0.923   9.094  22.216  0.00  0.00    +0.000 OA
ATOM      7  N   UNL     1       0.598   9.382  19.935  0.00  0.00    +0.000 N 
ATOM      8  H   UNL     1       2.208   7.231  21.673  0.00  0.00    +0.000 HD
ATOM      9  H   UNL     1       0.754   8.909  19.044  0.00  0.00    +0.000 HD
BRANCH   7  10
ATOM     10  C   UNL     1      -0.221  10.525  19.885  0.00  0.00    +0.000 A 
ATOM     11  C   UNL     1      -0.200  11.537  20.851  0.00  0.00    +0.000 A 
ATOM     12  C   UNL     1      -1.040  12.643  20.734  0.00  0.00    +0.000 A 
ATOM     13  C   UNL     1      -1.917  12.754  19.656  0.00  0.00    +0.000 A 
ATOM     14  C   UNL     1      -1.946  11.756  18.682  0.00  0.00    +0.000 A 
ATOM     15  C   UNL     1      -1.094  10.661  18.799  0.00  0.00    +0.000 A 
ATOM     16  F   UNL     1      -1.140   9.704  17.857  0.00  0.00    +0.000 F 
ENDBRANCH   7  10
ENDBRANCH   1   2
BRANCH   1  20
ATOM     17  C   UNL     1       5.605   5.116  17.098  0.00  0.00    +0.000 A 
ATOM     18  N   UNL     1       5.428   6.473  16.962  0.00  0.00    +0.000 NA
ATOM     19  N   UNL     1       4.444   6.848  17.763  0.00  0.00    +0.000 NA
ATOM     20  N   UNL     1       4.050   5.763  18.453  0.00  0.00    +0.000 N 
ATOM     21  C   UNL     1       4.685   4.629  18.016  0.00  0.00    +0.000 A 
BRANCH  17  22
ATOM     22  C   UNL     1       6.625   4.365  16.392  0.00  0.00    +0.000 C 
ATOM     23  O   UNL     1       7.826   4.510  16.581  0.00  0.00    +0.000 OA
BRANCH  22  24
ATOM     24  O   UNL     1       6.084   3.559  15.430  0.00  0.00    +0.000 OA
BRANCH  24  26
ATOM     25  C   UNL     1       6.450   3.802  13.078  0.00  0.00    +0.000 C 
ATOM     26  C   UNL     1       5.609   4.245  14.264  0.00  0.00    +0.000 C 
ENDBRANCH  24  26
ENDBRANCH  22  24
ENDBRANCH  17  22
BRANCH  21  27
ATOM     27  C   UNL     1       4.487   3.295  18.492  0.00  0.00    +0.000 C 
ATOM     28  O   UNL     1       4.978   2.810  19.499  0.00  0.00    +0.000 OA
BRANCH  27  29
ATOM     29  O   UNL     1       3.640   2.651  17.644  0.00  0.00    +0.000 OA
BRANCH  29  30
ATOM     30  C   UNL     1       2.491   2.035  18.244  0.00  0.00    +0.000 C 
ATOM     31  C   UNL     1       1.347   3.024  18.354  0.00  0.00    +0.000 C 
ENDBRANCH  29  30
ENDBRANCH  27  29
ENDBRANCH  21  27
ENDBRANCH   1  20
TORSDOF 9
ENDMDL
MODEL 8
REMARK VINA RESULT:      -7.4      2.721      4.447
REMARK  Name = 
REMARK  11 active torsions:
REMARK  status: ('A' for Active; 'I' for Inactive)
REMARK    1  A    between atoms: C_1  and  C_2
REMARK    2  A    between atoms: C_2  and  O_3
REMARK    3  A    between atoms: O_3  and  C_4
REMARK    4  A    between atoms: C_4  and  C_6
REMARK    5  A    between atoms: N_9  and  C_10
REMARK    6  A    between atoms: C_10  and  C_11
REMARK    7  A    between atoms: N_16  and  C_17
REMARK    8  A    between atoms: C_24  and  C_25
REMARK    9  A    between atoms: C_25  and  O_27
REMARK   10  A    between atoms: O_27  and  C_28
REMARK   11  A    between atoms: C_28  and  C_29
REMARK                            x       y       z     vdW  Elec       q    Type
REMARK                         _______ _______ _______ _____ _____    ______ ____
ROOT
ATOM      1  C   UNL     1       3.562   7.232  17.621  0.00  0.00    +0.000 C 
ENDROOT
BRANCH   1   2
ATOM      2  C   UNL     1       2.653   8.352  18.050  0.00  0.00    +0.000 C 
ATOM      3  O   UNL     1       2.399   9.274  17.271  0.00  0.00    +0.000 OA
ATOM      4  N   UNL     1       2.039   8.226  19.281  0.00  0.00    +0.000 N 
ATOM      5  C   UNL     1       1.145   9.091  19.877  0.00  0.00    +0.000 C 
ATOM      6  O   UNL     1       0.832   8.873  21.044  0.00  0.00    +0.000 OA
ATOM      7  N   UNL     1       0.684  10.107  19.083  0.00  0.00    +0.000 N 
ATOM      8  H   UNL     1       2.294   7.466  19.903  0.00  0.00    +0.000 HD
ATOM      9  H   UNL     1       0.951  10.069  18.099  0.00  0.00    +0.000 HD
BRANCH   7  10
ATOM     10  C   UNL     1      -0.211  11.134  19.435  0.00  0.00    +0.000 A 
ATOM     11  C   UNL     1      -1.571  11.124  19.107  0.00  0.00    +0.000 A 
ATOM     12  C   UNL     1      -2.399  12.177  19.493  0.00  0.00    +0.000 A 
ATOM     13  C   UNL     1      -1.882  13.259  20.205  0.00  0.00    +0.000 A 
ATOM     14  C   UNL     1      -0.529  13.281  20.544  0.00  0.00    +0.000 A 
ATOM     15  C   UNL     1       0.289  12.218  20.167  0.00  0.00    +0.000 A 
ATOM     16  F   UNL     1       1.591  12.259  20.494  0.00  0.00    +0.000 F 
ENDBRANCH   7  10
ENDBRANCH   1   2
BRANCH   1  20
ATOM     17  C   UNL     1       2.990   3.782  18.358  0.00  0.00    +0.000 A 
ATOM     18  N   UNL     1       1.746   4.274  18.044  0.00  0.00    +0.000 NA
ATOM     19  N   UNL     1       1.840   5.586  17.898  0.00  0.00    +0.000 NA
ATOM     20  N   UNL     1       3.135   5.915  18.043  0.00  0.00    +0.000 N 
ATOM     21  C   UNL     1       3.892   4.836  18.418  0.00  0.00    +0.000 A 
BRANCH  17  22
ATOM     22  C   UNL     1       3.269   2.373  18.558  0.00  0.00    +0.000 C 
ATOM     23  O   UNL     1       3.925   1.695  17.778  0.00  0.00    +0.000 OA
BRANCH  22  24
ATOM     24  O   UNL     1       2.629   1.883  19.662  0.00  0.00    +0.000 OA
BRANCH  24  26
ATOM     25  C   UNL     1       1.679   2.782  21.666  0.00  0.00    +0.000 C 
ATOM     26  C   UNL     1       2.964   2.537  20.894  0.00  0.00    +0.000 C 
ENDBRANCH  24  26
ENDBRANCH  22  24
ENDBRANCH  17  22
BRANCH  21  27
ATOM     27  C   UNL     1       5.295   4.824  18.697  0.00  0.00    +0.000 C 
ATOM     28  O   UNL     1       5.808   4.824  19.804  0.00  0.00    +0.000 OA
BRANCH  27  29
ATOM     29  O   UNL     1       5.973   4.793  17.518  0.00  0.00    +0.000 OA
BRANCH  29  30
ATOM     30  C   UNL     1       7.318   5.293  17.548  0.00  0.00    +0.000 C 
ATOM     31  C   UNL     1       7.336   6.798  17.361  0.00  0.00    +0.000 C 
ENDBRANCH  29  30
ENDBRANCH  27  29
ENDBRANCH  21  27
ENDBRANCH   1  20
TORSDOF 9
ENDMDL
MODEL 9
REMARK VINA RESULT:      -7.4      2.147      3.708
REMARK  Name = 
REMARK  11 active torsions:
REMARK  status: ('A' for Active; 'I' for Inactive)
REMARK    1  A    between atoms: C_1  and  C_2
REMARK    2  A    between atoms: C_2  and  O_3
REMARK    3  A    between atoms: O_3  and  C_4
REMARK    4  A    between atoms: C_4  and  C_6
REMARK    5  A    between atoms: N_9  and  C_10
REMARK    6  A    between atoms: C_10  and  C_11
REMARK    7  A    between atoms: N_16  and  C_17
REMARK    8  A    between atoms: C_24  and  C_25
REMARK    9  A    between atoms: C_25  and  O_27
REMARK   10  A    between atoms: O_27  and  C_28
REMARK   11  A    between atoms: C_28  and  C_29
REMARK                            x       y       z     vdW  Elec       q    Type
REMARK                         _______ _______ _______ _____ _____    ______ ____
ROOT
ATOM      1  C   UNL     1       2.845   5.876  19.812  0.00  0.00    +0.000 C 
ENDROOT
BRANCH   1   2
ATOM      2  C   UNL     1       2.097   7.182  19.802  0.00  0.00    +0.000 C 
ATOM      3  O   UNL     1       1.483   7.550  20.807  0.00  0.00    +0.000 OA
ATOM      4  N   UNL     1       2.238   7.978  18.682  0.00  0.00    +0.000 N 
ATOM      5  C   UNL     1       1.689   9.221  18.449  0.00  0.00    +0.000 C 
ATOM      6  O   UNL     1       1.811   9.697  17.323  0.00  0.00    +0.000 OA
ATOM      7  N   UNL     1       1.071   9.807  19.521  0.00  0.00    +0.000 N 
ATOM      8  H   UNL     1       2.730   7.628  17.867  0.00  0.00    +0.000 HD
ATOM      9  H   UNL     1       1.169   9.329  20.418  0.00  0.00    +0.000 HD
BRANCH   7  10
ATOM     10  C   UNL     1       0.415  11.051  19.560  0.00  0.00    +0.000 A 
ATOM     11  C   UNL     1       1.031  12.239  19.969  0.00  0.00    +0.000 A 
ATOM     12  C   UNL     1       0.317  13.437  19.980  0.00  0.00    +0.000 A 
ATOM     13  C   UNL     1      -1.021  13.467  19.589  0.00  0.00    +0.000 A 
ATOM     14  C   UNL     1      -1.646  12.292  19.174  0.00  0.00    +0.000 A 
ATOM     15  C   UNL     1      -0.923  11.102  19.153  0.00  0.00    +0.000 A 
ATOM     16  F   UNL     1      -1.543   9.977  18.759  0.00  0.00    +0.000 F 
ENDBRANCH   7  10
ENDBRANCH   1   2
BRANCH   1  20
ATOM     17  C   UNL     1       5.747   5.312  17.805  0.00  0.00    +0.000 A 
ATOM     18  N   UNL     1       5.449   6.640  17.608  0.00  0.00    +0.000 NA
ATOM     19  N   UNL     1       4.297   6.902  18.203  0.00  0.00    +0.000 NA
ATOM     20  N   UNL     1       3.904   5.780  18.831  0.00  0.00    +0.000 N 
ATOM     21  C   UNL     1       4.730   4.726  18.545  0.00  0.00    +0.000 A 
BRANCH  17  22
ATOM     22  C   UNL     1       6.958   4.681  17.318  0.00  0.00    +0.000 C 
ATOM     23  O   UNL     1       7.875   4.323  18.045  0.00  0.00    +0.000 OA
BRANCH  22  24
ATOM     24  O   UNL     1       6.988   4.630  15.952  0.00  0.00    +0.000 OA
BRANCH  24  26
ATOM     25  C   UNL     1       6.053   3.930  13.864  0.00  0.00    +0.000 C 
ATOM     26  C   UNL     1       6.081   3.688  15.363  0.00  0.00    +0.000 C 
ENDBRANCH  24  26
ENDBRANCH  22  24
ENDBRANCH  17  22
BRANCH  21  27
ATOM     27  C   UNL     1       4.596   3.378  19.006  0.00  0.00    +0.000 C 
ATOM     28  O   UNL     1       5.250   2.852  19.892  0.00  0.00    +0.000 OA
BRANCH  27  29
ATOM     29  O   UNL     1       3.599   2.775  18.303  0.00  0.00    +0.000 OA
BRANCH  29  30
ATOM     30  C   UNL     1       2.584   2.122  19.079  0.00  0.00    +0.000 C 
ATOM     31  C   UNL     1       1.201   2.508  18.590  0.00  0.00    +0.000 C 
ENDBRANCH  29  30
ENDBRANCH  27  29
ENDBRANCH  21  27
ENDBRANCH   1  20
TORSDOF 9
ENDMDL
