MODEL 1
REMARK VINA RESULT:      -8.5      0.000      0.000
REMARK  Name = 
REMARK  3 active torsions:
REMARK  status: ('A' for Active; 'I' for Inactive)
REMARK    1  A    between atoms: C_1  and  C_2
REMARK    2  A    between atoms: C_4  and  C_5
REMARK    3  A    between atoms: N_10  and  C_11
REMARK                            x       y       z     vdW  Elec       q    Type
REMARK                         _______ _______ _______ _____ _____    ______ ____
ROOT
ATOM      1  C   UNL     1       6.672   5.548  16.017  0.00  0.00    +0.000 C 
ATOM      2  O   UNL     1       7.476   6.365  16.470  0.00  0.00    +0.000 OA
ATOM      3  N   UNL     1       5.570   5.140  16.774  0.00  0.00    +0.000 N 
ATOM      4  C   UNL     1       5.304   5.817  18.047  0.00  0.00    +0.000 C 
ATOM      5  C   UNL     1       3.796   5.881  18.342  0.00  0.00    +0.000 C 
ATOM      6  N   UNL     1       3.174   4.551  18.229  0.00  0.00    +0.000 N 
ATOM      7  C   UNL     1       3.437   3.842  16.964  0.00  0.00    +0.000 C 
ATOM      8  C   UNL     1       4.949   3.805  16.673  0.00  0.00    +0.000 C 
ENDROOT
BRANCH   1  12
ATOM      9  C   UNL     1       6.546   2.996  11.643  0.00  0.00    +0.000 C 
ATOM     10  C   UNL     1       6.826   3.912  12.771  0.00  0.00    +0.000 A 
ATOM     11  C   UNL     1       6.254   3.926  14.062  0.00  0.00    +0.000 A 
ATOM     12  C   UNL     1       6.829   5.010  14.686  0.00  0.00    +0.000 A 
ATOM     13  O   UNL     1       7.755   5.550  13.842  0.00  0.00    +0.000 OA
ATOM     14  N   UNL     1       7.727   4.889  12.630  0.00  0.00    +0.000 NA
ENDBRANCH   1  12
BRANCH   6  15
ATOM     15  C   UNL     1       2.649   3.885  19.320  0.00  0.00    +0.000 A 
ATOM     16  C   UNL     1       1.267   3.897  19.573  0.00  0.00    +0.000 A 
ATOM     17  C   UNL     1       0.717   3.273  20.698  0.00  0.00    +0.000 A 
ATOM     18  C   UNL     1       1.542   2.611  21.600  0.00  0.00    +0.000 A 
ATOM     19  C   UNL     1       2.912   2.572  21.370  0.00  0.00    +0.000 A 
ATOM     20  C   UNL     1       3.454   3.204  20.243  0.00  0.00    +0.000 A 
ENDBRANCH   6  15
TORSDOF 2
ENDMDL
MODEL 2
REMARK VINA RESULT:      -8.4      0.209      1.090
REMARK  Name = 
REMARK  3 active torsions:
REMARK  status: ('A' for Active; 'I' for Inactive)
REMARK    1  A    between atoms: C_1  and  C_2
REMARK    2  A    between atoms: C_4  and  C_5
REMARK    3  A    between atoms: N_10  and  C_11
REMARK                            x       y       z     vdW  Elec       q    Type
REMARK                         _______ _______ _______ _____ _____    ______ ____
ROOT
ATOM      1  C   UNL     1       6.672   5.437  15.828  0.00  0.00    +0.000 C 
ATOM      2  O   UNL     1       7.523   6.231  16.237  0.00  0.00    +0.000 OA
ATOM      3  N   UNL     1       5.584   5.084  16.631  0.00  0.00    +0.000 N 
ATOM      4  C   UNL     1       5.389   5.793  17.899  0.00  0.00    +0.000 C 
ATOM      5  C   UNL     1       3.896   5.920  18.245  0.00  0.00    +0.000 C 
ATOM      6  N   UNL     1       3.221   4.613  18.179  0.00  0.00    +0.000 N 
ATOM      7  C   UNL     1       3.412   3.872  16.920  0.00  0.00    +0.000 C 
ATOM      8  C   UNL     1       4.910   3.772  16.577  0.00  0.00    +0.000 C 
ENDROOT
BRANCH   1  12
ATOM      9  C   UNL     1       6.339   2.780  11.528  0.00  0.00    +0.000 C 
ATOM     10  C   UNL     1       6.667   3.727  12.617  0.00  0.00    +0.000 A 
ATOM     11  C   UNL     1       6.172   3.762  13.938  0.00  0.00    +0.000 A 
ATOM     12  C   UNL     1       6.762   4.870  14.502  0.00  0.00    +0.000 A 
ATOM     13  O   UNL     1       7.627   5.405  13.594  0.00  0.00    +0.000 OA
ATOM     14  N   UNL     1       7.541   4.715  12.401  0.00  0.00    +0.000 NA
ENDBRANCH   1  12
BRANCH   6  15
ATOM     15  C   UNL     1       2.711   3.987  19.300  0.00  0.00    +0.000 A 
ATOM     16  C   UNL     1       3.544   3.229  20.142  0.00  0.00    +0.000 A 
ATOM     17  C   UNL     1       3.043   2.544  21.254  0.00  0.00    +0.000 A 
ATOM     18  C   UNL     1       1.688   2.608  21.558  0.00  0.00    +0.000 A 
ATOM     19  C   UNL     1       0.842   3.360  20.752  0.00  0.00    +0.000 A 
ATOM     20  C   UNL     1       1.352   4.038  19.637  0.00  0.00    +0.000 A 
ENDBRANCH   6  15
TORSDOF 2
ENDMDL
MODEL 3
REMARK VINA RESULT:      -8.1      2.350      7.348
REMARK  Name = 
REMARK  3 active torsions:
REMARK  status: ('A' for Active; 'I' for Inactive)
REMARK    1  A    between atoms: C_1  and  C_2
REMARK    2  A    between atoms: C_4  and  C_5
REMARK    3  A    between atoms: N_10  and  C_11
REMARK                            x       y       z     vdW  Elec       q    Type
REMARK                         _______ _______ _______ _____ _____    ______ ____
ROOT
ATOM      1  C   UNL     1       2.943   5.888  18.456  0.00  0.00    +0.000 C 
ATOM      2  O   UNL     1       2.648   7.079  18.577  0.00  0.00    +0.000 OA
ATOM      3  N   UNL     1       3.903   5.484  17.524  0.00  0.00    +0.000 N 
ATOM      4  C   UNL     1       4.664   6.514  16.810  0.00  0.00    +0.000 C 
ATOM      5  C   UNL     1       6.091   6.037  16.495  0.00  0.00    +0.000 C 
ATOM      6  N   UNL     1       6.080   4.727  15.822  0.00  0.00    +0.000 N 
ATOM      7  C   UNL     1       5.310   3.676  16.512  0.00  0.00    +0.000 C 
ATOM      8  C   UNL     1       3.891   4.177  16.839  0.00  0.00    +0.000 C 
ENDROOT
BRANCH   1  12
ATOM      9  C   UNL     1       1.518   2.557  21.996  0.00  0.00    +0.000 C 
ATOM     10  C   UNL     1       1.682   3.398  20.791  0.00  0.00    +0.000 A 
ATOM     11  C   UNL     1       2.675   4.362  20.513  0.00  0.00    +0.000 A 
ATOM     12  C   UNL     1       2.324   4.881  19.287  0.00  0.00    +0.000 A 
ATOM     13  O   UNL     1       1.238   4.196  18.826  0.00  0.00    +0.000 OA
ATOM     14  N   UNL     1       0.811   3.296  19.782  0.00  0.00    +0.000 NA
ENDBRANCH   1  12
BRANCH   6  15
ATOM     15  C   UNL     1       6.485   4.565  14.512  0.00  0.00    +0.000 A 
ATOM     16  C   UNL     1       7.523   5.348  13.978  0.00  0.00    +0.000 A 
ATOM     17  C   UNL     1       7.917   5.239  12.640  0.00  0.00    +0.000 A 
ATOM     18  C   UNL     1       7.284   4.331  11.800  0.00  0.00    +0.000 A 
ATOM     19  C   UNL     1       6.262   3.534  12.302  0.00  0.00    +0.000 A 
ATOM     20  C   UNL     1       5.871   3.655  13.642  0.00  0.00    +0.000 A 
ENDBRANCH   6  15
TORSDOF 2
ENDMDL
MODEL 4
REMARK VINA RESULT:      -8.1      2.363      7.306
REMARK  Name = 
REMARK  3 active torsions:
REMARK  status: ('A' for Active; 'I' for Inactive)
REMARK    1  A    between atoms: C_1  and  C_2
REMARK    2  A    between atoms: C_4  and  C_5
REMARK    3  A    between atoms: N_10  and  C_11
REMARK                            x       y       z     vdW  Elec       q    Type
REMARK                         _______ _______ _______ _____ _____    ______ ____
ROOT
ATOM      1  C   UNL     1       2.965   5.958  18.531  0.00  0.00    +0.000 C 
ATOM      2  O   UNL     1       2.687   7.151  18.673  0.00  0.00    +0.000 OA
ATOM      3  N   UNL     1       3.907   5.555  17.581  0.00  0.00    +0.000 N 
ATOM      4  C   UNL     1       4.671   6.585  16.870  0.00  0.00    +0.000 C 
ATOM      5  C   UNL     1       6.087   6.095  16.528  0.00  0.00    +0.000 C 
ATOM      6  N   UNL     1       6.049   4.794  15.838  0.00  0.00    +0.000 N 
ATOM      7  C   UNL     1       5.276   3.744  16.524  0.00  0.00    +0.000 C 
ATOM      8  C   UNL     1       3.868   4.258  16.878  0.00  0.00    +0.000 C 
ENDROOT
BRANCH   1  12
ATOM      9  C   UNL     1       1.587   2.541  22.008  0.00  0.00    +0.000 C 
ATOM     10  C   UNL     1       1.719   3.431  20.833  0.00  0.00    +0.000 A 
ATOM     11  C   UNL     1       2.747   4.349  20.530  0.00  0.00    +0.000 A 
ATOM     12  C   UNL     1       2.345   4.947  19.357  0.00  0.00    +0.000 A 
ATOM     13  O   UNL     1       1.191   4.350  18.944  0.00  0.00    +0.000 OA
ATOM     14  N   UNL     1       0.777   3.429  19.886  0.00  0.00    +0.000 NA
ENDBRANCH   1  12
BRANCH   6  15
ATOM     15  C   UNL     1       6.433   4.645  14.519  0.00  0.00    +0.000 A 
ATOM     16  C   UNL     1       5.799   3.707  13.687  0.00  0.00    +0.000 A 
ATOM     17  C   UNL     1       6.204   3.502  12.363  0.00  0.00    +0.000 A 
ATOM     18  C   UNL     1       7.255   4.241  11.834  0.00  0.00    +0.000 A 
ATOM     19  C   UNL     1       7.893   5.185  12.629  0.00  0.00    +0.000 A 
ATOM     20  C   UNL     1       7.485   5.380  13.955  0.00  0.00    +0.000 A 
ENDBRANCH   6  15
TORSDOF 2
ENDMDL
MODEL 5
REMARK VINA RESULT:      -7.2      1.001      1.068
REMARK  Name = 
REMARK  3 active torsions:
REMARK  status: ('A' for Active; 'I' for Inactive)
REMARK    1  A    between atoms: C_1  and  C_2
REMARK    2  A    between atoms: C_4  and  C_5
REMARK    3  A    between atoms: N_10  and  C_11
REMARK                            x       y       z     vdW  Elec       q    Type
REMARK                         _______ _______ _______ _____ _____    ______ ____
ROOT
ATOM      1  C   UNL     1       6.542   4.633  15.373  0.00  0.00    +0.000 C 
ATOM      2  O   UNL     1       7.634   5.124  15.669  0.00  0.00    +0.000 OA
ATOM      3  N   UNL     1       5.541   4.494  16.338  0.00  0.00    +0.000 N 
ATOM      4  C   UNL     1       5.754   5.086  17.662  0.00  0.00    +0.000 C 
ATOM      5  C   UNL     1       4.431   5.564  18.281  0.00  0.00    +0.000 C 
ATOM      6  N   UNL     1       3.416   4.497  18.259  0.00  0.00    +0.000 N 
ATOM      7  C   UNL     1       3.190   3.875  16.942  0.00  0.00    +0.000 C 
ATOM      8  C   UNL     1       4.527   3.421  16.327  0.00  0.00    +0.000 C 
ENDROOT
BRANCH   1  12
ATOM      9  C   UNL     1       4.639   2.964  10.985  0.00  0.00    +0.000 C 
ATOM     10  C   UNL     1       5.479   3.467  12.095  0.00  0.00    +0.000 A 
ATOM     11  C   UNL     1       5.122   3.694  13.442  0.00  0.00    +0.000 A 
ATOM     12  C   UNL     1       6.259   4.211  14.021  0.00  0.00    +0.000 A 
ATOM     13  O   UNL     1       7.256   4.203  13.091  0.00  0.00    +0.000 OA
ATOM     14  N   UNL     1       6.761   3.775  11.875  0.00  0.00    +0.000 NA
ENDBRANCH   1  12
BRANCH   6  15
ATOM     15  C   UNL     1       2.936   3.909  19.414  0.00  0.00    +0.000 A 
ATOM     16  C   UNL     1       1.695   4.291  19.953  0.00  0.00    +0.000 A 
ATOM     17  C   UNL     1       1.211   3.747  21.147  0.00  0.00    +0.000 A 
ATOM     18  C   UNL     1       1.958   2.795  21.832  0.00  0.00    +0.000 A 
ATOM     19  C   UNL     1       3.183   2.388  21.316  0.00  0.00    +0.000 A 
ATOM     20  C   UNL     1       3.662   2.943  20.123  0.00  0.00    +0.000 A 
ENDBRANCH   6  15
TORSDOF 2
ENDMDL
MODEL 6
REMARK VINA RESULT:      -7.2      1.178      1.632
REMARK  Name = 
REMARK  3 active torsions:
REMARK  status: ('A' for Active; 'I' for Inactive)
REMARK    1  A    between atoms: C_1  and  C_2
REMARK    2  A    between atoms: C_4  and  C_5
REMARK    3  A    between atoms: N_10  and  C_11
REMARK                            x       y       z     vdW  Elec       q    Type
REMARK                         _______ _______ _______ _____ _____    ______ ____
ROOT
ATOM      1  C   UNL     1       5.999   5.097  15.242  0.00  0.00    +0.000 C 
ATOM      2  O   UNL     1       6.775   6.034  15.438  0.00  0.00    +0.000 OA
ATOM      3  N   UNL     1       5.033   4.762  16.195  0.00  0.00    +0.000 N 
ATOM      4  C   UNL     1       4.857   5.643  17.354  0.00  0.00    +0.000 C 
ATOM      5  C   UNL     1       3.394   5.660  17.825  0.00  0.00    +0.000 C 
ATOM      6  N   UNL     1       2.882   4.294  18.028  0.00  0.00    +0.000 N 
ATOM      7  C   UNL     1       3.059   3.383  16.883  0.00  0.00    +0.000 C 
ATOM      8  C   UNL     1       4.525   3.393  16.410  0.00  0.00    +0.000 C 
ENDROOT
BRANCH   1  12
ATOM      9  C   UNL     1       7.156   2.435  11.090  0.00  0.00    +0.000 C 
ATOM     10  C   UNL     1       6.509   3.194  12.183  0.00  0.00    +0.000 A 
ATOM     11  C   UNL     1       7.106   3.831  13.292  0.00  0.00    +0.000 A 
ATOM     12  C   UNL     1       6.049   4.334  14.016  0.00  0.00    +0.000 A 
ATOM     13  O   UNL     1       4.899   4.087  13.325  0.00  0.00    +0.000 OA
ATOM     14  N   UNL     1       5.180   3.341  12.198  0.00  0.00    +0.000 NA
ENDBRANCH   1  12
BRANCH   6  15
ATOM     15  C   UNL     1       2.548   3.807  19.277  0.00  0.00    +0.000 A 
ATOM     16  C   UNL     1       3.468   3.050  20.023  0.00  0.00    +0.000 A 
ATOM     17  C   UNL     1       3.137   2.503  21.267  0.00  0.00    +0.000 A 
ATOM     18  C   UNL     1       1.870   2.708  21.803  0.00  0.00    +0.000 A 
ATOM     19  C   UNL     1       0.944   3.464  21.094  0.00  0.00    +0.000 A 
ATOM     20  C   UNL     1       1.283   4.002  19.847  0.00  0.00    +0.000 A 
ENDBRANCH   6  15
TORSDOF 2
ENDMDL
MODEL 7
REMARK VINA RESULT:      -7.2      4.705      6.415
REMARK  Name = 
REMARK  3 active torsions:
REMARK  status: ('A' for Active; 'I' for Inactive)
REMARK    1  A    between atoms: C_1  and  C_2
REMARK    2  A    between atoms: C_4  and  C_5
REMARK    3  A    between atoms: N_10  and  C_11
REMARK                            x       y       z     vdW  Elec       q    Type
REMARK                         _______ _______ _______ _____ _____    ______ ____
ROOT
ATOM      1  C   UNL     1       3.071   5.397  19.871  0.00  0.00    +0.000 C 
ATOM      2  O   UNL     1       2.723   4.666  20.801  0.00  0.00    +0.000 OA
ATOM      3  N   UNL     1       2.423   6.614  19.642  0.00  0.00    +0.000 N 
ATOM      4  C   UNL     1       1.433   7.076  20.620  0.00  0.00    +0.000 C 
ATOM      5  C   UNL     1       1.415   8.610  20.715  0.00  0.00    +0.000 C 
ATOM      6  N   UNL     1       1.275   9.226  19.385  0.00  0.00    +0.000 N 
ATOM      7  C   UNL     1       2.249   8.769  18.377  0.00  0.00    +0.000 C 
ATOM      8  C   UNL     1       2.269   7.230  18.309  0.00  0.00    +0.000 C 
ENDROOT
BRANCH   1  12
ATOM      9  C   UNL     1       7.476   4.627  17.490  0.00  0.00    +0.000 C 
ATOM     10  C   UNL     1       6.063   4.692  17.924  0.00  0.00    +0.000 A 
ATOM     11  C   UNL     1       5.513   5.329  19.057  0.00  0.00    +0.000 A 
ATOM     12  C   UNL     1       4.170   5.030  19.008  0.00  0.00    +0.000 A 
ATOM     13  O   UNL     1       3.927   4.334  17.861  0.00  0.00    +0.000 OA
ATOM     14  N   UNL     1       5.115   4.087  17.201  0.00  0.00    +0.000 NA
ENDBRANCH   1  12
BRANCH   6  15
ATOM     15  C   UNL     1       0.147   9.932  19.012  0.00  0.00    +0.000 A 
ATOM     16  C   UNL     1      -0.415  10.893  19.870  0.00  0.00    +0.000 A 
ATOM     17  C   UNL     1      -1.584  11.585  19.537  0.00  0.00    +0.000 A 
ATOM     18  C   UNL     1      -2.220  11.337  18.326  0.00  0.00    +0.000 A 
ATOM     19  C   UNL     1      -1.680  10.402  17.451  0.00  0.00    +0.000 A 
ATOM     20  C   UNL     1      -0.512   9.709  17.796  0.00  0.00    +0.000 A 
ENDBRANCH   6  15
TORSDOF 2
ENDMDL
MODEL 8
REMARK VINA RESULT:      -7.1      4.697      6.394
REMARK  Name = 
REMARK  3 active torsions:
REMARK  status: ('A' for Active; 'I' for Inactive)
REMARK    1  A    between atoms: C_1  and  C_2
REMARK    2  A    between atoms: C_4  and  C_5
REMARK    3  A    between atoms: N_10  and  C_11
REMARK                            x       y       z     vdW  Elec       q    Type
REMARK                         _______ _______ _______ _____ _____    ______ ____
ROOT
ATOM      1  C   UNL     1       3.079   5.367  19.878  0.00  0.00    +0.000 C 
ATOM      2  O   UNL     1       2.750   4.630  20.809  0.00  0.00    +0.000 OA
ATOM      3  N   UNL     1       2.422   6.582  19.666  0.00  0.00    +0.000 N 
ATOM      4  C   UNL     1       1.447   7.035  20.663  0.00  0.00    +0.000 C 
ATOM      5  C   UNL     1       1.425   8.569  20.766  0.00  0.00    +0.000 C 
ATOM      6  N   UNL     1       1.259   9.190  19.441  0.00  0.00    +0.000 N 
ATOM      7  C   UNL     1       2.218   8.742  18.415  0.00  0.00    +0.000 C 
ATOM      8  C   UNL     1       2.244   7.204  18.339  0.00  0.00    +0.000 C 
ENDROOT
BRANCH   1  12
ATOM      9  C   UNL     1       7.445   4.638  17.413  0.00  0.00    +0.000 C 
ATOM     10  C   UNL     1       6.040   4.688  17.874  0.00  0.00    +0.000 A 
ATOM     11  C   UNL     1       5.505   5.324  19.016  0.00  0.00    +0.000 A 
ATOM     12  C   UNL     1       4.165   5.009  18.994  0.00  0.00    +0.000 A 
ATOM     13  O   UNL     1       3.908   4.305  17.855  0.00  0.00    +0.000 OA
ATOM     14  N   UNL     1       5.085   4.069  17.173  0.00  0.00    +0.000 NA
ENDBRANCH   1  12
BRANCH   6  15
ATOM     15  C   UNL     1       0.123   9.894  19.091  0.00  0.00    +0.000 A 
ATOM     16  C   UNL     1      -0.499   9.683  17.848  0.00  0.00    +0.000 A 
ATOM     17  C   UNL     1      -1.620  10.419  17.449  0.00  0.00    +0.000 A 
ATOM     18  C   UNL     1      -2.156  11.385  18.294  0.00  0.00    +0.000 A 
ATOM     19  C   UNL     1      -1.570  11.606  19.535  0.00  0.00    +0.000 A 
ATOM     20  C   UNL     1      -0.444  10.868  19.923  0.00  0.00    +0.000 A 
ENDBRANCH   6  15
TORSDOF 2
ENDMDL
MODEL 9
REMARK VINA RESULT:      -7.0      4.835      6.184
REMARK  Name = 
REMARK  3 active torsions:
REMARK  status: ('A' for Active; 'I' for Inactive)
REMARK    1  A    between atoms: C_1  and  C_2
REMARK    2  A    between atoms: C_4  and  C_5
REMARK    3  A    between atoms: N_10  and  C_11
REMARK                            x       y       z     vdW  Elec       q    Type
REMARK                         _______ _______ _______ _____ _____    ______ ____
ROOT
ATOM      1  C   UNL     1       3.405   6.196  18.796  0.00  0.00    +0.000 C 
ATOM      2  O   UNL     1       3.324   5.350  19.690  0.00  0.00    +0.000 OA
ATOM      3  N   UNL     1       2.579   7.323  18.808  0.00  0.00    +0.000 N 
ATOM      4  C   UNL     1       1.732   7.561  19.981  0.00  0.00    +0.000 C 
ATOM      5  C   UNL     1       1.540   9.064  20.238  0.00  0.00    +0.000 C 
ATOM      6  N   UNL     1       1.087   9.759  19.021  0.00  0.00    +0.000 N 
ATOM      7  C   UNL     1       1.913   9.528  17.823  0.00  0.00    +0.000 C 
ATOM      8  C   UNL     1       2.113   8.018  17.592  0.00  0.00    +0.000 C 
ENDROOT
BRANCH   1  12
ATOM      9  C   UNL     1       6.307   4.865  14.863  0.00  0.00    +0.000 C 
ATOM     10  C   UNL     1       5.673   5.506  16.037  0.00  0.00    +0.000 A 
ATOM     11  C   UNL     1       4.568   5.065  16.797  0.00  0.00    +0.000 A 
ATOM     12  C   UNL     1       4.367   6.059  17.728  0.00  0.00    +0.000 A 
ATOM     13  O   UNL     1       5.355   6.989  17.583  0.00  0.00    +0.000 OA
ATOM     14  N   UNL     1       6.149   6.665  16.501  0.00  0.00    +0.000 NA
ENDBRANCH   1  12
BRANCH   6  15
ATOM     15  C   UNL     1      -0.168  10.328  18.918  0.00  0.00    +0.000 A 
ATOM     16  C   UNL     1      -1.017  10.007  17.844  0.00  0.00    +0.000 A 
ATOM     17  C   UNL     1      -2.271  10.608  17.691  0.00  0.00    +0.000 A 
ATOM     18  C   UNL     1      -2.714  11.543  18.619  0.00  0.00    +0.000 A 
ATOM     19  C   UNL     1      -1.902  11.870  19.698  0.00  0.00    +0.000 A 
ATOM     20  C   UNL     1      -0.645  11.269  19.841  0.00  0.00    +0.000 A 
ENDBRANCH   6  15
TORSDOF 2
ENDMDL
