MODEL 1
REMARK VINA RESULT:      -7.7      0.000      0.000
REMARK  Name = 
REMARK  3 active torsions:
REMARK  status: ('A' for Active; 'I' for Inactive)
REMARK    1  A    between atoms: C_1  and  O_2
REMARK    2  A    between atoms: O_2  and  C_3
REMARK    3  A    between atoms: C_5  and  O_6
REMARK                            x       y       z     vdW  Elec       q    Type
REMARK                         _______ _______ _______ _____ _____    ______ ____
ROOT
ATOM      1  C   UNL     1       6.885   6.221  16.839  0.00  0.00    +0.000 A 
ATOM      2  C   UNL     1       6.901   5.005  16.155  0.00  0.00    +0.000 A 
ATOM      3  C   UNL     1       5.931   4.037  16.418  0.00  0.00    +0.000 A 
ATOM      4  C   UNL     1       4.932   4.272  17.369  0.00  0.00    +0.000 A 
ATOM      5  C   UNL     1       3.882   3.284  17.678  0.00  0.00    +0.000 A 
ATOM      6  O   UNL     1       3.792   2.191  17.133  0.00  0.00    +0.000 OA
ATOM      7  C   UNL     1       2.898   3.655  18.701  0.00  0.00    +0.000 A 
ATOM      8  C   UNL     1       1.876   2.766  19.049  0.00  0.00    +0.000 A 
ATOM      9  C   UNL     1       0.947   3.125  20.022  0.00  0.00    +0.000 A 
ATOM     10  C   UNL     1       1.043   4.370  20.643  0.00  0.00    +0.000 A 
ATOM     11  C   UNL     1       2.069   5.257  20.290  0.00  0.00    +0.000 A 
ATOM     12  C   UNL     1       3.000   4.900  19.314  0.00  0.00    +0.000 A 
ATOM     13  O   UNL     1       3.978   5.818  19.014  0.00  0.00    +0.000 OA
ATOM     14  C   UNL     1       4.913   5.487  18.057  0.00  0.00    +0.000 A 
ATOM     15  C   UNL     1       5.887   6.456  17.790  0.00  0.00    +0.000 A 
ENDROOT
BRANCH   1  17
ATOM     16  C   UNL     1       7.848   8.218  17.691  0.00  0.00    +0.000 C 
ATOM     17  O   UNL     1       7.783   7.238  16.657  0.00  0.00    +0.000 OA
ENDBRANCH   1  17
BRANCH   3  18
ATOM     18  O   UNL     1       5.985   2.860  15.728  0.00  0.00    +0.000 OA
ATOM     19  H   UNL     1       5.105   2.597  15.421  0.00  0.00    +0.000 HD
ENDBRANCH   3  18
TORSDOF 2
ENDMDL
MODEL 2
REMARK VINA RESULT:      -7.7      1.832      2.908
REMARK  Name = 
REMARK  3 active torsions:
REMARK  status: ('A' for Active; 'I' for Inactive)
REMARK    1  A    between atoms: C_1  and  O_2
REMARK    2  A    between atoms: O_2  and  C_3
REMARK    3  A    between atoms: C_5  and  O_6
REMARK                            x       y       z     vdW  Elec       q    Type
REMARK                         _______ _______ _______ _____ _____    ______ ____
ROOT
ATOM      1  C   UNL     1       6.526   4.555  15.050  0.00  0.00    +0.000 A 
ATOM      2  C   UNL     1       7.406   4.741  16.117  0.00  0.00    +0.000 A 
ATOM      3  C   UNL     1       6.945   4.656  17.432  0.00  0.00    +0.000 A 
ATOM      4  C   UNL     1       5.598   4.385  17.697  0.00  0.00    +0.000 A 
ATOM      5  C   UNL     1       5.065   4.280  19.068  0.00  0.00    +0.000 A 
ATOM      6  O   UNL     1       5.746   4.413  20.078  0.00  0.00    +0.000 OA
ATOM      7  C   UNL     1       3.631   3.997  19.205  0.00  0.00    +0.000 A 
ATOM      8  C   UNL     1       3.055   3.888  20.475  0.00  0.00    +0.000 A 
ATOM      9  C   UNL     1       1.693   3.621  20.596  0.00  0.00    +0.000 A 
ATOM     10  C   UNL     1       0.915   3.465  19.450  0.00  0.00    +0.000 A 
ATOM     11  C   UNL     1       1.498   3.575  18.181  0.00  0.00    +0.000 A 
ATOM     12  C   UNL     1       2.863   3.841  18.057  0.00  0.00    +0.000 A 
ATOM     13  O   UNL     1       3.370   3.933  16.783  0.00  0.00    +0.000 OA
ATOM     14  C   UNL     1       4.714   4.200  16.632  0.00  0.00    +0.000 A 
ATOM     15  C   UNL     1       5.180   4.285  15.315  0.00  0.00    +0.000 A 
ENDROOT
BRANCH   1  17
ATOM     16  C   UNL     1       6.281   3.631  12.876  0.00  0.00    +0.000 C 
ATOM     17  O   UNL     1       6.871   4.612  13.727  0.00  0.00    +0.000 OA
ENDBRANCH   1  17
BRANCH   3  18
ATOM     18  O   UNL     1       7.839   4.847  18.446  0.00  0.00    +0.000 OA
ATOM     19  H   UNL     1       8.427   4.083  18.538  0.00  0.00    +0.000 HD
ENDBRANCH   3  18
TORSDOF 2
ENDMDL
MODEL 3
REMARK VINA RESULT:      -7.1      1.718      3.217
REMARK  Name = 
REMARK  3 active torsions:
REMARK  status: ('A' for Active; 'I' for Inactive)
REMARK    1  A    between atoms: C_1  and  O_2
REMARK    2  A    between atoms: O_2  and  C_3
REMARK    3  A    between atoms: C_5  and  O_6
REMARK                            x       y       z     vdW  Elec       q    Type
REMARK                         _______ _______ _______ _____ _____    ______ ____
ROOT
ATOM      1  C   UNL     1       5.588   5.476  15.496  0.00  0.00    +0.000 A 
ATOM      2  C   UNL     1       5.189   6.733  15.950  0.00  0.00    +0.000 A 
ATOM      3  C   UNL     1       4.290   6.846  17.012  0.00  0.00    +0.000 A 
ATOM      4  C   UNL     1       3.777   5.702  17.633  0.00  0.00    +0.000 A 
ATOM      5  C   UNL     1       2.830   5.768  18.761  0.00  0.00    +0.000 A 
ATOM      6  O   UNL     1       2.421   6.816  19.249  0.00  0.00    +0.000 OA
ATOM      7  C   UNL     1       2.364   4.493  19.317  0.00  0.00    +0.000 A 
ATOM      8  C   UNL     1       1.462   4.479  20.386  0.00  0.00    +0.000 A 
ATOM      9  C   UNL     1       1.024   3.264  20.906  0.00  0.00    +0.000 A 
ATOM     10  C   UNL     1       1.490   2.069  20.357  0.00  0.00    +0.000 A 
ATOM     11  C   UNL     1       2.394   2.089  19.287  0.00  0.00    +0.000 A 
ATOM     12  C   UNL     1       2.835   3.306  18.765  0.00  0.00    +0.000 A 
ATOM     13  O   UNL     1       3.724   3.253  17.718  0.00  0.00    +0.000 OA
ATOM     14  C   UNL     1       4.171   4.441  17.180  0.00  0.00    +0.000 A 
ATOM     15  C   UNL     1       5.074   4.332  16.116  0.00  0.00    +0.000 A 
ENDROOT
BRANCH   1  17
ATOM     16  C   UNL     1       6.328   4.010  13.781  0.00  0.00    +0.000 C 
ATOM     17  O   UNL     1       6.464   5.252  14.469  0.00  0.00    +0.000 OA
ENDBRANCH   1  17
BRANCH   3  18
ATOM     18  O   UNL     1       3.925   8.096  17.423  0.00  0.00    +0.000 OA
ATOM     19  H   UNL     1       4.687   8.694  17.433  0.00  0.00    +0.000 HD
ENDBRANCH   3  18
TORSDOF 2
ENDMDL
MODEL 4
REMARK VINA RESULT:      -7.0      2.419      3.490
REMARK  Name = 
REMARK  3 active torsions:
REMARK  status: ('A' for Active; 'I' for Inactive)
REMARK    1  A    between atoms: C_1  and  O_2
REMARK    2  A    between atoms: O_2  and  C_3
REMARK    3  A    between atoms: C_5  and  O_6
REMARK                            x       y       z     vdW  Elec       q    Type
REMARK                         _______ _______ _______ _____ _____    ______ ____
ROOT
ATOM      1  C   UNL     1       6.097   5.219  15.754  0.00  0.00    +0.000 A 
ATOM      2  C   UNL     1       6.135   4.279  16.784  0.00  0.00    +0.000 A 
ATOM      3  C   UNL     1       5.336   4.444  17.917  0.00  0.00    +0.000 A 
ATOM      4  C   UNL     1       4.489   5.551  18.034  0.00  0.00    +0.000 A 
ATOM      5  C   UNL     1       3.623   5.766  19.208  0.00  0.00    +0.000 A 
ATOM      6  O   UNL     1       3.566   5.002  20.164  0.00  0.00    +0.000 OA
ATOM      7  C   UNL     1       2.787   6.972  19.208  0.00  0.00    +0.000 A 
ATOM      8  C   UNL     1       1.943   7.244  20.289  0.00  0.00    +0.000 A 
ATOM      9  C   UNL     1       1.155   8.391  20.282  0.00  0.00    +0.000 A 
ATOM     10  C   UNL     1       1.213   9.262  19.194  0.00  0.00    +0.000 A 
ATOM     11  C   UNL     1       2.060   8.985  18.113  0.00  0.00    +0.000 A 
ATOM     12  C   UNL     1       2.851   7.834  18.118  0.00  0.00    +0.000 A 
ATOM     13  O   UNL     1       3.656   7.622  17.025  0.00  0.00    +0.000 OA
ATOM     14  C   UNL     1       4.450   6.496  17.007  0.00  0.00    +0.000 A 
ATOM     15  C   UNL     1       5.251   6.328  15.872  0.00  0.00    +0.000 A 
ENDROOT
BRANCH   1  17
ATOM     16  C   UNL     1       6.507   4.097  13.702  0.00  0.00    +0.000 C 
ATOM     17  O   UNL     1       6.833   5.154  14.602  0.00  0.00    +0.000 OA
ENDBRANCH   1  17
BRANCH   3  18
ATOM     18  O   UNL     1       5.406   3.500  18.902  0.00  0.00    +0.000 OA
ATOM     19  H   UNL     1       4.783   2.778  18.735  0.00  0.00    +0.000 HD
ENDBRANCH   3  18
TORSDOF 2
ENDMDL
MODEL 5
REMARK VINA RESULT:      -6.9      1.870      5.141
REMARK  Name = 
REMARK  3 active torsions:
REMARK  status: ('A' for Active; 'I' for Inactive)
REMARK    1  A    between atoms: C_1  and  O_2
REMARK    2  A    between atoms: O_2  and  C_3
REMARK    3  A    between atoms: C_5  and  O_6
REMARK                            x       y       z     vdW  Elec       q    Type
REMARK                         _______ _______ _______ _____ _____    ______ ____
ROOT
ATOM      1  C   UNL     1       1.750   6.217  20.477  0.00  0.00    +0.000 A 
ATOM      2  C   UNL     1       1.623   4.841  20.669  0.00  0.00    +0.000 A 
ATOM      3  C   UNL     1       2.291   3.948  19.830  0.00  0.00    +0.000 A 
ATOM      4  C   UNL     1       3.094   4.420  18.786  0.00  0.00    +0.000 A 
ATOM      5  C   UNL     1       3.825   3.518  17.877  0.00  0.00    +0.000 A 
ATOM      6  O   UNL     1       3.796   2.296  17.960  0.00  0.00    +0.000 OA
ATOM      7  C   UNL     1       4.627   4.143  16.819  0.00  0.00    +0.000 A 
ATOM      8  C   UNL     1       5.343   3.350  15.917  0.00  0.00    +0.000 A 
ATOM      9  C   UNL     1       6.100   3.951  14.916  0.00  0.00    +0.000 A 
ATOM     10  C   UNL     1       6.139   5.342  14.820  0.00  0.00    +0.000 A 
ATOM     11  C   UNL     1       5.420   6.132  15.727  0.00  0.00    +0.000 A 
ATOM     12  C   UNL     1       4.661   5.531  16.732  0.00  0.00    +0.000 A 
ATOM     13  O   UNL     1       3.983   6.365  17.589  0.00  0.00    +0.000 OA
ATOM     14  C   UNL     1       3.222   5.796  18.588  0.00  0.00    +0.000 A 
ATOM     15  C   UNL     1       2.551   6.689  19.432  0.00  0.00    +0.000 A 
ENDROOT
BRANCH   1  17
ATOM     16  C   UNL     1       1.261   8.521  20.778  0.00  0.00    +0.000 C 
ATOM     17  O   UNL     1       1.143   7.178  21.240  0.00  0.00    +0.000 OA
ENDBRANCH   1  17
BRANCH   3  18
ATOM     18  O   UNL     1       2.138   2.610  20.054  0.00  0.00    +0.000 OA
ATOM     19  H   UNL     1       1.207   2.351  19.984  0.00  0.00    +0.000 HD
ENDBRANCH   3  18
TORSDOF 2
ENDMDL
MODEL 6
REMARK VINA RESULT:      -6.8      1.875      5.950
REMARK  Name = 
REMARK  3 active torsions:
REMARK  status: ('A' for Active; 'I' for Inactive)
REMARK    1  A    between atoms: C_1  and  O_2
REMARK    2  A    between atoms: O_2  and  C_3
REMARK    3  A    between atoms: C_5  and  O_6
REMARK                            x       y       z     vdW  Elec       q    Type
REMARK                         _______ _______ _______ _____ _____    ______ ____
ROOT
ATOM      1  C   UNL     1       1.715   4.036  20.397  0.00  0.00    +0.000 A 
ATOM      2  C   UNL     1       1.676   5.430  20.439  0.00  0.00    +0.000 A 
ATOM      3  C   UNL     1       2.410   6.182  19.520  0.00  0.00    +0.000 A 
ATOM      4  C   UNL     1       3.193   5.549  18.548  0.00  0.00    +0.000 A 
ATOM      5  C   UNL     1       3.981   6.299  17.553  0.00  0.00    +0.000 A 
ATOM      6  O   UNL     1       4.013   7.522  17.488  0.00  0.00    +0.000 OA
ATOM      7  C   UNL     1       4.764   5.512  16.593  0.00  0.00    +0.000 A 
ATOM      8  C   UNL     1       5.539   6.156  15.622  0.00  0.00    +0.000 A 
ATOM      9  C   UNL     1       6.280   5.402  14.716  0.00  0.00    +0.000 A 
ATOM     10  C   UNL     1       6.243   4.010  14.783  0.00  0.00    +0.000 A 
ATOM     11  C   UNL     1       5.465   3.370  15.757  0.00  0.00    +0.000 A 
ATOM     12  C   UNL     1       4.720   4.124  16.666  0.00  0.00    +0.000 A 
ATOM     13  O   UNL     1       3.977   3.434  17.592  0.00  0.00    +0.000 OA
ATOM     14  C   UNL     1       3.237   4.154  18.504  0.00  0.00    +0.000 A 
ATOM     15  C   UNL     1       2.498   3.403  19.427  0.00  0.00    +0.000 A 
ENDROOT
BRANCH   1  17
ATOM     16  C   UNL     1       1.815   2.242  21.950  0.00  0.00    +0.000 C 
ATOM     17  O   UNL     1       1.034   3.205  21.245  0.00  0.00    +0.000 OA
ENDBRANCH   1  17
BRANCH   3  18
ATOM     18  O   UNL     1       2.345   7.544  19.597  0.00  0.00    +0.000 OA
ATOM     19  H   UNL     1       1.471   7.865  19.330  0.00  0.00    +0.000 HD
ENDBRANCH   3  18
TORSDOF 2
ENDMDL
MODEL 7
REMARK VINA RESULT:      -6.7      2.135      6.134
REMARK  Name = 
REMARK  3 active torsions:
REMARK  status: ('A' for Active; 'I' for Inactive)
REMARK    1  A    between atoms: C_1  and  O_2
REMARK    2  A    between atoms: O_2  and  C_3
REMARK    3  A    between atoms: C_5  and  O_6
REMARK                            x       y       z     vdW  Elec       q    Type
REMARK                         _______ _______ _______ _____ _____    ______ ____
ROOT
ATOM      1  C   UNL     1       4.048   3.714  18.736  0.00  0.00    +0.000 A 
ATOM      2  C   UNL     1       4.956   4.664  19.204  0.00  0.00    +0.000 A 
ATOM      3  C   UNL     1       5.895   5.226  18.338  0.00  0.00    +0.000 A 
ATOM      4  C   UNL     1       5.939   4.846  16.993  0.00  0.00    +0.000 A 
ATOM      5  C   UNL     1       6.907   5.415  16.038  0.00  0.00    +0.000 A 
ATOM      6  O   UNL     1       7.741   6.263  16.335  0.00  0.00    +0.000 OA
ATOM      7  C   UNL     1       6.850   4.924  14.657  0.00  0.00    +0.000 A 
ATOM      8  C   UNL     1       7.740   5.416  13.697  0.00  0.00    +0.000 A 
ATOM      9  C   UNL     1       7.680   4.943  12.389  0.00  0.00    +0.000 A 
ATOM     10  C   UNL     1       6.730   3.981  12.046  0.00  0.00    +0.000 A 
ATOM     11  C   UNL     1       5.840   3.492  13.011  0.00  0.00    +0.000 A 
ATOM     12  C   UNL     1       5.898   3.966  14.323  0.00  0.00    +0.000 A 
ATOM     13  O   UNL     1       4.994   3.446  15.217  0.00  0.00    +0.000 OA
ATOM     14  C   UNL     1       5.034   3.893  16.520  0.00  0.00    +0.000 A 
ATOM     15  C   UNL     1       4.092   3.331  17.391  0.00  0.00    +0.000 A 
ENDROOT
BRANCH   1  17
ATOM     16  C   UNL     1       1.749   3.561  19.310  0.00  0.00    +0.000 C 
ATOM     17  O   UNL     1       3.087   3.103  19.495  0.00  0.00    +0.000 OA
ENDBRANCH   1  17
BRANCH   3  18
ATOM     18  O   UNL     1       6.765   6.152  18.839  0.00  0.00    +0.000 OA
ATOM     19  H   UNL     1       6.292   6.929  19.170  0.00  0.00    +0.000 HD
ENDBRANCH   3  18
TORSDOF 2
ENDMDL
MODEL 8
REMARK VINA RESULT:      -6.6      2.168      5.272
REMARK  Name = 
REMARK  3 active torsions:
REMARK  status: ('A' for Active; 'I' for Inactive)
REMARK    1  A    between atoms: C_1  and  O_2
REMARK    2  A    between atoms: O_2  and  C_3
REMARK    3  A    between atoms: C_5  and  O_6
REMARK                            x       y       z     vdW  Elec       q    Type
REMARK                         _______ _______ _______ _____ _____    ______ ____
ROOT
ATOM      1  C   UNL     1       1.645   7.515  20.226  0.00  0.00    +0.000 A 
ATOM      2  C   UNL     1       1.560   6.243  20.791  0.00  0.00    +0.000 A 
ATOM      3  C   UNL     1       2.245   5.170  20.218  0.00  0.00    +0.000 A 
ATOM      4  C   UNL     1       3.024   5.356  19.072  0.00  0.00    +0.000 A 
ATOM      5  C   UNL     1       3.770   4.257  18.432  0.00  0.00    +0.000 A 
ATOM      6  O   UNL     1       3.778   3.104  18.849  0.00  0.00    +0.000 OA
ATOM      7  C   UNL     1       4.544   4.587  17.230  0.00  0.00    +0.000 A 
ATOM      8  C   UNL     1       5.274   3.594  16.569  0.00  0.00    +0.000 A 
ATOM      9  C   UNL     1       6.003   3.915  15.427  0.00  0.00    +0.000 A 
ATOM     10  C   UNL     1       6.001   5.226  14.952  0.00  0.00    +0.000 A 
ATOM     11  C   UNL     1       5.269   6.217  15.619  0.00  0.00    +0.000 A 
ATOM     12  C   UNL     1       4.537   5.897  16.764  0.00  0.00    +0.000 A 
ATOM     13  O   UNL     1       3.844   6.917  17.370  0.00  0.00    +0.000 OA
ATOM     14  C   UNL     1       3.110   6.627  18.500  0.00  0.00    +0.000 A 
ATOM     15  C   UNL     1       2.422   7.701  19.078  0.00  0.00    +0.000 A 
ENDROOT
BRANCH   1  17
ATOM     16  C   UNL     1       1.200   8.913  22.093  0.00  0.00    +0.000 C 
ATOM     17  O   UNL     1       1.019   8.633  20.706  0.00  0.00    +0.000 OA
ENDBRANCH   1  17
BRANCH   3  18
ATOM     18  O   UNL     1       2.132   3.942  20.804  0.00  0.00    +0.000 OA
ATOM     19  H   UNL     1       2.994   3.503  20.857  0.00  0.00    +0.000 HD
ENDBRANCH   3  18
TORSDOF 2
ENDMDL
MODEL 9
REMARK VINA RESULT:      -6.5      2.670      4.161
REMARK  Name = 
REMARK  3 active torsions:
REMARK  status: ('A' for Active; 'I' for Inactive)
REMARK    1  A    between atoms: C_1  and  O_2
REMARK    2  A    between atoms: O_2  and  C_3
REMARK    3  A    between atoms: C_5  and  O_6
REMARK                            x       y       z     vdW  Elec       q    Type
REMARK                         _______ _______ _______ _____ _____    ______ ____
ROOT
ATOM      1  C   UNL     1       5.127   4.336  16.960  0.00  0.00    +0.000 A 
ATOM      2  C   UNL     1       4.727   3.644  18.103  0.00  0.00    +0.000 A 
ATOM      3  C   UNL     1       3.864   4.242  19.022  0.00  0.00    +0.000 A 
ATOM      4  C   UNL     1       3.388   5.540  18.810  0.00  0.00    +0.000 A 
ATOM      5  C   UNL     1       2.471   6.213  19.748  0.00  0.00    +0.000 A 
ATOM      6  O   UNL     1       2.046   5.698  20.775  0.00  0.00    +0.000 OA
ATOM      7  C   UNL     1       2.053   7.578  19.409  0.00  0.00    +0.000 A 
ATOM      8  C   UNL     1       1.187   8.279  20.254  0.00  0.00    +0.000 A 
ATOM      9  C   UNL     1       0.798   9.575  19.926  0.00  0.00    +0.000 A 
ATOM     10  C   UNL     1       1.275  10.164  18.755  0.00  0.00    +0.000 A 
ATOM     11  C   UNL     1       2.142   9.457  17.912  0.00  0.00    +0.000 A 
ATOM     12  C   UNL     1       2.533   8.157  18.239  0.00  0.00    +0.000 A 
ATOM     13  O   UNL     1       3.383   7.521  17.366  0.00  0.00    +0.000 OA
ATOM     14  C   UNL     1       3.788   6.238  17.668  0.00  0.00    +0.000 A 
ATOM     15  C   UNL     1       4.653   5.635  16.748  0.00  0.00    +0.000 A 
ENDROOT
BRANCH   1  17
ATOM     16  C   UNL     1       6.767   4.802  15.307  0.00  0.00    +0.000 C 
ATOM     17  O   UNL     1       5.964   3.845  15.995  0.00  0.00    +0.000 OA
ENDBRANCH   1  17
BRANCH   3  18
ATOM     18  O   UNL     1       3.499   3.529  20.129  0.00  0.00    +0.000 OA
ATOM     19  H   UNL     1       2.536   3.515  20.230  0.00  0.00    +0.000 HD
ENDBRANCH   3  18
TORSDOF 2
ENDMDL
