MODEL 1
REMARK VINA RESULT:      -6.6      0.000      0.000
REMARK  Name = 
REMARK  5 active torsions:
REMARK  status: ('A' for Active; 'I' for Inactive)
REMARK    1  A    between atoms: C_1  and  O_2
REMARK    2  A    between atoms: O_2  and  C_3
REMARK    3  A    between atoms: C_3  and  C_4
REMARK    4  A    between atoms: C_4  and  C_5
REMARK    5  A    between atoms: C_4  and  C_11
REMARK                            x       y       z     vdW  Elec       q    Type
REMARK                         _______ _______ _______ _____ _____    ______ ____
ROOT
ATOM      1  C   UNL     1       3.950   5.907  18.582  0.00  0.00    +0.000 C 
ENDROOT
BRANCH   1   2
ATOM      2  C   UNL     1       5.110   5.166  17.818  0.00  0.00    +0.000 C 
ATOM      3  C   UNL     1       5.832   6.018  16.753  0.00  0.00    +0.000 C 
ATOM      4  C   UNL     1       6.700   7.104  17.375  0.00  0.00    +0.000 C 
ATOM      5  C   UNL     1       7.696   6.487  18.349  0.00  0.00    +0.000 C 
ATOM      6  C   UNL     1       7.025   5.532  19.336  0.00  0.00    +0.000 C 
ATOM      7  N   UNL     1       6.139   4.561  18.691  0.00  0.00    +0.000 NA
ATOM      8  H   UNL     1       5.678   4.005  19.415  0.00  0.00    +0.000 HD
ENDBRANCH   1   2
BRANCH   1   9
ATOM      9  C   UNL     1       2.867   4.916  19.036  0.00  0.00    +0.000 A 
ATOM     10  C   UNL     1       2.438   4.845  20.373  0.00  0.00    +0.000 A 
ATOM     11  C   UNL     1       1.426   3.961  20.758  0.00  0.00    +0.000 A 
ATOM     12  C   UNL     1       0.827   3.138  19.807  0.00  0.00    +0.000 A 
ATOM     13  C   UNL     1       1.242   3.191  18.479  0.00  0.00    +0.000 A 
ATOM     14  C   UNL     1       2.258   4.071  18.095  0.00  0.00    +0.000 A 
ENDBRANCH   1   9
BRANCH   1  15
ATOM     15  C   UNL     1       3.321   7.040  17.734  0.00  0.00    +0.000 C 
BRANCH  15  17
ATOM     16  C   UNL     1       2.078   9.048  17.856  0.00  0.00    +0.000 C 
ATOM     17  O   UNL     1       2.506   7.886  18.557  0.00  0.00    +0.000 OA
ENDBRANCH  15  17
ENDBRANCH   1  15
TORSDOF 4
ENDMDL
MODEL 2
REMARK VINA RESULT:      -6.6      0.116      1.211
REMARK  Name = 
REMARK  5 active torsions:
REMARK  status: ('A' for Active; 'I' for Inactive)
REMARK    1  A    between atoms: C_1  and  O_2
REMARK    2  A    between atoms: O_2  and  C_3
REMARK    3  A    between atoms: C_3  and  C_4
REMARK    4  A    between atoms: C_4  and  C_5
REMARK    5  A    between atoms: C_4  and  C_11
REMARK                            x       y       z     vdW  Elec       q    Type
REMARK                         _______ _______ _______ _____ _____    ______ ____
ROOT
ATOM      1  C   UNL     1       4.018   5.974  18.566  0.00  0.00    +0.000 C 
ENDROOT
BRANCH   1   2
ATOM      2  C   UNL     1       5.181   5.217  17.823  0.00  0.00    +0.000 C 
ATOM      3  C   UNL     1       5.961   6.070  16.801  0.00  0.00    +0.000 C 
ATOM      4  C   UNL     1       6.837   7.118  17.473  0.00  0.00    +0.000 C 
ATOM      5  C   UNL     1       7.784   6.454  18.465  0.00  0.00    +0.000 C 
ATOM      6  C   UNL     1       7.055   5.497  19.409  0.00  0.00    +0.000 C 
ATOM      7  N   UNL     1       6.164   4.565  18.716  0.00  0.00    +0.000 NA
ATOM      8  H   UNL     1       5.665   4.007  19.412  0.00  0.00    +0.000 HD
ENDBRANCH   1   2
BRANCH   1   9
ATOM      9  C   UNL     1       2.901   5.003  18.976  0.00  0.00    +0.000 A 
ATOM     10  C   UNL     1       2.251   4.179  18.038  0.00  0.00    +0.000 A 
ATOM     11  C   UNL     1       1.261   3.277  18.439  0.00  0.00    +0.000 A 
ATOM     12  C   UNL     1       0.911   3.184  19.783  0.00  0.00    +0.000 A 
ATOM     13  C   UNL     1       1.540   3.995  20.725  0.00  0.00    +0.000 A 
ATOM     14  C   UNL     1       2.526   4.902  20.325  0.00  0.00    +0.000 A 
ENDBRANCH   1   9
BRANCH   1  15
ATOM     15  C   UNL     1       3.438   7.134  17.717  0.00  0.00    +0.000 C 
BRANCH  15  17
ATOM     16  C   UNL     1       2.018   9.023  17.761  0.00  0.00    +0.000 C 
ATOM     17  O   UNL     1       2.544   7.930  18.505  0.00  0.00    +0.000 OA
ENDBRANCH  15  17
ENDBRANCH   1  15
TORSDOF 4
ENDMDL
MODEL 3
REMARK VINA RESULT:      -6.5      2.121      5.400
REMARK  Name = 
REMARK  5 active torsions:
REMARK  status: ('A' for Active; 'I' for Inactive)
REMARK    1  A    between atoms: C_1  and  O_2
REMARK    2  A    between atoms: O_2  and  C_3
REMARK    3  A    between atoms: C_3  and  C_4
REMARK    4  A    between atoms: C_4  and  C_5
REMARK    5  A    between atoms: C_4  and  C_11
REMARK                            x       y       z     vdW  Elec       q    Type
REMARK                         _______ _______ _______ _____ _____    ______ ____
ROOT
ATOM      1  C   UNL     1       4.414   4.657  17.806  0.00  0.00    +0.000 C 
ENDROOT
BRANCH   1   2
ATOM      2  C   UNL     1       3.097   5.463  18.111  0.00  0.00    +0.000 C 
ATOM      3  C   UNL     1       1.790   4.743  17.718  0.00  0.00    +0.000 C 
ATOM      4  C   UNL     1       1.486   3.560  18.628  0.00  0.00    +0.000 C 
ATOM      5  C   UNL     1       1.442   4.014  20.081  0.00  0.00    +0.000 C 
ATOM      6  C   UNL     1       2.666   4.847  20.465  0.00  0.00    +0.000 C 
ATOM      7  N   UNL     1       2.960   5.918  19.513  0.00  0.00    +0.000 NA
ATOM      8  H   UNL     1       3.824   6.384  19.799  0.00  0.00    +0.000 HD
ENDBRANCH   1   2
BRANCH   1   9
ATOM      9  C   UNL     1       5.658   5.533  18.019  0.00  0.00    +0.000 A 
ATOM     10  C   UNL     1       6.646   5.204  18.965  0.00  0.00    +0.000 A 
ATOM     11  C   UNL     1       7.788   5.997  19.118  0.00  0.00    +0.000 A 
ATOM     12  C   UNL     1       7.958   7.127  18.322  0.00  0.00    +0.000 A 
ATOM     13  C   UNL     1       6.988   7.471  17.383  0.00  0.00    +0.000 A 
ATOM     14  C   UNL     1       5.844   6.682  17.234  0.00  0.00    +0.000 A 
ENDBRANCH   1   9
BRANCH   1  15
ATOM     15  C   UNL     1       4.416   4.058  16.378  0.00  0.00    +0.000 C 
BRANCH  15  17
ATOM     16  C   UNL     1       6.085   3.883  14.712  0.00  0.00    +0.000 C 
ATOM     17  O   UNL     1       5.719   3.557  16.049  0.00  0.00    +0.000 OA
ENDBRANCH  15  17
ENDBRANCH   1  15
TORSDOF 4
ENDMDL
MODEL 4
REMARK VINA RESULT:      -6.5      2.123      5.471
REMARK  Name = 
REMARK  5 active torsions:
REMARK  status: ('A' for Active; 'I' for Inactive)
REMARK    1  A    between atoms: C_1  and  O_2
REMARK    2  A    between atoms: O_2  and  C_3
REMARK    3  A    between atoms: C_3  and  C_4
REMARK    4  A    between atoms: C_4  and  C_5
REMARK    5  A    between atoms: C_4  and  C_11
REMARK                            x       y       z     vdW  Elec       q    Type
REMARK                         _______ _______ _______ _____ _____    ______ ____
ROOT
ATOM      1  C   UNL     1       4.451   4.649  17.815  0.00  0.00    +0.000 C 
ENDROOT
BRANCH   1   2
ATOM      2  C   UNL     1       3.143   5.472  18.113  0.00  0.00    +0.000 C 
ATOM      3  C   UNL     1       1.829   4.769  17.716  0.00  0.00    +0.000 C 
ATOM      4  C   UNL     1       1.506   3.593  18.628  0.00  0.00    +0.000 C 
ATOM      5  C   UNL     1       1.462   4.050  20.080  0.00  0.00    +0.000 C 
ATOM      6  C   UNL     1       2.696   4.867  20.467  0.00  0.00    +0.000 C 
ATOM      7  N   UNL     1       3.008   5.932  19.513  0.00  0.00    +0.000 NA
ATOM      8  H   UNL     1       3.877   6.388  19.801  0.00  0.00    +0.000 HD
ENDBRANCH   1   2
BRANCH   1   9
ATOM      9  C   UNL     1       5.703   5.525  17.973  0.00  0.00    +0.000 A 
ATOM     10  C   UNL     1       5.904   6.681  17.197  0.00  0.00    +0.000 A 
ATOM     11  C   UNL     1       7.034   7.483  17.382  0.00  0.00    +0.000 A 
ATOM     12  C   UNL     1       7.976   7.141  18.349  0.00  0.00    +0.000 A 
ATOM     13  C   UNL     1       7.796   5.997  19.123  0.00  0.00    +0.000 A 
ATOM     14  C   UNL     1       6.669   5.191  18.935  0.00  0.00    +0.000 A 
ENDBRANCH   1   9
BRANCH   1  15
ATOM     15  C   UNL     1       4.424   3.998  16.409  0.00  0.00    +0.000 C 
BRANCH  15  17
ATOM     16  C   UNL     1       6.049   3.873  14.696  0.00  0.00    +0.000 C 
ATOM     17  O   UNL     1       5.735   3.545  16.044  0.00  0.00    +0.000 OA
ENDBRANCH  15  17
ENDBRANCH   1  15
TORSDOF 4
ENDMDL
MODEL 5
REMARK VINA RESULT:      -6.5      2.223      5.568
REMARK  Name = 
REMARK  5 active torsions:
REMARK  status: ('A' for Active; 'I' for Inactive)
REMARK    1  A    between atoms: C_1  and  O_2
REMARK    2  A    between atoms: O_2  and  C_3
REMARK    3  A    between atoms: C_3  and  C_4
REMARK    4  A    between atoms: C_4  and  C_5
REMARK    5  A    between atoms: C_4  and  C_11
REMARK                            x       y       z     vdW  Elec       q    Type
REMARK                         _______ _______ _______ _____ _____    ______ ____
ROOT
ATOM      1  C   UNL     1       4.194   4.451  18.556  0.00  0.00    +0.000 C 
ENDROOT
BRANCH   1   2
ATOM      2  C   UNL     1       2.862   5.282  18.446  0.00  0.00    +0.000 C 
ATOM      3  C   UNL     1       1.632   4.476  17.980  0.00  0.00    +0.000 C 
ATOM      4  C   UNL     1       1.142   3.504  19.044  0.00  0.00    +0.000 C 
ATOM      5  C   UNL     1       0.848   4.248  20.340  0.00  0.00    +0.000 C 
ATOM      6  C   UNL     1       2.002   5.160  20.759  0.00  0.00    +0.000 C 
ATOM      7  N   UNL     1       2.487   6.015  19.675  0.00  0.00    +0.000 NA
ATOM      8  H   UNL     1       3.296   6.544  20.009  0.00  0.00    +0.000 HD
ENDBRANCH   1   2
BRANCH   1   9
ATOM      9  C   UNL     1       5.423   5.342  18.317  0.00  0.00    +0.000 A 
ATOM     10  C   UNL     1       5.431   6.348  17.334  0.00  0.00    +0.000 A 
ATOM     11  C   UNL     1       6.547   7.171  17.157  0.00  0.00    +0.000 A 
ATOM     12  C   UNL     1       7.668   7.001  17.966  0.00  0.00    +0.000 A 
ATOM     13  C   UNL     1       7.679   6.008  18.942  0.00  0.00    +0.000 A 
ATOM     14  C   UNL     1       6.567   5.181  19.115  0.00  0.00    +0.000 A 
ENDBRANCH   1   9
BRANCH   1  15
ATOM     15  C   UNL     1       4.212   3.241  17.589  0.00  0.00    +0.000 C 
BRANCH  15  17
ATOM     16  C   UNL     1       4.359   2.184  19.698  0.00  0.00    +0.000 C 
ATOM     17  O   UNL     1       4.056   2.016  18.318  0.00  0.00    +0.000 OA
ENDBRANCH  15  17
ENDBRANCH   1  15
TORSDOF 4
ENDMDL
MODEL 6
REMARK VINA RESULT:      -6.5      2.559      5.442
REMARK  Name = 
REMARK  5 active torsions:
REMARK  status: ('A' for Active; 'I' for Inactive)
REMARK    1  A    between atoms: C_1  and  O_2
REMARK    2  A    between atoms: O_2  and  C_3
REMARK    3  A    between atoms: C_3  and  C_4
REMARK    4  A    between atoms: C_4  and  C_5
REMARK    5  A    between atoms: C_4  and  C_11
REMARK                            x       y       z     vdW  Elec       q    Type
REMARK                         _______ _______ _______ _____ _____    ______ ____
ROOT
ATOM      1  C   UNL     1       3.831   3.624  18.147  0.00  0.00    +0.000 C 
ENDROOT
BRANCH   1   2
ATOM      2  C   UNL     1       2.548   4.509  17.930  0.00  0.00    +0.000 C 
ATOM      3  C   UNL     1       1.280   3.999  18.646  0.00  0.00    +0.000 C 
ATOM      4  C   UNL     1       1.359   4.176  20.156  0.00  0.00    +0.000 C 
ATOM      5  C   UNL     1       1.631   5.634  20.501  0.00  0.00    +0.000 C 
ATOM      6  C   UNL     1       2.804   6.208  19.706  0.00  0.00    +0.000 C 
ATOM      7  N   UNL     1       2.718   5.939  18.270  0.00  0.00    +0.000 NA
ATOM      8  H   UNL     1       3.564   6.292  17.817  0.00  0.00    +0.000 HD
ENDBRANCH   1   2
BRANCH   1   9
ATOM      9  C   UNL     1       4.981   4.088  17.241  0.00  0.00    +0.000 A 
ATOM     10  C   UNL     1       6.227   4.481  17.764  0.00  0.00    +0.000 A 
ATOM     11  C   UNL     1       7.272   4.867  16.918  0.00  0.00    +0.000 A 
ATOM     12  C   UNL     1       7.085   4.859  15.538  0.00  0.00    +0.000 A 
ATOM     13  C   UNL     1       5.857   4.478  15.003  0.00  0.00    +0.000 A 
ATOM     14  C   UNL     1       4.810   4.098  15.847  0.00  0.00    +0.000 A 
ENDBRANCH   1   9
BRANCH   1  15
ATOM     15  C   UNL     1       3.547   2.117  17.926  0.00  0.00    +0.000 C 
BRANCH  15  17
ATOM     16  C   UNL     1       4.381   2.169  20.137  0.00  0.00    +0.000 C 
ATOM     17  O   UNL     1       4.058   1.347  19.022  0.00  0.00    +0.000 OA
ENDBRANCH  15  17
ENDBRANCH   1  15
TORSDOF 4
ENDMDL
MODEL 7
REMARK VINA RESULT:      -6.4      2.527      5.553
REMARK  Name = 
REMARK  5 active torsions:
REMARK  status: ('A' for Active; 'I' for Inactive)
REMARK    1  A    between atoms: C_1  and  O_2
REMARK    2  A    between atoms: O_2  and  C_3
REMARK    3  A    between atoms: C_3  and  C_4
REMARK    4  A    between atoms: C_4  and  C_5
REMARK    5  A    between atoms: C_4  and  C_11
REMARK                            x       y       z     vdW  Elec       q    Type
REMARK                         _______ _______ _______ _____ _____    ______ ____
ROOT
ATOM      1  C   UNL     1       3.855   3.625  18.087  0.00  0.00    +0.000 C 
ENDROOT
BRANCH   1   2
ATOM      2  C   UNL     1       2.559   4.494  17.882  0.00  0.00    +0.000 C 
ATOM      3  C   UNL     1       1.307   3.973  18.616  0.00  0.00    +0.000 C 
ATOM      4  C   UNL     1       1.403   4.157  20.125  0.00  0.00    +0.000 C 
ATOM      5  C   UNL     1       1.662   5.620  20.460  0.00  0.00    +0.000 C 
ATOM      6  C   UNL     1       2.818   6.204  19.647  0.00  0.00    +0.000 C 
ATOM      7  N   UNL     1       2.717   5.927  18.214  0.00  0.00    +0.000 NA
ATOM      8  H   UNL     1       3.553   6.288  17.749  0.00  0.00    +0.000 HD
ENDBRANCH   1   2
BRANCH   1   9
ATOM      9  C   UNL     1       4.995   4.112  17.179  0.00  0.00    +0.000 A 
ATOM     10  C   UNL     1       4.852   4.187  15.782  0.00  0.00    +0.000 A 
ATOM     11  C   UNL     1       5.891   4.667  14.977  0.00  0.00    +0.000 A 
ATOM     12  C   UNL     1       7.085   5.081  15.562  0.00  0.00    +0.000 A 
ATOM     13  C   UNL     1       7.246   5.009  16.943  0.00  0.00    +0.000 A 
ATOM     14  C   UNL     1       6.211   4.524  17.748  0.00  0.00    +0.000 A 
ENDBRANCH   1   9
BRANCH   1  15
ATOM     15  C   UNL     1       3.591   2.116  17.856  0.00  0.00    +0.000 C 
BRANCH  15  17
ATOM     16  C   UNL     1       4.430   2.138  20.066  0.00  0.00    +0.000 C 
ATOM     17  O   UNL     1       3.712   1.394  19.088  0.00  0.00    +0.000 OA
ENDBRANCH  15  17
ENDBRANCH   1  15
TORSDOF 4
ENDMDL
MODEL 8
REMARK VINA RESULT:      -6.4      1.550      4.941
REMARK  Name = 
REMARK  5 active torsions:
REMARK  status: ('A' for Active; 'I' for Inactive)
REMARK    1  A    between atoms: C_1  and  O_2
REMARK    2  A    between atoms: O_2  and  C_3
REMARK    3  A    between atoms: C_3  and  C_4
REMARK    4  A    between atoms: C_4  and  C_5
REMARK    5  A    between atoms: C_4  and  C_11
REMARK                            x       y       z     vdW  Elec       q    Type
REMARK                         _______ _______ _______ _____ _____    ______ ____
ROOT
ATOM      1  C   UNL     1       3.494   4.977  18.475  0.00  0.00    +0.000 C 
ENDROOT
BRANCH   1   2
ATOM      2  C   UNL     1       3.435   4.033  19.732  0.00  0.00    +0.000 C 
ATOM      3  C   UNL     1       2.332   4.380  20.754  0.00  0.00    +0.000 C 
ATOM      4  C   UNL     1       0.939   4.060  20.230  0.00  0.00    +0.000 C 
ATOM      5  C   UNL     1       0.857   2.596  19.816  0.00  0.00    +0.000 C 
ATOM      6  C   UNL     1       2.016   2.186  18.907  0.00  0.00    +0.000 C 
ATOM      7  N   UNL     1       3.325   2.591  19.419  0.00  0.00    +0.000 NA
ATOM      8  H   UNL     1       4.039   2.343  18.729  0.00  0.00    +0.000 HD
ENDBRANCH   1   2
BRANCH   1   9
ATOM      9  C   UNL     1       4.780   4.743  17.668  0.00  0.00    +0.000 A 
ATOM     10  C   UNL     1       4.750   4.304  16.332  0.00  0.00    +0.000 A 
ATOM     11  C   UNL     1       5.932   4.131  15.605  0.00  0.00    +0.000 A 
ATOM     12  C   UNL     1       7.160   4.398  16.205  0.00  0.00    +0.000 A 
ATOM     13  C   UNL     1       7.209   4.828  17.529  0.00  0.00    +0.000 A 
ATOM     14  C   UNL     1       6.029   4.996  18.258  0.00  0.00    +0.000 A 
ENDBRANCH   1   9
BRANCH   1  15
ATOM     15  C   UNL     1       3.366   6.472  18.859  0.00  0.00    +0.000 C 
BRANCH  15  17
ATOM     16  C   UNL     1       2.444   8.394  17.835  0.00  0.00    +0.000 C 
ATOM     17  O   UNL     1       3.328   7.289  17.681  0.00  0.00    +0.000 OA
ENDBRANCH  15  17
ENDBRANCH   1  15
TORSDOF 4
ENDMDL
MODEL 9
REMARK VINA RESULT:      -6.4      2.606      5.503
REMARK  Name = 
REMARK  5 active torsions:
REMARK  status: ('A' for Active; 'I' for Inactive)
REMARK    1  A    between atoms: C_1  and  O_2
REMARK    2  A    between atoms: O_2  and  C_3
REMARK    3  A    between atoms: C_3  and  C_4
REMARK    4  A    between atoms: C_4  and  C_5
REMARK    5  A    between atoms: C_4  and  C_11
REMARK                            x       y       z     vdW  Elec       q    Type
REMARK                         _______ _______ _______ _____ _____    ______ ____
ROOT
ATOM      1  C   UNL     1       5.107   4.315  17.099  0.00  0.00    +0.000 C 
ENDROOT
BRANCH   1   2
ATOM      2  C   UNL     1       3.685   4.590  17.714  0.00  0.00    +0.000 C 
ATOM      3  C   UNL     1       2.565   3.662  17.201  0.00  0.00    +0.000 C 
ATOM      4  C   UNL     1       2.709   2.240  17.726  0.00  0.00    +0.000 C 
ATOM      5  C   UNL     1       2.759   2.244  19.248  0.00  0.00    +0.000 C 
ATOM      6  C   UNL     1       3.769   3.255  19.791  0.00  0.00    +0.000 C 
ATOM      7  N   UNL     1       3.638   4.584  19.193  0.00  0.00    +0.000 NA
ATOM      8  H   UNL     1       4.385   5.183  19.553  0.00  0.00    +0.000 HD
ENDBRANCH   1   2
BRANCH   1   9
ATOM      9  C   UNL     1       6.128   5.356  17.582  0.00  0.00    +0.000 A 
ATOM     10  C   UNL     1       7.067   5.064  18.588  0.00  0.00    +0.000 A 
ATOM     11  C   UNL     1       8.011   6.015  18.988  0.00  0.00    +0.000 A 
ATOM     12  C   UNL     1       8.030   7.269  18.383  0.00  0.00    +0.000 A 
ATOM     13  C   UNL     1       7.105   7.577  17.389  0.00  0.00    +0.000 A 
ATOM     14  C   UNL     1       6.157   6.630  16.992  0.00  0.00    +0.000 A 
ENDBRANCH   1   9
BRANCH   1  15
ATOM     15  C   UNL     1       5.076   4.271  15.550  0.00  0.00    +0.000 C 
BRANCH  15  17
ATOM     16  C   UNL     1       6.772   4.532  13.924  0.00  0.00    +0.000 C 
ATOM     17  O   UNL     1       6.321   3.774  15.041  0.00  0.00    +0.000 OA
ENDBRANCH  15  17
ENDBRANCH   1  15
TORSDOF 4
ENDMDL
