MODEL 1
REMARK VINA RESULT:      -6.4      0.000      0.000
REMARK  Name = 
REMARK  3 active torsions:
REMARK  status: ('A' for Active; 'I' for Inactive)
REMARK    1  A    between atoms: C_1  and  O_2
REMARK    2  A    between atoms: O_2  and  C_3
REMARK    3  A    between atoms: C_6  and  C_7
REMARK                            x       y       z     vdW  Elec       q    Type
REMARK                         _______ _______ _______ _____ _____    ______ ____
ROOT
ATOM      1  C   UNL     1       0.992  12.724  19.858  0.00  0.00    +0.000 C 
ATOM      2  O   UNL     1       2.210  12.638  20.014  0.00  0.00    +0.000 OA
ATOM      3  N   UNL     1       0.113  11.598  19.704  0.00  0.00    +0.000 N 
ATOM      4  C   UNL     1       0.813  10.373  19.436  0.00  0.00    +0.000 A 
ATOM      5  C   UNL     1       1.514  10.312  18.211  0.00  0.00    +0.000 A 
ATOM      6  C   UNL     1       2.232   9.174  17.842  0.00  0.00    +0.000 A 
ATOM      7  C   UNL     1       2.249   8.076  18.682  0.00  0.00    +0.000 A 
ATOM      8  C   UNL     1       1.569   8.132  19.908  0.00  0.00    +0.000 A 
ATOM      9  C   UNL     1       0.855   9.283  20.302  0.00  0.00    +0.000 A 
ATOM     10  S   UNL     1       0.126   9.265  21.930  0.00  0.00    +0.000 S 
ATOM     11  O   UNL     1       1.287   9.315  22.982  0.00  0.00    +0.000 OA
ATOM     12  C   UNL     1      -0.652  10.868  21.900  0.00  0.00    +0.000 A 
ATOM     13  C   UNL     1      -1.155  11.410  23.085  0.00  0.00    +0.000 A 
ATOM     14  C   UNL     1      -2.049  12.482  23.045  0.00  0.00    +0.000 A 
ATOM     15  C   UNL     1      -2.534  12.927  21.821  0.00  0.00    +0.000 A 
ATOM     16  C   UNL     1      -1.977  12.433  20.646  0.00  0.00    +0.000 A 
ATOM     17  C   UNL     1      -0.912  11.526  20.703  0.00  0.00    +0.000 A 
ENDROOT
BRANCH   1  21
ATOM     18  C   UNL     1      -0.369  16.788  19.703  0.00  0.00    +0.000 A 
ATOM     19  C   UNL     1      -0.448  15.971  18.573  0.00  0.00    +0.000 A 
ATOM     20  C   UNL     1      -0.037  14.638  18.619  0.00  0.00    +0.000 A 
ATOM     21  C   UNL     1       0.436  14.103  19.817  0.00  0.00    +0.000 A 
ATOM     22  C   UNL     1       0.508  14.912  20.959  0.00  0.00    +0.000 A 
ATOM     23  C   UNL     1       0.101  16.254  20.900  0.00  0.00    +0.000 A 
BRANCH  18  25
ATOM     24  C   UNL     1      -1.653  18.337  18.425  0.00  0.00    +0.000 C 
ATOM     25  O   UNL     1      -0.738  18.086  19.482  0.00  0.00    +0.000 OA
ENDBRANCH  18  25
ENDBRANCH   1  21
TORSDOF 2
ENDMDL
MODEL 2
REMARK VINA RESULT:      -6.4      8.240      9.972
REMARK  Name = 
REMARK  3 active torsions:
REMARK  status: ('A' for Active; 'I' for Inactive)
REMARK    1  A    between atoms: C_1  and  O_2
REMARK    2  A    between atoms: O_2  and  C_3
REMARK    3  A    between atoms: C_6  and  C_7
REMARK                            x       y       z     vdW  Elec       q    Type
REMARK                         _______ _______ _______ _____ _____    ______ ____
ROOT
ATOM      1  C   UNL     1       8.734  12.054  21.749  0.00  0.00    +0.000 C 
ATOM      2  O   UNL     1       8.663  10.951  21.206  0.00  0.00    +0.000 OA
ATOM      3  N   UNL     1       9.384  13.199  21.175  0.00  0.00    +0.000 N 
ATOM      4  C   UNL     1      10.215  12.866  20.052  0.00  0.00    +0.000 A 
ATOM      5  C   UNL     1      11.338  12.053  20.327  0.00  0.00    +0.000 A 
ATOM      6  C   UNL     1      12.217  11.664  19.315  0.00  0.00    +0.000 A 
ATOM      7  C   UNL     1      11.998  12.093  18.019  0.00  0.00    +0.000 A 
ATOM      8  C   UNL     1      10.878  12.888  17.733  0.00  0.00    +0.000 A 
ATOM      9  C   UNL     1       9.970  13.272  18.742  0.00  0.00    +0.000 A 
ATOM     10  S   UNL     1       8.531  14.192  18.228  0.00  0.00    +0.000 S 
ATOM     11  O   UNL     1       7.606  13.227  17.411  0.00  0.00    +0.000 OA
ATOM     12  C   UNL     1       7.782  14.443  19.826  0.00  0.00    +0.000 A 
ATOM     13  C   UNL     1       6.471  14.920  19.903  0.00  0.00    +0.000 A 
ATOM     14  C   UNL     1       5.980  15.438  21.102  0.00  0.00    +0.000 A 
ATOM     15  C   UNL     1       6.837  15.594  22.186  0.00  0.00    +0.000 A 
ATOM     16  C   UNL     1       8.116  15.053  22.127  0.00  0.00    +0.000 A 
ATOM     17  C   UNL     1       8.517  14.326  20.999  0.00  0.00    +0.000 A 
ENDROOT
BRANCH   1  21
ATOM     18  C   UNL     1       6.943  12.104  25.645  0.00  0.00    +0.000 A 
ATOM     19  C   UNL     1       8.299  12.398  25.485  0.00  0.00    +0.000 A 
ATOM     20  C   UNL     1       8.887  12.415  24.219  0.00  0.00    +0.000 A 
ATOM     21  C   UNL     1       8.105  12.161  23.092  0.00  0.00    +0.000 A 
ATOM     22  C   UNL     1       6.741  11.876  23.242  0.00  0.00    +0.000 A 
ATOM     23  C   UNL     1       6.161  11.852  24.520  0.00  0.00    +0.000 A 
BRANCH  18  25
ATOM     24  C   UNL     1       6.318  10.771  27.520  0.00  0.00    +0.000 C 
ATOM     25  O   UNL     1       6.531  12.054  26.948  0.00  0.00    +0.000 OA
ENDBRANCH  18  25
ENDBRANCH   1  21
TORSDOF 2
ENDMDL
MODEL 3
REMARK VINA RESULT:      -6.2      8.208      9.784
REMARK  Name = 
REMARK  3 active torsions:
REMARK  status: ('A' for Active; 'I' for Inactive)
REMARK    1  A    between atoms: C_1  and  O_2
REMARK    2  A    between atoms: O_2  and  C_3
REMARK    3  A    between atoms: C_6  and  C_7
REMARK                            x       y       z     vdW  Elec       q    Type
REMARK                         _______ _______ _______ _____ _____    ______ ____
ROOT
ATOM      1  C   UNL     1       8.745  12.014  21.762  0.00  0.00    +0.000 C 
ATOM      2  O   UNL     1       8.660  10.936  21.173  0.00  0.00    +0.000 OA
ATOM      3  N   UNL     1       9.397  13.178  21.230  0.00  0.00    +0.000 N 
ATOM      4  C   UNL     1      10.214  12.889  20.085  0.00  0.00    +0.000 A 
ATOM      5  C   UNL     1      11.333  12.057  20.313  0.00  0.00    +0.000 A 
ATOM      6  C   UNL     1      12.199  11.706  19.276  0.00  0.00    +0.000 A 
ATOM      7  C   UNL     1      11.970  12.190  18.002  0.00  0.00    +0.000 A 
ATOM      8  C   UNL     1      10.853  13.004  17.762  0.00  0.00    +0.000 A 
ATOM      9  C   UNL     1       9.958  13.351  18.796  0.00  0.00    +0.000 A 
ATOM     10  S   UNL     1       8.520  14.301  18.336  0.00  0.00    +0.000 S 
ATOM     11  O   UNL     1       7.579  13.377  17.489  0.00  0.00    +0.000 OA
ATOM     12  C   UNL     1       7.789  14.489  19.951  0.00  0.00    +0.000 A 
ATOM     13  C   UNL     1       6.482  14.970  20.062  0.00  0.00    +0.000 A 
ATOM     14  C   UNL     1       6.007  15.440  21.287  0.00  0.00    +0.000 A 
ATOM     15  C   UNL     1       6.876  15.545  22.367  0.00  0.00    +0.000 A 
ATOM     16  C   UNL     1       8.151  14.998  22.272  0.00  0.00    +0.000 A 
ATOM     17  C   UNL     1       8.536  14.318  21.111  0.00  0.00    +0.000 A 
ENDROOT
BRANCH   1  21
ATOM     18  C   UNL     1       6.956  12.428  25.637  0.00  0.00    +0.000 A 
ATOM     19  C   UNL     1       6.176  12.087  24.530  0.00  0.00    +0.000 A 
ATOM     20  C   UNL     1       6.751  11.919  23.269  0.00  0.00    +0.000 A 
ATOM     21  C   UNL     1       8.130  12.068  23.115  0.00  0.00    +0.000 A 
ATOM     22  C   UNL     1       8.921  12.399  24.222  0.00  0.00    +0.000 A 
ATOM     23  C   UNL     1       8.332  12.575  25.484  0.00  0.00    +0.000 A 
BRANCH  18  25
ATOM     24  C   UNL     1       5.242  13.640  26.767  0.00  0.00    +0.000 C 
ATOM     25  O   UNL     1       6.240  12.629  26.785  0.00  0.00    +0.000 OA
ENDBRANCH  18  25
ENDBRANCH   1  21
TORSDOF 2
ENDMDL
MODEL 4
REMARK VINA RESULT:      -6.0      4.547      7.462
REMARK  Name = 
REMARK  3 active torsions:
REMARK  status: ('A' for Active; 'I' for Inactive)
REMARK    1  A    between atoms: C_1  and  O_2
REMARK    2  A    between atoms: O_2  and  C_3
REMARK    3  A    between atoms: C_6  and  C_7
REMARK                            x       y       z     vdW  Elec       q    Type
REMARK                         _______ _______ _______ _____ _____    ______ ____
ROOT
ATOM      1  C   UNL     1       3.533   7.033  18.073  0.00  0.00    +0.000 C 
ATOM      2  O   UNL     1       4.649   7.541  18.188  0.00  0.00    +0.000 OA
ATOM      3  N   UNL     1       3.286   5.743  17.494  0.00  0.00    +0.000 N 
ATOM      4  C   UNL     1       4.417   5.225  16.776  0.00  0.00    +0.000 A 
ATOM      5  C   UNL     1       4.805   5.946  15.624  0.00  0.00    +0.000 A 
ATOM      6  C   UNL     1       5.891   5.540  14.846  0.00  0.00    +0.000 A 
ATOM      7  C   UNL     1       6.594   4.403  15.196  0.00  0.00    +0.000 A 
ATOM      8  C   UNL     1       6.225   3.688  16.346  0.00  0.00    +0.000 A 
ATOM      9  C   UNL     1       5.143   4.098  17.153  0.00  0.00    +0.000 A 
ATOM     10  S   UNL     1       4.847   3.166  18.644  0.00  0.00    +0.000 S 
ATOM     11  O   UNL     1       6.025   3.454  19.638  0.00  0.00    +0.000 OA
ATOM     12  C   UNL     1       3.411   4.041  19.234  0.00  0.00    +0.000 A 
ATOM     13  C   UNL     1       2.955   3.816  20.535  0.00  0.00    +0.000 A 
ATOM     14  C   UNL     1       1.671   4.215  20.910  0.00  0.00    +0.000 A 
ATOM     15  C   UNL     1       0.802   4.723  19.951  0.00  0.00    +0.000 A 
ATOM     16  C   UNL     1       1.283   5.011  18.679  0.00  0.00    +0.000 A 
ATOM     17  C   UNL     1       2.639   4.825  18.385  0.00  0.00    +0.000 A 
ENDROOT
BRANCH   1  21
ATOM     18  C   UNL     1       0.413   9.573  19.560  0.00  0.00    +0.000 A 
ATOM     19  C   UNL     1       0.690   9.518  18.192  0.00  0.00    +0.000 A 
ATOM     20  C   UNL     1       1.682   8.672  17.692  0.00  0.00    +0.000 A 
ATOM     21  C   UNL     1       2.392   7.849  18.568  0.00  0.00    +0.000 A 
ATOM     22  C   UNL     1       2.113   7.890  19.940  0.00  0.00    +0.000 A 
ATOM     23  C   UNL     1       1.120   8.750  20.434  0.00  0.00    +0.000 A 
BRANCH  18  25
ATOM     24  C   UNL     1      -1.379  10.986  18.872  0.00  0.00    +0.000 C 
ATOM     25  O   UNL     1      -0.531  10.500  19.903  0.00  0.00    +0.000 OA
ENDBRANCH  18  25
ENDBRANCH   1  21
TORSDOF 2
ENDMDL
MODEL 5
REMARK VINA RESULT:      -6.0      5.238      6.539
REMARK  Name = 
REMARK  3 active torsions:
REMARK  status: ('A' for Active; 'I' for Inactive)
REMARK    1  A    between atoms: C_1  and  O_2
REMARK    2  A    between atoms: O_2  and  C_3
REMARK    3  A    between atoms: C_6  and  C_7
REMARK                            x       y       z     vdW  Elec       q    Type
REMARK                         _______ _______ _______ _____ _____    ______ ____
ROOT
ATOM      1  C   UNL     1      -4.056  13.001  22.108  0.00  0.00    +0.000 C 
ATOM      2  O   UNL     1      -3.488  11.908  22.102  0.00  0.00    +0.000 OA
ATOM      3  N   UNL     1      -5.126  13.362  21.221  0.00  0.00    +0.000 N 
ATOM      4  C   UNL     1      -5.270  12.454  20.117  0.00  0.00    +0.000 A 
ATOM      5  C   UNL     1      -4.193  12.408  19.204  0.00  0.00    +0.000 A 
ATOM      6  C   UNL     1      -4.218  11.563  18.094  0.00  0.00    +0.000 A 
ATOM      7  C   UNL     1      -5.323  10.763  17.871  0.00  0.00    +0.000 A 
ATOM      8  C   UNL     1      -6.391  10.790  18.780  0.00  0.00    +0.000 A 
ATOM      9  C   UNL     1      -6.371  11.624  19.916  0.00  0.00    +0.000 A 
ATOM     10  S   UNL     1      -7.742  11.483  21.048  0.00  0.00    +0.000 S 
ATOM     11  O   UNL     1      -7.644  10.089  21.758  0.00  0.00    +0.000 OA
ATOM     12  C   UNL     1      -7.254  12.729  22.226  0.00  0.00    +0.000 A 
ATOM     13  C   UNL     1      -7.916  12.812  23.453  0.00  0.00    +0.000 A 
ATOM     14  C   UNL     1      -7.797  13.957  24.242  0.00  0.00    +0.000 A 
ATOM     15  C   UNL     1      -7.119  15.065  23.746  0.00  0.00    +0.000 A 
ATOM     16  C   UNL     1      -6.403  14.952  22.560  0.00  0.00    +0.000 A 
ATOM     17  C   UNL     1      -6.338  13.721  21.895  0.00  0.00    +0.000 A 
ENDROOT
BRANCH   1  21
ATOM     18  C   UNL     1      -2.414  15.705  25.003  0.00  0.00    +0.000 A 
ATOM     19  C   UNL     1      -2.341  15.998  23.639  0.00  0.00    +0.000 A 
ATOM     20  C   UNL     1      -2.898  15.140  22.688  0.00  0.00    +0.000 A 
ATOM     21  C   UNL     1      -3.563  13.987  23.106  0.00  0.00    +0.000 A 
ATOM     22  C   UNL     1      -3.651  13.691  24.473  0.00  0.00    +0.000 A 
ATOM     23  C   UNL     1      -3.079  14.555  25.420  0.00  0.00    +0.000 A 
BRANCH  18  25
ATOM     24  C   UNL     1      -1.703  17.951  25.369  0.00  0.00    +0.000 C 
ATOM     25  O   UNL     1      -1.758  16.600  25.803  0.00  0.00    +0.000 OA
ENDBRANCH  18  25
ENDBRANCH   1  21
TORSDOF 2
ENDMDL
MODEL 6
REMARK VINA RESULT:      -5.8      5.171      6.575
REMARK  Name = 
REMARK  3 active torsions:
REMARK  status: ('A' for Active; 'I' for Inactive)
REMARK    1  A    between atoms: C_1  and  O_2
REMARK    2  A    between atoms: O_2  and  C_3
REMARK    3  A    between atoms: C_6  and  C_7
REMARK                            x       y       z     vdW  Elec       q    Type
REMARK                         _______ _______ _______ _____ _____    ______ ____
ROOT
ATOM      1  C   UNL     1      -3.942  13.058  22.118  0.00  0.00    +0.000 C 
ATOM      2  O   UNL     1      -3.423  11.942  22.159  0.00  0.00    +0.000 OA
ATOM      3  N   UNL     1      -5.008  13.424  21.228  0.00  0.00    +0.000 N 
ATOM      4  C   UNL     1      -5.209  12.470  20.173  0.00  0.00    +0.000 A 
ATOM      5  C   UNL     1      -4.148  12.331  19.249  0.00  0.00    +0.000 A 
ATOM      6  C   UNL     1      -4.228  11.434  18.183  0.00  0.00    +0.000 A 
ATOM      7  C   UNL     1      -5.371  10.676  18.014  0.00  0.00    +0.000 A 
ATOM      8  C   UNL     1      -6.423  10.795  18.934  0.00  0.00    +0.000 A 
ATOM      9  C   UNL     1      -6.348  11.683  20.028  0.00  0.00    +0.000 A 
ATOM     10  S   UNL     1      -7.707  11.660  21.183  0.00  0.00    +0.000 S 
ATOM     11  O   UNL     1      -7.661  10.300  21.959  0.00  0.00    +0.000 OA
ATOM     12  C   UNL     1      -7.147  12.939  22.290  0.00  0.00    +0.000 A 
ATOM     13  C   UNL     1      -7.786  13.112  23.520  0.00  0.00    +0.000 A 
ATOM     14  C   UNL     1      -7.603  14.288  24.250  0.00  0.00    +0.000 A 
ATOM     15  C   UNL     1      -6.883  15.338  23.691  0.00  0.00    +0.000 A 
ATOM     16  C   UNL     1      -6.191  15.134  22.502  0.00  0.00    +0.000 A 
ATOM     17  C   UNL     1      -6.192  13.871  21.899  0.00  0.00    +0.000 A 
ENDROOT
BRANCH   1  21
ATOM     18  C   UNL     1      -2.569  16.107  24.804  0.00  0.00    +0.000 A 
ATOM     19  C   UNL     1      -3.145  14.934  25.298  0.00  0.00    +0.000 A 
ATOM     20  C   UNL     1      -3.567  13.921  24.436  0.00  0.00    +0.000 A 
ATOM     21  C   UNL     1      -3.390  14.069  23.060  0.00  0.00    +0.000 A 
ATOM     22  C   UNL     1      -2.803  15.237  22.556  0.00  0.00    +0.000 A 
ATOM     23  C   UNL     1      -2.390  16.254  23.431  0.00  0.00    +0.000 A 
BRANCH  18  25
ATOM     24  C   UNL     1      -0.993  16.967  26.372  0.00  0.00    +0.000 C 
ATOM     25  O   UNL     1      -2.276  17.034  25.765  0.00  0.00    +0.000 OA
ENDBRANCH  18  25
ENDBRANCH   1  21
TORSDOF 2
ENDMDL
MODEL 7
REMARK VINA RESULT:      -5.8      8.041      9.608
REMARK  Name = 
REMARK  3 active torsions:
REMARK  status: ('A' for Active; 'I' for Inactive)
REMARK    1  A    between atoms: C_1  and  O_2
REMARK    2  A    between atoms: O_2  and  C_3
REMARK    3  A    between atoms: C_6  and  C_7
REMARK                            x       y       z     vdW  Elec       q    Type
REMARK                         _______ _______ _______ _____ _____    ______ ____
ROOT
ATOM      1  C   UNL     1       8.562  12.671  21.711  0.00  0.00    +0.000 C 
ATOM      2  O   UNL     1       8.547  11.463  21.467  0.00  0.00    +0.000 OA
ATOM      3  N   UNL     1       9.210  13.655  20.890  0.00  0.00    +0.000 N 
ATOM      4  C   UNL     1      10.104  13.079  19.925  0.00  0.00    +0.000 A 
ATOM      5  C   UNL     1      11.232  12.407  20.446  0.00  0.00    +0.000 A 
ATOM      6  C   UNL     1      12.170  11.806  19.605  0.00  0.00    +0.000 A 
ATOM      7  C   UNL     1      12.005  11.881  18.234  0.00  0.00    +0.000 A 
ATOM      8  C   UNL     1      10.880  12.534  17.708  0.00  0.00    +0.000 A 
ATOM      9  C   UNL     1       9.914  13.128  18.546  0.00  0.00    +0.000 A 
ATOM     10  S   UNL     1       8.478  13.831  17.755  0.00  0.00    +0.000 S 
ATOM     11  O   UNL     1       7.620  12.654  17.175  0.00  0.00    +0.000 OA
ATOM     12  C   UNL     1       7.644  14.452  19.202  0.00  0.00    +0.000 A 
ATOM     13  C   UNL     1       6.319  14.882  19.100  0.00  0.00    +0.000 A 
ATOM     14  C   UNL     1       5.755  15.670  20.104  0.00  0.00    +0.000 A 
ATOM     15  C   UNL     1       6.553  16.130  21.146  0.00  0.00    +0.000 A 
ATOM     16  C   UNL     1       7.847  15.641  21.281  0.00  0.00    +0.000 A 
ATOM     17  C   UNL     1       8.323  14.667  20.395  0.00  0.00    +0.000 A 
ENDROOT
BRANCH   1  21
ATOM     18  C   UNL     1       6.559  13.640  25.378  0.00  0.00    +0.000 A 
ATOM     19  C   UNL     1       7.935  13.847  25.246  0.00  0.00    +0.000 A 
ATOM     20  C   UNL     1       8.593  13.564  24.047  0.00  0.00    +0.000 A 
ATOM     21  C   UNL     1       7.864  13.093  22.955  0.00  0.00    +0.000 A 
ATOM     22  C   UNL     1       6.482  12.893  23.075  0.00  0.00    +0.000 A 
ATOM     23  C   UNL     1       5.831  13.172  24.286  0.00  0.00    +0.000 A 
BRANCH  18  25
ATOM     24  C   UNL     1       5.192  12.935  27.198  0.00  0.00    +0.000 C 
ATOM     25  O   UNL     1       6.074  13.893  26.631  0.00  0.00    +0.000 OA
ENDBRANCH  18  25
ENDBRANCH   1  21
TORSDOF 2
ENDMDL
MODEL 8
REMARK VINA RESULT:      -5.8      4.609      7.326
REMARK  Name = 
REMARK  3 active torsions:
REMARK  status: ('A' for Active; 'I' for Inactive)
REMARK    1  A    between atoms: C_1  and  O_2
REMARK    2  A    between atoms: O_2  and  C_3
REMARK    3  A    between atoms: C_6  and  C_7
REMARK                            x       y       z     vdW  Elec       q    Type
REMARK                         _______ _______ _______ _____ _____    ______ ____
ROOT
ATOM      1  C   UNL     1      -5.132  11.961  19.622  0.00  0.00    +0.000 C 
ATOM      2  O   UNL     1      -6.105  11.311  20.007  0.00  0.00    +0.000 OA
ATOM      3  N   UNL     1      -4.680  13.181  20.231  0.00  0.00    +0.000 N 
ATOM      4  C   UNL     1      -5.643  13.746  21.133  0.00  0.00    +0.000 A 
ATOM      5  C   UNL     1      -6.853  14.189  20.555  0.00  0.00    +0.000 A 
ATOM      6  C   UNL     1      -7.865  14.755  21.332  0.00  0.00    +0.000 A 
ATOM      7  C   UNL     1      -7.677  14.901  22.694  0.00  0.00    +0.000 A 
ATOM      8  C   UNL     1      -6.485  14.451  23.280  0.00  0.00    +0.000 A 
ATOM      9  C   UNL     1      -5.463  13.859  22.510  0.00  0.00    +0.000 A 
ATOM     10  S   UNL     1      -4.045  13.232  23.392  0.00  0.00    +0.000 S 
ATOM     11  O   UNL     1      -4.501  11.977  24.212  0.00  0.00    +0.000 OA
ATOM     12  C   UNL     1      -3.090  12.656  22.001  0.00  0.00    +0.000 A 
ATOM     13  C   UNL     1      -1.974  11.846  22.222  0.00  0.00    +0.000 A 
ATOM     14  C   UNL     1      -1.028  11.659  21.213  0.00  0.00    +0.000 A 
ATOM     15  C   UNL     1      -1.134  12.382  20.030  0.00  0.00    +0.000 A 
ATOM     16  C   UNL     1      -2.281  13.130  19.788  0.00  0.00    +0.000 A 
ATOM     17  C   UNL     1      -3.332  13.120  20.713  0.00  0.00    +0.000 A 
ENDROOT
BRANCH   1  21
ATOM     18  C   UNL     1      -3.247  10.217  16.187  0.00  0.00    +0.000 A 
ATOM     19  C   UNL     1      -4.064  11.342  16.052  0.00  0.00    +0.000 A 
ATOM     20  C   UNL     1      -4.659  11.937  17.166  0.00  0.00    +0.000 A 
ATOM     21  C   UNL     1      -4.413  11.419  18.438  0.00  0.00    +0.000 A 
ATOM     22  C   UNL     1      -3.586  10.298  18.584  0.00  0.00    +0.000 A 
ATOM     23  C   UNL     1      -3.000   9.701  17.457  0.00  0.00    +0.000 A 
BRANCH  18  25
ATOM     24  C   UNL     1      -3.508  10.061  13.822  0.00  0.00    +0.000 C 
ATOM     25  O   UNL     1      -2.799   9.706  15.001  0.00  0.00    +0.000 OA
ENDBRANCH  18  25
ENDBRANCH   1  21
TORSDOF 2
ENDMDL
MODEL 9
REMARK VINA RESULT:      -5.7      4.201      7.215
REMARK  Name = 
REMARK  3 active torsions:
REMARK  status: ('A' for Active; 'I' for Inactive)
REMARK    1  A    between atoms: C_1  and  O_2
REMARK    2  A    between atoms: O_2  and  C_3
REMARK    3  A    between atoms: C_6  and  C_7
REMARK                            x       y       z     vdW  Elec       q    Type
REMARK                         _______ _______ _______ _____ _____    ______ ____
ROOT
ATOM      1  C   UNL     1      -3.010  12.540  19.634  0.00  0.00    +0.000 C 
ATOM      2  O   UNL     1      -3.097  13.735  19.918  0.00  0.00    +0.000 OA
ATOM      3  N   UNL     1      -4.135  11.662  19.474  0.00  0.00    +0.000 N 
ATOM      4  C   UNL     1      -5.358  12.220  19.979  0.00  0.00    +0.000 A 
ATOM      5  C   UNL     1      -5.411  12.443  21.374  0.00  0.00    +0.000 A 
ATOM      6  C   UNL     1      -6.547  12.983  21.979  0.00  0.00    +0.000 A 
ATOM      7  C   UNL     1      -7.650  13.294  21.206  0.00  0.00    +0.000 A 
ATOM      8  C   UNL     1      -7.601  13.090  19.819  0.00  0.00    +0.000 A 
ATOM      9  C   UNL     1      -6.453  12.563  19.191  0.00  0.00    +0.000 A 
ATOM     10  S   UNL     1      -6.482  12.455  17.411  0.00  0.00    +0.000 S 
ATOM     11  O   UNL     1      -6.438  13.912  16.836  0.00  0.00    +0.000 OA
ATOM     12  C   UNL     1      -4.879  11.720  17.155  0.00  0.00    +0.000 A 
ATOM     13  C   UNL     1      -4.344  11.668  15.865  0.00  0.00    +0.000 A 
ATOM     14  C   UNL     1      -3.273  10.820  15.581  0.00  0.00    +0.000 A 
ATOM     15  C   UNL     1      -2.821   9.934  16.552  0.00  0.00    +0.000 A 
ATOM     16  C   UNL     1      -3.307  10.040  17.851  0.00  0.00    +0.000 A 
ATOM     17  C   UNL     1      -4.214  11.055  18.178  0.00  0.00    +0.000 A 
ENDROOT
BRANCH   1  21
ATOM     18  C   UNL     1       0.868  10.819  19.003  0.00  0.00    +0.000 A 
ATOM     19  C   UNL     1       0.444  11.910  18.240  0.00  0.00    +0.000 A 
ATOM     20  C   UNL     1      -0.804  12.498  18.456  0.00  0.00    +0.000 A 
ATOM     21  C   UNL     1      -1.631  12.008  19.468  0.00  0.00    +0.000 A 
ATOM     22  C   UNL     1      -1.209  10.922  20.245  0.00  0.00    +0.000 A 
ATOM     23  C   UNL     1       0.043  10.331  20.014  0.00  0.00    +0.000 A 
BRANCH  18  25
ATOM     24  C   UNL     1       2.076   9.090  17.893  0.00  0.00    +0.000 C 
ATOM     25  O   UNL     1       2.078  10.308  18.623  0.00  0.00    +0.000 OA
ENDBRANCH  18  25
ENDBRANCH   1  21
TORSDOF 2
ENDMDL
