MODEL 1
REMARK VINA RESULT:      -6.7      0.000      0.000
REMARK  Name = 
REMARK  4 active torsions:
REMARK  status: ('A' for Active; 'I' for Inactive)
REMARK    1  A    between atoms: C_2  and  C_3
REMARK    2  A    between atoms: C_5  and  O_6
REMARK    3  A    between atoms: O_6  and  C_7
REMARK    4  A    between atoms: N_20  and  C_21
REMARK                            x       y       z     vdW  Elec       q    Type
REMARK                         _______ _______ _______ _____ _____    ______ ____
ROOT
ATOM      1  C   UNL     1       4.239   5.720  18.581  0.00  0.00    +0.000 C 
ATOM      2  C   UNL     1       4.031   4.527  17.664  0.00  0.00    +0.000 C 
ATOM      3  C   UNL     1       5.385   4.400  16.991  0.00  0.00    +0.000 C 
ATOM      4  C   UNL     1       6.346   4.740  18.144  0.00  0.00    +0.000 C 
ATOM      5  N   UNL     1       5.563   5.443  19.179  0.00  0.00    +0.000 NA
ATOM      6  H   UNL     1       6.020   6.310  19.450  0.00  0.00    +0.000 HD
ENDROOT
BRANCH   1   8
ATOM      7  O   UNL     1       3.028   4.931  20.509  0.00  0.00    +0.000 OA
ATOM      8  C   UNL     1       3.133   5.807  19.646  0.00  0.00    +0.000 C 
ATOM      9  N   UNL     1       2.248   6.889  19.584  0.00  0.00    +0.000 N 
ATOM     10  C   UNL     1       1.281   7.031  20.667  0.00  0.00    +0.000 C 
ATOM     11  C   UNL     1       1.300   8.367  21.398  0.00  0.00    +0.000 C 
ATOM     12  C   UNL     1       1.584   9.658  20.629  0.00  0.00    +0.000 C 
ATOM     13  N   UNL     1       1.150   9.816  19.241  0.00  0.00    +0.000 NA
ATOM     14  C   UNL     1       1.995   9.061  18.310  0.00  0.00    +0.000 C 
ATOM     15  C   UNL     1       1.888   7.534  18.318  0.00  0.00    +0.000 C 
BRANCH  13  16
ATOM     16  C   UNL     1      -0.289   9.614  19.047  0.00  0.00    +0.000 C 
ATOM     17  C   UNL     1      -1.058  10.850  19.587  0.00  0.00    +0.000 C 
ATOM     18  C   UNL     1      -1.891  10.822  18.292  0.00  0.00    +0.000 C 
ATOM     19  C   UNL     1      -0.716  10.079  17.629  0.00  0.00    +0.000 C 
ENDBRANCH  13  16
ENDBRANCH   1   8
BRANCH   3  20
ATOM     20  O   UNL     1       5.564   5.395  15.971  0.00  0.00    +0.000 OA
BRANCH  20  21
ATOM     21  C   UNL     1       6.093   4.994  14.776  0.00  0.00    +0.000 A 
ATOM     22  C   UNL     1       7.289   5.451  14.219  0.00  0.00    +0.000 A 
ATOM     23  C   UNL     1       7.753   4.921  13.014  0.00  0.00    +0.000 A 
ATOM     24  C   UNL     1       7.005   3.954  12.357  0.00  0.00    +0.000 A 
ATOM     25  F   UNL     1       7.446   3.458  11.194  0.00  0.00    +0.000 F 
ATOM     26  C   UNL     1       5.808   3.495  12.889  0.00  0.00    +0.000 A 
ATOM     27  C   UNL     1       5.359   4.008  14.109  0.00  0.00    +0.000 A 
ENDBRANCH  20  21
ENDBRANCH   3  20
TORSDOF 4
ENDMDL
MODEL 2
REMARK VINA RESULT:      -6.7      4.380      6.966
REMARK  Name = 
REMARK  4 active torsions:
REMARK  status: ('A' for Active; 'I' for Inactive)
REMARK    1  A    between atoms: C_2  and  C_3
REMARK    2  A    between atoms: C_5  and  O_6
REMARK    3  A    between atoms: O_6  and  C_7
REMARK    4  A    between atoms: N_20  and  C_21
REMARK                            x       y       z     vdW  Elec       q    Type
REMARK                         _______ _______ _______ _____ _____    ______ ____
ROOT
ATOM      1  C   UNL     1       0.697  10.199  20.382  0.00  0.00    +0.000 C 
ATOM      2  C   UNL     1      -0.033   8.871  20.485  0.00  0.00    +0.000 C 
ATOM      3  C   UNL     1       0.926   8.041  21.317  0.00  0.00    +0.000 C 
ATOM      4  C   UNL     1       1.455   9.080  22.323  0.00  0.00    +0.000 C 
ATOM      5  N   UNL     1       1.170  10.417  21.766  0.00  0.00    +0.000 NA
ATOM      6  H   UNL     1       2.007  10.995  21.771  0.00  0.00    +0.000 HD
ENDROOT
BRANCH   1   8
ATOM      7  O   UNL     1      -1.462  11.130  19.855  0.00  0.00    +0.000 OA
ATOM      8  C   UNL     1      -0.244  11.321  19.912  0.00  0.00    +0.000 C 
ATOM      9  N   UNL     1       0.328  12.540  19.534  0.00  0.00    +0.000 N 
ATOM     10  C   UNL     1      -0.576  13.637  19.208  0.00  0.00    +0.000 C 
ATOM     11  C   UNL     1      -0.370  14.921  20.001  0.00  0.00    +0.000 C 
ATOM     12  C   UNL     1       1.042  15.359  20.397  0.00  0.00    +0.000 C 
ATOM     13  N   UNL     1       2.185  15.078  19.529  0.00  0.00    +0.000 NA
ATOM     14  C   UNL     1       2.593  13.670  19.593  0.00  0.00    +0.000 C 
ATOM     15  C   UNL     1       1.672  12.627  18.954  0.00  0.00    +0.000 C 
BRANCH  13  16
ATOM     16  C   UNL     1       2.036  15.601  18.168  0.00  0.00    +0.000 C 
ATOM     17  C   UNL     1       2.034  17.153  18.212  0.00  0.00    +0.000 C 
ATOM     18  C   UNL     1       3.015  17.127  17.025  0.00  0.00    +0.000 C 
ATOM     19  C   UNL     1       3.420  15.711  17.473  0.00  0.00    +0.000 C 
ENDBRANCH  13  16
ENDBRANCH   1   8
BRANCH   3  20
ATOM     20  O   UNL     1       2.044   7.585  20.539  0.00  0.00    +0.000 OA
BRANCH  20  21
ATOM     21  C   UNL     1       1.971   6.334  19.994  0.00  0.00    +0.000 A 
ATOM     22  C   UNL     1       1.448   5.200  20.620  0.00  0.00    +0.000 A 
ATOM     23  C   UNL     1       1.378   3.986  19.934  0.00  0.00    +0.000 A 
ATOM     24  C   UNL     1       1.855   3.904  18.634  0.00  0.00    +0.000 A 
ATOM     25  F   UNL     1       1.799   2.735  17.984  0.00  0.00    +0.000 F 
ATOM     26  C   UNL     1       2.388   5.017  17.999  0.00  0.00    +0.000 A 
ATOM     27  C   UNL     1       2.433   6.238  18.677  0.00  0.00    +0.000 A 
ENDBRANCH  20  21
ENDBRANCH   3  20
TORSDOF 4
ENDMDL
MODEL 3
REMARK VINA RESULT:      -6.6      4.726      7.449
REMARK  Name = 
REMARK  4 active torsions:
REMARK  status: ('A' for Active; 'I' for Inactive)
REMARK    1  A    between atoms: C_2  and  C_3
REMARK    2  A    between atoms: C_5  and  O_6
REMARK    3  A    between atoms: O_6  and  C_7
REMARK    4  A    between atoms: N_20  and  C_21
REMARK                            x       y       z     vdW  Elec       q    Type
REMARK                         _______ _______ _______ _____ _____    ______ ____
ROOT
ATOM      1  C   UNL     1       0.078  11.008  21.520  0.00  0.00    +0.000 C 
ATOM      2  C   UNL     1      -0.463   9.803  20.770  0.00  0.00    +0.000 C 
ATOM      3  C   UNL     1       0.067   8.647  21.596  0.00  0.00    +0.000 C 
ATOM      4  C   UNL     1      -0.064   9.193  23.029  0.00  0.00    +0.000 C 
ATOM      5  N   UNL     1      -0.194  10.660  22.931  0.00  0.00    +0.000 NA
ATOM      6  H   UNL     1       0.471  11.122  23.547  0.00  0.00    +0.000 HD
ENDROOT
BRANCH   1   8
ATOM      7  O   UNL     1      -1.848  12.442  21.316  0.00  0.00    +0.000 OA
ATOM      8  C   UNL     1      -0.642  12.300  21.097  0.00  0.00    +0.000 C 
ATOM      9  N   UNL     1       0.109  13.283  20.443  0.00  0.00    +0.000 N 
ATOM     10  C   UNL     1      -0.549  14.553  20.155  0.00  0.00    +0.000 C 
ATOM     11  C   UNL     1       0.145  15.794  20.701  0.00  0.00    +0.000 C 
ATOM     12  C   UNL     1       1.673  15.866  20.737  0.00  0.00    +0.000 C 
ATOM     13  N   UNL     1       2.478  15.215  19.705  0.00  0.00    +0.000 NA
ATOM     14  C   UNL     1       2.531  13.759  19.882  0.00  0.00    +0.000 C 
ATOM     15  C   UNL     1       1.260  12.955  19.597  0.00  0.00    +0.000 C 
BRANCH  13  16
ATOM     16  C   UNL     1       2.149  15.644  18.342  0.00  0.00    +0.000 C 
ATOM     17  C   UNL     1       2.236  17.191  18.257  0.00  0.00    +0.000 C 
ATOM     18  C   UNL     1       3.021  17.015  16.943  0.00  0.00    +0.000 C 
ATOM     19  C   UNL     1       3.415  15.612  17.443  0.00  0.00    +0.000 C 
ENDBRANCH  13  16
ENDBRANCH   1   8
BRANCH   3  20
ATOM     20  O   UNL     1       1.462   8.415  21.348  0.00  0.00    +0.000 OA
BRANCH  20  21
ATOM     21  C   UNL     1       1.796   7.589  20.311  0.00  0.00    +0.000 A 
ATOM     22  C   UNL     1       2.175   7.999  19.031  0.00  0.00    +0.000 A 
ATOM     23  C   UNL     1       2.548   7.056  18.071  0.00  0.00    +0.000 A 
ATOM     24  C   UNL     1       2.515   5.706  18.387  0.00  0.00    +0.000 A 
ATOM     25  F   UNL     1       2.860   4.803  17.459  0.00  0.00    +0.000 F 
ATOM     26  C   UNL     1       2.129   5.278  19.650  0.00  0.00    +0.000 A 
ATOM     27  C   UNL     1       1.782   6.224  20.618  0.00  0.00    +0.000 A 
ENDBRANCH  20  21
ENDBRANCH   3  20
TORSDOF 4
ENDMDL
MODEL 4
REMARK VINA RESULT:      -6.6      3.555      5.088
REMARK  Name = 
REMARK  4 active torsions:
REMARK  status: ('A' for Active; 'I' for Inactive)
REMARK    1  A    between atoms: C_2  and  C_3
REMARK    2  A    between atoms: C_5  and  O_6
REMARK    3  A    between atoms: O_6  and  C_7
REMARK    4  A    between atoms: N_20  and  C_21
REMARK                            x       y       z     vdW  Elec       q    Type
REMARK                         _______ _______ _______ _____ _____    ______ ____
ROOT
ATOM      1  C   UNL     1       1.276   8.375  19.618  0.00  0.00    +0.000 C 
ATOM      2  C   UNL     1       2.459   7.450  19.846  0.00  0.00    +0.000 C 
ATOM      3  C   UNL     1       2.858   7.083  18.429  0.00  0.00    +0.000 C 
ATOM      4  C   UNL     1       2.635   8.410  17.683  0.00  0.00    +0.000 C 
ATOM      5  N   UNL     1       1.752   9.245  18.521  0.00  0.00    +0.000 NA
ATOM      6  H   UNL     1       0.968   9.597  17.978  0.00  0.00    +0.000 HD
ENDROOT
BRANCH   1   8
ATOM      7  O   UNL     1       1.509   8.928  21.952  0.00  0.00    +0.000 OA
ATOM      8  C   UNL     1       0.941   9.179  20.886  0.00  0.00    +0.000 C 
ATOM      9  N   UNL     1      -0.037  10.174  20.789  0.00  0.00    +0.000 N 
ATOM     10  C   UNL     1      -0.263  11.013  21.960  0.00  0.00    +0.000 C 
ATOM     11  C   UNL     1      -0.128  12.514  21.734  0.00  0.00    +0.000 C 
ATOM     12  C   UNL     1      -0.586  13.134  20.413  0.00  0.00    +0.000 C 
ATOM     13  N   UNL     1      -1.728  12.584  19.682  0.00  0.00    +0.000 NA
ATOM     14  C   UNL     1      -1.391  11.334  18.992  0.00  0.00    +0.000 C 
ATOM     15  C   UNL     1      -1.154  10.084  19.844  0.00  0.00    +0.000 C 
BRANCH  13  16
ATOM     16  C   UNL     1      -2.960  12.522  20.474  0.00  0.00    +0.000 C 
ATOM     17  C   UNL     1      -3.439  13.964  20.793  0.00  0.00    +0.000 C 
ATOM     18  C   UNL     1      -4.856  13.518  20.390  0.00  0.00    +0.000 C 
ATOM     19  C   UNL     1      -4.198  12.412  19.544  0.00  0.00    +0.000 C 
ENDBRANCH  13  16
ENDBRANCH   1   8
BRANCH   3  20
ATOM     20  O   UNL     1       1.964   6.112  17.862  0.00  0.00    +0.000 OA
BRANCH  20  21
ATOM     21  C   UNL     1       2.296   4.792  17.985  0.00  0.00    +0.000 A 
ATOM     22  C   UNL     1       1.407   3.749  18.255  0.00  0.00    +0.000 A 
ATOM     23  C   UNL     1       1.862   2.430  18.300  0.00  0.00    +0.000 A 
ATOM     24  C   UNL     1       3.209   2.162  18.102  0.00  0.00    +0.000 A 
ATOM     25  F   UNL     1       3.645   0.897  18.161  0.00  0.00    +0.000 F 
ATOM     26  C   UNL     1       4.110   3.187  17.845  0.00  0.00    +0.000 A 
ATOM     27  C   UNL     1       3.648   4.503  17.773  0.00  0.00    +0.000 A 
ENDBRANCH  20  21
ENDBRANCH   3  20
TORSDOF 4
ENDMDL
MODEL 5
REMARK VINA RESULT:      -6.5      3.744      5.149
REMARK  Name = 
REMARK  4 active torsions:
REMARK  status: ('A' for Active; 'I' for Inactive)
REMARK    1  A    between atoms: C_2  and  C_3
REMARK    2  A    between atoms: C_5  and  O_6
REMARK    3  A    between atoms: O_6  and  C_7
REMARK    4  A    between atoms: N_20  and  C_21
REMARK                            x       y       z     vdW  Elec       q    Type
REMARK                         _______ _______ _______ _____ _____    ______ ____
ROOT
ATOM      1  C   UNL     1       1.553   9.396  18.746  0.00  0.00    +0.000 C 
ATOM      2  C   UNL     1       1.295   8.225  17.812  0.00  0.00    +0.000 C 
ATOM      3  C   UNL     1       2.222   7.161  18.369  0.00  0.00    +0.000 C 
ATOM      4  C   UNL     1       2.104   7.398  19.885  0.00  0.00    +0.000 C 
ATOM      5  N   UNL     1       1.553   8.753  20.078  0.00  0.00    +0.000 NA
ATOM      6  H   UNL     1       2.124   9.285  20.730  0.00  0.00    +0.000 HD
ENDROOT
BRANCH   1   8
ATOM      7  O   UNL     1      -0.728  10.129  18.485  0.00  0.00    +0.000 OA
ATOM      8  C   UNL     1       0.452  10.463  18.622  0.00  0.00    +0.000 C 
ATOM      9  N   UNL     1       0.839  11.807  18.645  0.00  0.00    +0.000 N 
ATOM     10  C   UNL     1      -0.218  12.813  18.652  0.00  0.00    +0.000 C 
ATOM     11  C   UNL     1      -0.174  13.809  19.803  0.00  0.00    +0.000 C 
ATOM     12  C   UNL     1       1.171  14.300  20.342  0.00  0.00    +0.000 C 
ATOM     13  N   UNL     1       2.321  14.461  19.453  0.00  0.00    +0.000 NA
ATOM     14  C   UNL     1       2.923  13.173  19.092  0.00  0.00    +0.000 C 
ATOM     15  C   UNL     1       2.142  12.255  18.147  0.00  0.00    +0.000 C 
BRANCH  13  16
ATOM     16  C   UNL     1       2.067  15.348  18.314  0.00  0.00    +0.000 C 
ATOM     17  C   UNL     1       2.196  16.825  18.774  0.00  0.00    +0.000 C 
ATOM     18  C   UNL     1       3.037  17.082  17.509  0.00  0.00    +0.000 C 
ATOM     19  C   UNL     1       3.371  15.579  17.504  0.00  0.00    +0.000 C 
ENDBRANCH  13  16
ENDBRANCH   1   8
BRANCH   3  20
ATOM     20  O   UNL     1       3.588   7.404  17.998  0.00  0.00    +0.000 OA
BRANCH  20  21
ATOM     21  C   UNL     1       4.224   6.451  17.251  0.00  0.00    +0.000 A 
ATOM     22  C   UNL     1       5.112   6.696  16.202  0.00  0.00    +0.000 A 
ATOM     23  C   UNL     1       5.743   5.635  15.550  0.00  0.00    +0.000 A 
ATOM     24  C   UNL     1       5.463   4.331  15.933  0.00  0.00    +0.000 A 
ATOM     25  F   UNL     1       6.059   3.315  15.297  0.00  0.00    +0.000 F 
ATOM     26  C   UNL     1       4.574   4.067  16.966  0.00  0.00    +0.000 A 
ATOM     27  C   UNL     1       3.964   5.132  17.635  0.00  0.00    +0.000 A 
ENDBRANCH  20  21
ENDBRANCH   3  20
TORSDOF 4
ENDMDL
MODEL 6
REMARK VINA RESULT:      -6.3      3.587      5.151
REMARK  Name = 
REMARK  4 active torsions:
REMARK  status: ('A' for Active; 'I' for Inactive)
REMARK    1  A    between atoms: C_2  and  C_3
REMARK    2  A    between atoms: C_5  and  O_6
REMARK    3  A    between atoms: O_6  and  C_7
REMARK    4  A    between atoms: N_20  and  C_21
REMARK                            x       y       z     vdW  Elec       q    Type
REMARK                         _______ _______ _______ _____ _____    ______ ____
ROOT
ATOM      1  C   UNL     1       1.560   9.375  18.581  0.00  0.00    +0.000 C 
ATOM      2  C   UNL     1       1.499   8.226  17.590  0.00  0.00    +0.000 C 
ATOM      3  C   UNL     1       2.482   7.236  18.185  0.00  0.00    +0.000 C 
ATOM      4  C   UNL     1       2.220   7.395  19.693  0.00  0.00    +0.000 C 
ATOM      5  N   UNL     1       1.520   8.679  19.886  0.00  0.00    +0.000 NA
ATOM      6  H   UNL     1       1.980   9.236  20.602  0.00  0.00    +0.000 HD
ENDROOT
BRANCH   1   8
ATOM      7  O   UNL     1      -0.716   9.909  17.997  0.00  0.00    +0.000 OA
ATOM      8  C   UNL     1       0.369  10.332  18.403  0.00  0.00    +0.000 C 
ATOM      9  N   UNL     1       0.571  11.686  18.692  0.00  0.00    +0.000 N 
ATOM     10  C   UNL     1      -0.592  12.566  18.639  0.00  0.00    +0.000 C 
ATOM     11  C   UNL     1      -0.877  13.360  19.908  0.00  0.00    +0.000 C 
ATOM     12  C   UNL     1       0.279  13.888  20.758  0.00  0.00    +0.000 C 
ATOM     13  N   UNL     1       1.536  14.307  20.138  0.00  0.00    +0.000 NA
ATOM     14  C   UNL     1       2.352  13.162  19.719  0.00  0.00    +0.000 C 
ATOM     15  C   UNL     1       1.872  12.338  18.521  0.00  0.00    +0.000 C 
BRANCH  13  16
ATOM     16  C   UNL     1       1.372  15.338  19.110  0.00  0.00    +0.000 C 
ATOM     17  C   UNL     1       0.959  16.674  19.784  0.00  0.00    +0.000 C 
ATOM     18  C   UNL     1       2.010  17.374  18.903  0.00  0.00    +0.000 C 
ATOM     19  C   UNL     1       2.733  16.018  18.800  0.00  0.00    +0.000 C 
ENDBRANCH  13  16
ENDBRANCH   1   8
BRANCH   3  20
ATOM     20  O   UNL     1       3.842   7.628  17.938  0.00  0.00    +0.000 OA
BRANCH  20  21
ATOM     21  C   UNL     1       4.696   6.685  17.438  0.00  0.00    +0.000 A 
ATOM     22  C   UNL     1       4.334   5.411  16.992  0.00  0.00    +0.000 A 
ATOM     23  C   UNL     1       5.294   4.557  16.449  0.00  0.00    +0.000 A 
ATOM     24  C   UNL     1       6.617   4.968  16.377  0.00  0.00    +0.000 A 
ATOM     25  F   UNL     1       7.539   4.140  15.868  0.00  0.00    +0.000 F 
ATOM     26  C   UNL     1       6.998   6.225  16.826  0.00  0.00    +0.000 A 
ATOM     27  C   UNL     1       6.031   7.090  17.345  0.00  0.00    +0.000 A 
ENDBRANCH  20  21
ENDBRANCH   3  20
TORSDOF 4
ENDMDL
MODEL 7
REMARK VINA RESULT:      -6.3      7.990     11.064
REMARK  Name = 
REMARK  4 active torsions:
REMARK  status: ('A' for Active; 'I' for Inactive)
REMARK    1  A    between atoms: C_2  and  C_3
REMARK    2  A    between atoms: C_5  and  O_6
REMARK    3  A    between atoms: O_6  and  C_7
REMARK    4  A    between atoms: N_20  and  C_21
REMARK                            x       y       z     vdW  Elec       q    Type
REMARK                         _______ _______ _______ _____ _____    ______ ____
ROOT
ATOM      1  C   UNL     1      -2.278  11.369  17.477  0.00  0.00    +0.000 C 
ATOM      2  C   UNL     1      -3.325  10.331  17.844  0.00  0.00    +0.000 C 
ATOM      3  C   UNL     1      -4.468  10.684  16.910  0.00  0.00    +0.000 C 
ATOM      4  C   UNL     1      -3.718  11.075  15.624  0.00  0.00    +0.000 C 
ATOM      5  N   UNL     1      -2.320  11.362  15.998  0.00  0.00    +0.000 NA
ATOM      6  H   UNL     1      -2.026  12.263  15.629  0.00  0.00    +0.000 HD
ENDROOT
BRANCH   1   8
ATOM      7  O   UNL     1      -0.474   9.824  17.887  0.00  0.00    +0.000 OA
ATOM      8  C   UNL     1      -0.891  10.979  18.015  0.00  0.00    +0.000 C 
ATOM      9  N   UNL     1      -0.142  11.964  18.667  0.00  0.00    +0.000 N 
ATOM     10  C   UNL     1       1.219  11.623  19.065  0.00  0.00    +0.000 C 
ATOM     11  C   UNL     1       2.312  12.544  18.538  0.00  0.00    +0.000 C 
ATOM     12  C   UNL     1       2.049  14.045  18.402  0.00  0.00    +0.000 C 
ATOM     13  N   UNL     1       1.171  14.741  19.341  0.00  0.00    +0.000 NA
ATOM     14  C   UNL     1      -0.246  14.458  19.085  0.00  0.00    +0.000 C 
ATOM     15  C   UNL     1      -0.769  13.058  19.414  0.00  0.00    +0.000 C 
BRANCH  13  16
ATOM     16  C   UNL     1       1.571  14.592  20.744  0.00  0.00    +0.000 C 
ATOM     17  C   UNL     1       2.894  15.367  20.986  0.00  0.00    +0.000 C 
ATOM     18  C   UNL     1       2.255  15.937  22.266  0.00  0.00    +0.000 C 
ATOM     19  C   UNL     1       0.882  15.671  21.622  0.00  0.00    +0.000 C 
ENDBRANCH  13  16
ENDBRANCH   1   8
BRANCH   3  20
ATOM     20  O   UNL     1      -5.182  11.844  17.365  0.00  0.00    +0.000 OA
BRANCH  20  21
ATOM     21  C   UNL     1      -5.739  11.800  18.612  0.00  0.00    +0.000 A 
ATOM     22  C   UNL     1      -5.372  12.599  19.697  0.00  0.00    +0.000 A 
ATOM     23  C   UNL     1      -6.058  12.499  20.909  0.00  0.00    +0.000 A 
ATOM     24  C   UNL     1      -7.091  11.582  21.039  0.00  0.00    +0.000 A 
ATOM     25  F   UNL     1      -7.737  11.478  22.208  0.00  0.00    +0.000 F 
ATOM     26  C   UNL     1      -7.462  10.771  19.975  0.00  0.00    +0.000 A 
ATOM     27  C   UNL     1      -6.793  10.891  18.755  0.00  0.00    +0.000 A 
ENDBRANCH  20  21
ENDBRANCH   3  20
TORSDOF 4
ENDMDL
MODEL 8
REMARK VINA RESULT:      -6.2      8.875     11.213
REMARK  Name = 
REMARK  4 active torsions:
REMARK  status: ('A' for Active; 'I' for Inactive)
REMARK    1  A    between atoms: C_2  and  C_3
REMARK    2  A    between atoms: C_5  and  O_6
REMARK    3  A    between atoms: O_6  and  C_7
REMARK    4  A    between atoms: N_20  and  C_21
REMARK                            x       y       z     vdW  Elec       q    Type
REMARK                         _______ _______ _______ _____ _____    ______ ____
ROOT
ATOM      1  C   UNL     1      -2.166  11.822  18.239  0.00  0.00    +0.000 C 
ATOM      2  C   UNL     1      -2.967  10.536  18.341  0.00  0.00    +0.000 C 
ATOM      3  C   UNL     1      -3.797  10.573  17.072  0.00  0.00    +0.000 C 
ATOM      4  C   UNL     1      -2.802  11.164  16.058  0.00  0.00    +0.000 C 
ATOM      5  N   UNL     1      -1.725  11.818  16.827  0.00  0.00    +0.000 NA
ATOM      6  H   UNL     1      -1.573  12.768  16.498  0.00  0.00    +0.000 HD
ENDROOT
BRANCH   1   8
ATOM      7  O   UNL     1       0.018  11.126  18.982  0.00  0.00    +0.000 OA
ATOM      8  C   UNL     1      -0.976  11.820  19.214  0.00  0.00    +0.000 C 
ATOM      9  N   UNL     1      -1.074  12.604  20.368  0.00  0.00    +0.000 N 
ATOM     10  C   UNL     1       0.104  12.694  21.224  0.00  0.00    +0.000 C 
ATOM     11  C   UNL     1       0.609  14.103  21.507  0.00  0.00    +0.000 C 
ATOM     12  C   UNL     1      -0.385  15.254  21.674  0.00  0.00    +0.000 C 
ATOM     13  N   UNL     1      -1.701  15.029  22.270  0.00  0.00    +0.000 NA
ATOM     14  C   UNL     1      -2.618  14.356  21.344  0.00  0.00    +0.000 C 
ATOM     15  C   UNL     1      -2.358  12.883  21.017  0.00  0.00    +0.000 C 
BRANCH  13  16
ATOM     16  C   UNL     1      -1.648  14.429  23.607  0.00  0.00    +0.000 C 
ATOM     17  C   UNL     1      -1.152  15.490  24.626  0.00  0.00    +0.000 C 
ATOM     18  C   UNL     1      -2.292  15.040  25.558  0.00  0.00    +0.000 C 
ATOM     19  C   UNL     1      -3.031  14.536  24.304  0.00  0.00    +0.000 C 
ENDBRANCH  13  16
ENDBRANCH   1   8
BRANCH   3  20
ATOM     20  O   UNL     1      -4.896  11.490  17.186  0.00  0.00    +0.000 OA
BRANCH  20  21
ATOM     21  C   UNL     1      -5.690  11.399  18.295  0.00  0.00    +0.000 A 
ATOM     22  C   UNL     1      -6.462  10.293  18.656  0.00  0.00    +0.000 A 
ATOM     23  C   UNL     1      -7.190  10.301  19.847  0.00  0.00    +0.000 A 
ATOM     24  C   UNL     1      -7.164  11.425  20.659  0.00  0.00    +0.000 A 
ATOM     25  F   UNL     1      -7.875  11.435  21.794  0.00  0.00    +0.000 F 
ATOM     26  C   UNL     1      -6.411  12.539  20.312  0.00  0.00    +0.000 A 
ATOM     27  C   UNL     1      -5.662  12.519  19.132  0.00  0.00    +0.000 A 
ENDBRANCH  20  21
ENDBRANCH   3  20
TORSDOF 4
ENDMDL
MODEL 9
REMARK VINA RESULT:      -6.2      8.117     11.218
REMARK  Name = 
REMARK  4 active torsions:
REMARK  status: ('A' for Active; 'I' for Inactive)
REMARK    1  A    between atoms: C_2  and  C_3
REMARK    2  A    between atoms: C_5  and  O_6
REMARK    3  A    between atoms: O_6  and  C_7
REMARK    4  A    between atoms: N_20  and  C_21
REMARK                            x       y       z     vdW  Elec       q    Type
REMARK                         _______ _______ _______ _____ _____    ______ ____
ROOT
ATOM      1  C   UNL     1       4.829  15.321  18.874  0.00  0.00    +0.000 C 
ATOM      2  C   UNL     1       3.507  15.899  18.399  0.00  0.00    +0.000 C 
ATOM      3  C   UNL     1       2.502  14.923  18.983  0.00  0.00    +0.000 C 
ATOM      4  C   UNL     1       3.128  14.604  20.352  0.00  0.00    +0.000 C 
ATOM      5  N   UNL     1       4.550  14.994  20.289  0.00  0.00    +0.000 NA
ATOM      6  H   UNL     1       5.146  14.233  20.604  0.00  0.00    +0.000 HD
ENDROOT
BRANCH   1   8
ATOM      7  O   UNL     1       5.725  17.553  18.727  0.00  0.00    +0.000 OA
ATOM      8  C   UNL     1       5.969  16.344  18.734  0.00  0.00    +0.000 C 
ATOM      9  N   UNL     1       7.272  15.854  18.593  0.00  0.00    +0.000 N 
ATOM     10  C   UNL     1       8.360  16.826  18.585  0.00  0.00    +0.000 C 
ATOM     11  C   UNL     1       9.451  16.606  19.624  0.00  0.00    +0.000 C 
ATOM     12  C   UNL     1       9.874  15.185  20.002  0.00  0.00    +0.000 C 
ATOM     13  N   UNL     1       9.854  14.108  19.012  0.00  0.00    +0.000 NA
ATOM     14  C   UNL     1       8.492  13.641  18.733  0.00  0.00    +0.000 C 
ATOM     15  C   UNL     1       7.560  14.569  17.950  0.00  0.00    +0.000 C 
BRANCH  13  16
ATOM     16  C   UNL     1      10.651  14.394  17.815  0.00  0.00    +0.000 C 
ATOM     17  C   UNL     1      12.159  14.278  18.162  0.00  0.00    +0.000 C 
ATOM     18  C   UNL     1      12.333  13.462  16.867  0.00  0.00    +0.000 C 
ATOM     19  C   UNL     1      10.838  13.106  16.968  0.00  0.00    +0.000 C 
ENDBRANCH  13  16
ENDBRANCH   1   8
BRANCH   3  20
ATOM     20  O   UNL     1       2.455  13.700  18.232  0.00  0.00    +0.000 OA
BRANCH  20  21
ATOM     21  C   UNL     1       1.377  12.880  18.417  0.00  0.00    +0.000 A 
ATOM     22  C   UNL     1       0.040  13.282  18.427  0.00  0.00    +0.000 A 
ATOM     23  C   UNL     1      -0.978  12.337  18.569  0.00  0.00    +0.000 A 
ATOM     24  C   UNL     1      -0.654  10.998  18.728  0.00  0.00    +0.000 A 
ATOM     25  F   UNL     1      -1.632  10.096  18.878  0.00  0.00    +0.000 F 
ATOM     26  C   UNL     1       0.670  10.581  18.732  0.00  0.00    +0.000 A 
ATOM     27  C   UNL     1       1.687  11.524  18.563  0.00  0.00    +0.000 A 
ENDBRANCH  20  21
ENDBRANCH   3  20
TORSDOF 4
ENDMDL
