MODEL 1
REMARK VINA RESULT:      -8.2      0.000      0.000
REMARK  Name = 
REMARK  4 active torsions:
REMARK  status: ('A' for Active; 'I' for Inactive)
REMARK    1  A    between atoms: N_3  and  C_4
REMARK    2  A    between atoms: C_9  and  C_10
REMARK    3  A    between atoms: N_21  and  C_22
REMARK    4  A    between atoms: C_24  and  C_25
REMARK                            x       y       z     vdW  Elec       q    Type
REMARK                         _______ _______ _______ _____ _____    ______ ____
ROOT
ATOM      1  O   UNL     1      -2.625  14.308  20.592  0.00  0.00    +0.000 OA
ATOM      2  C   UNL     1      -2.363  13.312  21.257  0.00  0.00    +0.000 C 
ATOM      3  N   UNL     1      -3.308  12.506  21.880  0.00  0.00    +0.000 N 
ATOM      4  N   UNL     1      -1.046  12.926  21.544  0.00  0.00    +0.000 N 
ATOM      5  C   UNL     1       0.063  13.780  21.062  0.00  0.00    +0.000 C 
ATOM      6  C   UNL     1       0.721  13.235  19.766  0.00  0.00    +0.000 C 
ATOM      7  N   UNL     1       0.967  11.800  19.880  0.00  0.00    +0.000 N 
ATOM      8  C   UNL     1       1.681  10.992  18.975  0.00  0.00    +0.000 C 
ATOM      9  O   UNL     1       2.313  11.396  18.015  0.00  0.00    +0.000 OA
ATOM     10  N   UNL     1       1.464   9.677  19.373  0.00  0.00    +0.000 N 
ATOM     11  C   UNL     1       0.578   9.661  20.435  0.00  0.00    +0.000 C 
ATOM     12  O   UNL     1       0.225   8.708  21.114  0.00  0.00    +0.000 OA
ATOM     13  C   UNL     1      -0.090  11.001  20.442  0.00  0.00    +0.000 C 
ATOM     14  C   UNL     1      -0.656  11.517  21.747  0.00  0.00    +0.000 C 
ATOM     15  H   UNL     1      -2.993  12.352  22.829  0.00  0.00    +0.000 HD
ENDROOT
BRANCH   3  16
ATOM     16  C   UNL     1      -4.687  12.861  21.812  0.00  0.00    +0.000 A 
ATOM     17  C   UNL     1      -5.449  12.229  20.815  0.00  0.00    +0.000 A 
ATOM     18  C   UNL     1      -6.803  12.515  20.661  0.00  0.00    +0.000 A 
ATOM     19  C   UNL     1      -7.405  13.463  21.484  0.00  0.00    +0.000 A 
ATOM     20  C   UNL     1      -6.653  14.120  22.461  0.00  0.00    +0.000 A 
ATOM     21  C   UNL     1      -5.283  13.837  22.647  0.00  0.00    +0.000 A 
BRANCH  21  22
ATOM     22  C   UNL     1      -4.518  14.627  23.629  0.00  0.00    +0.000 A 
ATOM     23  C   UNL     1      -3.591  14.146  24.615  0.00  0.00    +0.000 A 
ATOM     24  C   UNL     1      -3.052  15.149  25.389  0.00  0.00    +0.000 A 
ATOM     25  S   UNL     1      -3.590  16.690  24.896  0.00  0.00    +0.000 S 
ATOM     26  C   UNL     1      -4.575  16.010  23.671  0.00  0.00    +0.000 A 
ENDBRANCH  21  22
ENDBRANCH   3  16
BRANCH  10  27
ATOM     27  C   UNL     1       1.556   8.513  18.544  0.00  0.00    +0.000 C 
ATOM     28  C   UNL     1       2.541   8.173  17.478  0.00  0.00    +0.000 C 
ATOM     29  C   UNL     1       2.634   7.471  18.808  0.00  0.00    +0.000 C 
BRANCH  29  30
ATOM     30  C   UNL     1       2.118   6.083  19.129  0.00  0.00    +0.000 A 
ATOM     31  C   UNL     1       1.771   5.653  20.417  0.00  0.00    +0.000 A 
ATOM     32  C   UNL     1       1.325   4.346  20.652  0.00  0.00    +0.000 A 
ATOM     33  C   UNL     1       1.214   3.438  19.601  0.00  0.00    +0.000 A 
ATOM     34  C   UNL     1       1.542   3.839  18.313  0.00  0.00    +0.000 A 
ATOM     35  C   UNL     1       1.982   5.145  18.086  0.00  0.00    +0.000 A 
ENDBRANCH  29  30
ENDBRANCH  10  27
TORSDOF 4
ENDMDL
MODEL 2
REMARK VINA RESULT:      -8.1      1.925      3.067
REMARK  Name = 
REMARK  4 active torsions:
REMARK  status: ('A' for Active; 'I' for Inactive)
REMARK    1  A    between atoms: N_3  and  C_4
REMARK    2  A    between atoms: C_9  and  C_10
REMARK    3  A    between atoms: N_21  and  C_22
REMARK    4  A    between atoms: C_24  and  C_25
REMARK                            x       y       z     vdW  Elec       q    Type
REMARK                         _______ _______ _______ _____ _____    ______ ____
ROOT
ATOM      1  O   UNL     1      -3.035  14.470  21.516  0.00  0.00    +0.000 OA
ATOM      2  C   UNL     1      -2.868  13.369  22.030  0.00  0.00    +0.000 C 
ATOM      3  N   UNL     1      -3.893  12.519  22.429  0.00  0.00    +0.000 N 
ATOM      4  N   UNL     1      -1.597  12.882  22.363  0.00  0.00    +0.000 N 
ATOM      5  C   UNL     1      -0.421  13.750  22.125  0.00  0.00    +0.000 C 
ATOM      6  C   UNL     1       0.337  13.388  20.820  0.00  0.00    +0.000 C 
ATOM      7  N   UNL     1       0.526  11.945  20.719  0.00  0.00    +0.000 N 
ATOM      8  C   UNL     1       1.296  11.259  19.760  0.00  0.00    +0.000 C 
ATOM      9  O   UNL     1       2.026  11.781  18.937  0.00  0.00    +0.000 OA
ATOM     10  N   UNL     1       1.001   9.909  19.918  0.00  0.00    +0.000 N 
ATOM     11  C   UNL     1       0.019   9.764  20.882  0.00  0.00    +0.000 C 
ATOM     12  O   UNL     1      -0.425   8.732  21.363  0.00  0.00    +0.000 OA
ATOM     13  C   UNL     1      -0.603  11.116  21.050  0.00  0.00    +0.000 C 
ATOM     14  C   UNL     1      -1.272  11.442  22.367  0.00  0.00    +0.000 C 
ATOM     15  H   UNL     1      -3.672  12.201  23.363  0.00  0.00    +0.000 HD
ENDROOT
BRANCH   3  16
ATOM     16  C   UNL     1      -5.247  12.944  22.300  0.00  0.00    +0.000 A 
ATOM     17  C   UNL     1      -5.828  13.537  23.433  0.00  0.00    +0.000 A 
ATOM     18  C   UNL     1      -7.150  13.977  23.412  0.00  0.00    +0.000 A 
ATOM     19  C   UNL     1      -7.917  13.798  22.264  0.00  0.00    +0.000 A 
ATOM     20  C   UNL     1      -7.360  13.184  21.139  0.00  0.00    +0.000 A 
ATOM     21  C   UNL     1      -6.020  12.743  21.131  0.00  0.00    +0.000 A 
BRANCH  21  22
ATOM     22  C   UNL     1      -5.514  12.019  19.950  0.00  0.00    +0.000 A 
ATOM     23  C   UNL     1      -6.146  10.940  19.242  0.00  0.00    +0.000 A 
ATOM     24  C   UNL     1      -5.399  10.476  18.183  0.00  0.00    +0.000 A 
ATOM     25  S   UNL     1      -3.966  11.374  17.973  0.00  0.00    +0.000 S 
ATOM     26  C   UNL     1      -4.327  12.362  19.325  0.00  0.00    +0.000 A 
ENDBRANCH  21  22
ENDBRANCH   3  16
BRANCH  10  27
ATOM     27  C   UNL     1       1.133   8.889  18.921  0.00  0.00    +0.000 C 
ATOM     28  C   UNL     1       1.994   8.846  17.704  0.00  0.00    +0.000 C 
ATOM     29  C   UNL     1       2.370   8.002  18.895  0.00  0.00    +0.000 C 
BRANCH  29  30
ATOM     30  C   UNL     1       2.101   6.522  19.068  0.00  0.00    +0.000 A 
ATOM     31  C   UNL     1       2.114   5.594  18.017  0.00  0.00    +0.000 A 
ATOM     32  C   UNL     1       1.829   4.240  18.239  0.00  0.00    +0.000 A 
ATOM     33  C   UNL     1       1.525   3.783  19.519  0.00  0.00    +0.000 A 
ATOM     34  C   UNL     1       1.514   4.678  20.580  0.00  0.00    +0.000 A 
ATOM     35  C   UNL     1       1.803   6.024  20.353  0.00  0.00    +0.000 A 
ENDBRANCH  29  30
ENDBRANCH  10  27
TORSDOF 4
ENDMDL
MODEL 3
REMARK VINA RESULT:      -8.0      2.007      2.923
REMARK  Name = 
REMARK  4 active torsions:
REMARK  status: ('A' for Active; 'I' for Inactive)
REMARK    1  A    between atoms: N_3  and  C_4
REMARK    2  A    between atoms: C_9  and  C_10
REMARK    3  A    between atoms: N_21  and  C_22
REMARK    4  A    between atoms: C_24  and  C_25
REMARK                            x       y       z     vdW  Elec       q    Type
REMARK                         _______ _______ _______ _____ _____    ______ ____
ROOT
ATOM      1  O   UNL     1      -3.046  14.826  21.720  0.00  0.00    +0.000 OA
ATOM      2  C   UNL     1      -2.882  13.729  22.242  0.00  0.00    +0.000 C 
ATOM      3  N   UNL     1      -3.908  12.898  22.675  0.00  0.00    +0.000 N 
ATOM      4  N   UNL     1      -1.609  13.228  22.550  0.00  0.00    +0.000 N 
ATOM      5  C   UNL     1      -0.428  14.076  22.274  0.00  0.00    +0.000 C 
ATOM      6  C   UNL     1       0.293  13.690  20.954  0.00  0.00    +0.000 C 
ATOM      7  N   UNL     1       0.459  12.242  20.866  0.00  0.00    +0.000 N 
ATOM      8  C   UNL     1       1.196  11.535  19.896  0.00  0.00    +0.000 C 
ATOM      9  O   UNL     1       1.913  12.038  19.050  0.00  0.00    +0.000 OA
ATOM     10  N   UNL     1       0.886  10.191  20.077  0.00  0.00    +0.000 N 
ATOM     11  C   UNL     1      -0.073  10.071  21.066  0.00  0.00    +0.000 C 
ATOM     12  O   UNL     1      -0.520   9.051  21.569  0.00  0.00    +0.000 OA
ATOM     13  C   UNL     1      -0.673  11.433  21.233  0.00  0.00    +0.000 C 
ATOM     14  C   UNL     1      -1.305  11.783  22.562  0.00  0.00    +0.000 C 
ATOM     15  H   UNL     1      -3.669  12.587  23.608  0.00  0.00    +0.000 HD
ENDROOT
BRANCH   3  16
ATOM     16  C   UNL     1      -5.259  13.340  22.575  0.00  0.00    +0.000 A 
ATOM     17  C   UNL     1      -5.801  13.964  23.711  0.00  0.00    +0.000 A 
ATOM     18  C   UNL     1      -7.116  14.423  23.716  0.00  0.00    +0.000 A 
ATOM     19  C   UNL     1      -7.916  14.234  22.593  0.00  0.00    +0.000 A 
ATOM     20  C   UNL     1      -7.399  13.589  21.467  0.00  0.00    +0.000 A 
ATOM     21  C   UNL     1      -6.066  13.129  21.431  0.00  0.00    +0.000 A 
BRANCH  21  22
ATOM     22  C   UNL     1      -5.603  12.374  20.251  0.00  0.00    +0.000 A 
ATOM     23  C   UNL     1      -4.330  12.466  19.592  0.00  0.00    +0.000 A 
ATOM     24  C   UNL     1      -4.220  11.627  18.506  0.00  0.00    +0.000 A 
ATOM     25  S   UNL     1      -5.610  10.661  18.305  0.00  0.00    +0.000 S 
ATOM     26  C   UNL     1      -6.376  11.395  19.651  0.00  0.00    +0.000 A 
ENDBRANCH  21  22
ENDBRANCH   3  16
BRANCH  10  27
ATOM     27  C   UNL     1       0.980   9.159  19.088  0.00  0.00    +0.000 C 
ATOM     28  C   UNL     1       1.741   9.127  17.807  0.00  0.00    +0.000 C 
ATOM     29  C   UNL     1       2.248   8.323  18.976  0.00  0.00    +0.000 C 
BRANCH  29  30
ATOM     30  C   UNL     1       2.055   6.836  19.194  0.00  0.00    +0.000 A 
ATOM     31  C   UNL     1       1.661   6.266  20.413  0.00  0.00    +0.000 A 
ATOM     32  C   UNL     1       1.528   4.878  20.556  0.00  0.00    +0.000 A 
ATOM     33  C   UNL     1       1.783   4.029  19.483  0.00  0.00    +0.000 A 
ATOM     34  C   UNL     1       2.166   4.567  18.261  0.00  0.00    +0.000 A 
ATOM     35  C   UNL     1       2.293   5.950  18.124  0.00  0.00    +0.000 A 
ENDBRANCH  29  30
ENDBRANCH  10  27
TORSDOF 4
ENDMDL
MODEL 4
REMARK VINA RESULT:      -7.9      2.298      3.392
REMARK  Name = 
REMARK  4 active torsions:
REMARK  status: ('A' for Active; 'I' for Inactive)
REMARK    1  A    between atoms: N_3  and  C_4
REMARK    2  A    between atoms: C_9  and  C_10
REMARK    3  A    between atoms: N_21  and  C_22
REMARK    4  A    between atoms: C_24  and  C_25
REMARK                            x       y       z     vdW  Elec       q    Type
REMARK                         _______ _______ _______ _____ _____    ______ ____
ROOT
ATOM      1  O   UNL     1      -2.706  13.953  19.698  0.00  0.00    +0.000 OA
ATOM      2  C   UNL     1      -2.491  13.001  20.439  0.00  0.00    +0.000 C 
ATOM      3  N   UNL     1      -3.477  12.195  20.997  0.00  0.00    +0.000 N 
ATOM      4  N   UNL     1      -1.204  12.674  20.887  0.00  0.00    +0.000 N 
ATOM      5  C   UNL     1      -0.073  13.540  20.485  0.00  0.00    +0.000 C 
ATOM      6  C   UNL     1       0.739  12.953  19.299  0.00  0.00    +0.000 C 
ATOM      7  N   UNL     1       1.011  11.536  19.514  0.00  0.00    +0.000 N 
ATOM      8  C   UNL     1       1.843  10.708  18.737  0.00  0.00    +0.000 C 
ATOM      9  O   UNL     1       2.566  11.085  17.831  0.00  0.00    +0.000 OA
ATOM     10  N   UNL     1       1.620   9.408  19.178  0.00  0.00    +0.000 N 
ATOM     11  C   UNL     1       0.623   9.415  20.136  0.00  0.00    +0.000 C 
ATOM     12  O   UNL     1       0.225   8.485  20.822  0.00  0.00    +0.000 OA
ATOM     13  C   UNL     1      -0.078  10.730  20.000  0.00  0.00    +0.000 C 
ATOM     14  C   UNL     1      -0.799  11.290  21.206  0.00  0.00    +0.000 C 
ATOM     15  H   UNL     1      -3.264  12.099  21.981  0.00  0.00    +0.000 HD
ENDROOT
BRANCH   3  16
ATOM     16  C   UNL     1      -4.849  12.500  20.761  0.00  0.00    +0.000 A 
ATOM     17  C   UNL     1      -5.568  13.034  21.843  0.00  0.00    +0.000 A 
ATOM     18  C   UNL     1      -6.917  13.355  21.716  0.00  0.00    +0.000 A 
ATOM     19  C   UNL     1      -7.572  13.116  20.512  0.00  0.00    +0.000 A 
ATOM     20  C   UNL     1      -6.876  12.559  19.436  0.00  0.00    +0.000 A 
ATOM     21  C   UNL     1      -5.506  12.238  19.534  0.00  0.00    +0.000 A 
BRANCH  21  22
ATOM     22  C   UNL     1      -4.847  11.568  18.398  0.00  0.00    +0.000 A 
ATOM     23  C   UNL     1      -4.069  10.361  18.420  0.00  0.00    +0.000 A 
ATOM     24  C   UNL     1      -3.581  10.007  17.182  0.00  0.00    +0.000 A 
ATOM     25  S   UNL     1      -4.112  11.073  15.962  0.00  0.00    +0.000 S 
ATOM     26  C   UNL     1      -4.964  12.031  17.098  0.00  0.00    +0.000 A 
ENDBRANCH  21  22
ENDBRANCH   3  16
BRANCH  10  27
ATOM     27  C   UNL     1       1.836   8.208  18.426  0.00  0.00    +0.000 C 
ATOM     28  C   UNL     1       2.997   7.803  17.583  0.00  0.00    +0.000 C 
ATOM     29  C   UNL     1       2.813   7.155  18.932  0.00  0.00    +0.000 C 
BRANCH  29  30
ATOM     30  C   UNL     1       2.205   5.794  19.199  0.00  0.00    +0.000 A 
ATOM     31  C   UNL     1       1.813   5.344  20.468  0.00  0.00    +0.000 A 
ATOM     32  C   UNL     1       1.281   4.061  20.652  0.00  0.00    +0.000 A 
ATOM     33  C   UNL     1       1.127   3.198  19.570  0.00  0.00    +0.000 A 
ATOM     34  C   UNL     1       1.498   3.620  18.300  0.00  0.00    +0.000 A 
ATOM     35  C   UNL     1       2.023   4.901  18.123  0.00  0.00    +0.000 A 
ENDBRANCH  29  30
ENDBRANCH  10  27
TORSDOF 4
ENDMDL
MODEL 5
REMARK VINA RESULT:      -7.8      0.748      1.222
REMARK  Name = 
REMARK  4 active torsions:
REMARK  status: ('A' for Active; 'I' for Inactive)
REMARK    1  A    between atoms: N_3  and  C_4
REMARK    2  A    between atoms: C_9  and  C_10
REMARK    3  A    between atoms: N_21  and  C_22
REMARK    4  A    between atoms: C_24  and  C_25
REMARK                            x       y       z     vdW  Elec       q    Type
REMARK                         _______ _______ _______ _____ _____    ______ ____
ROOT
ATOM      1  O   UNL     1      -2.186  14.189  19.948  0.00  0.00    +0.000 OA
ATOM      2  C   UNL     1      -1.917  13.240  20.675  0.00  0.00    +0.000 C 
ATOM      3  N   UNL     1      -2.853  12.497  21.385  0.00  0.00    +0.000 N 
ATOM      4  N   UNL     1      -0.597  12.854  20.947  0.00  0.00    +0.000 N 
ATOM      5  C   UNL     1       0.508  13.652  20.369  0.00  0.00    +0.000 C 
ATOM      6  C   UNL     1       1.114  13.004  19.096  0.00  0.00    +0.000 C 
ATOM      7  N   UNL     1       1.344  11.578  19.305  0.00  0.00    +0.000 N 
ATOM      8  C   UNL     1       2.016  10.694  18.439  0.00  0.00    +0.000 C 
ATOM      9  O   UNL     1       2.621  11.017  17.433  0.00  0.00    +0.000 OA
ATOM     10  N   UNL     1       1.793   9.415  18.939  0.00  0.00    +0.000 N 
ATOM     11  C   UNL     1       0.942   9.491  20.027  0.00  0.00    +0.000 C 
ATOM     12  O   UNL     1       0.599   8.595  20.784  0.00  0.00    +0.000 OA
ATOM     13  C   UNL     1       0.295  10.839  19.958  0.00  0.00    +0.000 C 
ATOM     14  C   UNL     1      -0.220  11.456  21.240  0.00  0.00    +0.000 C 
ATOM     15  H   UNL     1      -2.508  12.406  22.332  0.00  0.00    +0.000 HD
ENDROOT
BRANCH   3  16
ATOM     16  C   UNL     1      -4.228  12.869  21.336  0.00  0.00    +0.000 A 
ATOM     17  C   UNL     1      -5.004  12.269  20.330  0.00  0.00    +0.000 A 
ATOM     18  C   UNL     1      -6.356  12.574  20.193  0.00  0.00    +0.000 A 
ATOM     19  C   UNL     1      -6.941  13.509  21.043  0.00  0.00    +0.000 A 
ATOM     20  C   UNL     1      -6.174  14.134  22.029  0.00  0.00    +0.000 A 
ATOM     21  C   UNL     1      -4.806  13.832  22.198  0.00  0.00    +0.000 A 
BRANCH  21  22
ATOM     22  C   UNL     1      -4.026  14.589  23.193  0.00  0.00    +0.000 A 
ATOM     23  C   UNL     1      -3.491  15.916  23.067  0.00  0.00    +0.000 A 
ATOM     24  C   UNL     1      -2.797  16.330  24.182  0.00  0.00    +0.000 A 
ATOM     25  S   UNL     1      -2.841  15.165  25.426  0.00  0.00    +0.000 S 
ATOM     26  C   UNL     1      -3.757  14.091  24.457  0.00  0.00    +0.000 A 
ENDBRANCH  21  22
ENDBRANCH   3  16
BRANCH  10  27
ATOM     27  C   UNL     1       1.841   8.193  18.194  0.00  0.00    +0.000 C 
ATOM     28  C   UNL     1       2.841   7.721  17.194  0.00  0.00    +0.000 C 
ATOM     29  C   UNL     1       2.840   7.108  18.571  0.00  0.00    +0.000 C 
BRANCH  29  30
ATOM     30  C   UNL     1       2.226   5.780  18.962  0.00  0.00    +0.000 A 
ATOM     31  C   UNL     1       1.864   4.782  18.046  0.00  0.00    +0.000 A 
ATOM     32  C   UNL     1       1.273   3.584  18.471  0.00  0.00    +0.000 A 
ATOM     33  C   UNL     1       1.033   3.357  19.824  0.00  0.00    +0.000 A 
ATOM     34  C   UNL     1       1.389   4.324  20.754  0.00  0.00    +0.000 A 
ATOM     35  C   UNL     1       1.981   5.513  20.324  0.00  0.00    +0.000 A 
ENDBRANCH  29  30
ENDBRANCH  10  27
TORSDOF 4
ENDMDL
MODEL 6
REMARK VINA RESULT:      -7.4      3.707      6.087
REMARK  Name = 
REMARK  4 active torsions:
REMARK  status: ('A' for Active; 'I' for Inactive)
REMARK    1  A    between atoms: N_3  and  C_4
REMARK    2  A    between atoms: C_9  and  C_10
REMARK    3  A    between atoms: N_21  and  C_22
REMARK    4  A    between atoms: C_24  and  C_25
REMARK                            x       y       z     vdW  Elec       q    Type
REMARK                         _______ _______ _______ _____ _____    ______ ____
ROOT
ATOM      1  O   UNL     1       1.272  13.771  21.615  0.00  0.00    +0.000 OA
ATOM      2  C   UNL     1       1.412  13.371  20.465  0.00  0.00    +0.000 C 
ATOM      3  N   UNL     1       2.285  13.926  19.536  0.00  0.00    +0.000 N 
ATOM      4  N   UNL     1       0.621  12.348  19.924  0.00  0.00    +0.000 N 
ATOM      5  C   UNL     1      -0.450  11.764  20.761  0.00  0.00    +0.000 C 
ATOM      6  C   UNL     1      -0.038  10.414  21.408  0.00  0.00    +0.000 C 
ATOM      7  N   UNL     1       0.604   9.548  20.425  0.00  0.00    +0.000 N 
ATOM      8  C   UNL     1       0.973   8.201  20.599  0.00  0.00    +0.000 C 
ATOM      9  O   UNL     1       0.697   7.513  21.565  0.00  0.00    +0.000 OA
ATOM     10  N   UNL     1       1.744   7.862  19.492  0.00  0.00    +0.000 N 
ATOM     11  C   UNL     1       1.921   8.981  18.698  0.00  0.00    +0.000 C 
ATOM     12  O   UNL     1       2.452   9.055  17.600  0.00  0.00    +0.000 OA
ATOM     13  C   UNL     1       1.574  10.159  19.554  0.00  0.00    +0.000 C 
ATOM     14  C   UNL     1       1.113  11.431  18.876  0.00  0.00    +0.000 C 
ATOM     15  H   UNL     1       1.768  14.050  18.675  0.00  0.00    +0.000 HD
ENDROOT
BRANCH   3  16
ATOM     16  C   UNL     1       3.046  15.078  19.889  0.00  0.00    +0.000 A 
ATOM     17  C   UNL     1       4.353  14.849  20.351  0.00  0.00    +0.000 A 
ATOM     18  C   UNL     1       5.173  15.908  20.730  0.00  0.00    +0.000 A 
ATOM     19  C   UNL     1       4.684  17.211  20.680  0.00  0.00    +0.000 A 
ATOM     20  C   UNL     1       3.377  17.450  20.250  0.00  0.00    +0.000 A 
ATOM     21  C   UNL     1       2.531  16.396  19.847  0.00  0.00    +0.000 A 
BRANCH  21  22
ATOM     22  C   UNL     1       1.133  16.699  19.490  0.00  0.00    +0.000 A 
ATOM     23  C   UNL     1       0.573  16.855  18.176  0.00  0.00    +0.000 A 
ATOM     24  C   UNL     1      -0.772  17.148  18.190  0.00  0.00    +0.000 A 
ATOM     25  S   UNL     1      -1.402  17.165  19.774  0.00  0.00    +0.000 S 
ATOM     26  C   UNL     1       0.136  16.818  20.444  0.00  0.00    +0.000 A 
ENDBRANCH  21  22
ENDBRANCH   3  16
BRANCH  10  27
ATOM     27  C   UNL     1       2.721   6.817  19.426  0.00  0.00    +0.000 C 
ATOM     28  C   UNL     1       2.651   5.410  19.912  0.00  0.00    +0.000 C 
ATOM     29  C   UNL     1       2.552   5.676  18.432  0.00  0.00    +0.000 C 
BRANCH  29  30
ATOM     30  C   UNL     1       3.670   5.539  17.418  0.00  0.00    +0.000 A 
ATOM     31  C   UNL     1       4.339   6.625  16.837  0.00  0.00    +0.000 A 
ATOM     32  C   UNL     1       5.348   6.431  15.883  0.00  0.00    +0.000 A 
ATOM     33  C   UNL     1       5.711   5.145  15.490  0.00  0.00    +0.000 A 
ATOM     34  C   UNL     1       5.071   4.051  16.056  0.00  0.00    +0.000 A 
ATOM     35  C   UNL     1       4.070   4.251  17.009  0.00  0.00    +0.000 A 
ENDBRANCH  29  30
ENDBRANCH  10  27
TORSDOF 4
ENDMDL
MODEL 7
REMARK VINA RESULT:      -7.4      2.160      3.196
REMARK  Name = 
REMARK  4 active torsions:
REMARK  status: ('A' for Active; 'I' for Inactive)
REMARK    1  A    between atoms: N_3  and  C_4
REMARK    2  A    between atoms: C_9  and  C_10
REMARK    3  A    between atoms: N_21  and  C_22
REMARK    4  A    between atoms: C_24  and  C_25
REMARK                            x       y       z     vdW  Elec       q    Type
REMARK                         _______ _______ _______ _____ _____    ______ ____
ROOT
ATOM      1  O   UNL     1      -3.075  14.405  22.140  0.00  0.00    +0.000 OA
ATOM      2  C   UNL     1      -2.880  13.270  22.558  0.00  0.00    +0.000 C 
ATOM      3  N   UNL     1      -3.881  12.387  22.948  0.00  0.00    +0.000 N 
ATOM      4  N   UNL     1      -1.592  12.764  22.782  0.00  0.00    +0.000 N 
ATOM      5  C   UNL     1      -0.431  13.651  22.546  0.00  0.00    +0.000 C 
ATOM      6  C   UNL     1       0.253  13.393  21.176  0.00  0.00    +0.000 C 
ATOM      7  N   UNL     1       0.436  11.962  20.955  0.00  0.00    +0.000 N 
ATOM      8  C   UNL     1       1.150  11.354  19.906  0.00  0.00    +0.000 C 
ATOM      9  O   UNL     1       1.834  11.940  19.086  0.00  0.00    +0.000 OA
ATOM     10  N   UNL     1       0.864   9.995  19.977  0.00  0.00    +0.000 N 
ATOM     11  C   UNL     1      -0.062   9.774  20.980  0.00  0.00    +0.000 C 
ATOM     12  O   UNL     1      -0.479   8.707  21.405  0.00  0.00    +0.000 OA
ATOM     13  C   UNL     1      -0.673  11.106  21.285  0.00  0.00    +0.000 C 
ATOM     14  C   UNL     1      -1.268  11.328  22.658  0.00  0.00    +0.000 C 
ATOM     15  H   UNL     1      -3.608  12.000  23.842  0.00  0.00    +0.000 HD
ENDROOT
BRANCH   3  16
ATOM     16  C   UNL     1      -5.240  12.815  22.928  0.00  0.00    +0.000 A 
ATOM     17  C   UNL     1      -5.778  13.249  24.151  0.00  0.00    +0.000 A 
ATOM     18  C   UNL     1      -7.101  13.678  24.237  0.00  0.00    +0.000 A 
ATOM     19  C   UNL     1      -7.911  13.646  23.106  0.00  0.00    +0.000 A 
ATOM     20  C   UNL     1      -7.396  13.190  21.890  0.00  0.00    +0.000 A 
ATOM     21  C   UNL     1      -6.056  12.764  21.772  0.00  0.00    +0.000 A 
BRANCH  21  22
ATOM     22  C   UNL     1      -5.595  12.206  20.488  0.00  0.00    +0.000 A 
ATOM     23  C   UNL     1      -4.360  12.474  19.805  0.00  0.00    +0.000 A 
ATOM     24  C   UNL     1      -4.240  11.794  18.613  0.00  0.00    +0.000 A 
ATOM     25  S   UNL     1      -5.571  10.766  18.332  0.00  0.00    +0.000 S 
ATOM     26  C   UNL     1      -6.326  11.261  19.788  0.00  0.00    +0.000 A 
ENDBRANCH  21  22
ENDBRANCH   3  16
BRANCH  10  27
ATOM     27  C   UNL     1       0.941   9.055  18.899  0.00  0.00    +0.000 C 
ATOM     28  C   UNL     1       0.948   9.285  17.426  0.00  0.00    +0.000 C 
ATOM     29  C   UNL     1       2.234   8.900  18.111  0.00  0.00    +0.000 C 
BRANCH  29  30
ATOM     30  C   UNL     1       2.849   7.516  18.154  0.00  0.00    +0.000 A 
ATOM     31  C   UNL     1       4.039   7.166  17.501  0.00  0.00    +0.000 A 
ATOM     32  C   UNL     1       4.541   5.858  17.557  0.00  0.00    +0.000 A 
ATOM     33  C   UNL     1       3.865   4.872  18.272  0.00  0.00    +0.000 A 
ATOM     34  C   UNL     1       2.689   5.194  18.936  0.00  0.00    +0.000 A 
ATOM     35  C   UNL     1       2.197   6.499  18.879  0.00  0.00    +0.000 A 
ENDBRANCH  29  30
ENDBRANCH  10  27
TORSDOF 4
ENDMDL
MODEL 8
REMARK VINA RESULT:      -7.2      3.758      6.117
REMARK  Name = 
REMARK  4 active torsions:
REMARK  status: ('A' for Active; 'I' for Inactive)
REMARK    1  A    between atoms: N_3  and  C_4
REMARK    2  A    between atoms: C_9  and  C_10
REMARK    3  A    between atoms: N_21  and  C_22
REMARK    4  A    between atoms: C_24  and  C_25
REMARK                            x       y       z     vdW  Elec       q    Type
REMARK                         _______ _______ _______ _____ _____    ______ ____
ROOT
ATOM      1  O   UNL     1       1.190  13.893  21.769  0.00  0.00    +0.000 OA
ATOM      2  C   UNL     1       1.353  13.493  20.622  0.00  0.00    +0.000 C 
ATOM      3  N   UNL     1       2.264  14.029  19.720  0.00  0.00    +0.000 N 
ATOM      4  N   UNL     1       0.553  12.491  20.056  0.00  0.00    +0.000 N 
ATOM      5  C   UNL     1      -0.556  11.931  20.861  0.00  0.00    +0.000 C 
ATOM      6  C   UNL     1      -0.194  10.570  21.515  0.00  0.00    +0.000 C 
ATOM      7  N   UNL     1       0.454   9.691  20.546  0.00  0.00    +0.000 N 
ATOM      8  C   UNL     1       0.785   8.335  20.726  0.00  0.00    +0.000 C 
ATOM      9  O   UNL     1       0.465   7.651  21.682  0.00  0.00    +0.000 OA
ATOM     10  N   UNL     1       1.578   7.981  19.639  0.00  0.00    +0.000 N 
ATOM     11  C   UNL     1       1.804   9.097  18.855  0.00  0.00    +0.000 C 
ATOM     12  O   UNL     1       2.367   9.162  17.772  0.00  0.00    +0.000 OA
ATOM     13  C   UNL     1       1.462  10.281  19.705  0.00  0.00    +0.000 C 
ATOM     14  C   UNL     1       1.051  11.565  19.019  0.00  0.00    +0.000 C 
ATOM     15  H   UNL     1       1.774  14.169  18.845  0.00  0.00    +0.000 HD
ENDROOT
BRANCH   3  16
ATOM     16  C   UNL     1       3.043  15.162  20.098  0.00  0.00    +0.000 A 
ATOM     17  C   UNL     1       4.264  14.896  20.740  0.00  0.00    +0.000 A 
ATOM     18  C   UNL     1       5.093  15.935  21.157  0.00  0.00    +0.000 A 
ATOM     19  C   UNL     1       4.693  17.255  20.964  0.00  0.00    +0.000 A 
ATOM     20  C   UNL     1       3.468  17.533  20.352  0.00  0.00    +0.000 A 
ATOM     21  C   UNL     1       2.618  16.498  19.908  0.00  0.00    +0.000 A 
BRANCH  21  22
ATOM     22  C   UNL     1       1.297  16.849  19.354  0.00  0.00    +0.000 A 
ATOM     23  C   UNL     1       0.030  16.846  20.031  0.00  0.00    +0.000 A 
ATOM     24  C   UNL     1      -1.019  17.218  19.220  0.00  0.00    +0.000 A 
ATOM     25  S   UNL     1      -0.492  17.650  17.657  0.00  0.00    +0.000 S 
ATOM     26  C   UNL     1       1.137  17.303  18.055  0.00  0.00    +0.000 A 
ENDBRANCH  21  22
ENDBRANCH   3  16
BRANCH  10  27
ATOM     27  C   UNL     1       2.531   6.912  19.597  0.00  0.00    +0.000 C 
ATOM     28  C   UNL     1       2.428   5.517  20.113  0.00  0.00    +0.000 C 
ATOM     29  C   UNL     1       2.337   5.754  18.627  0.00  0.00    +0.000 C 
BRANCH  29  30
ATOM     30  C   UNL     1       3.451   5.570  17.618  0.00  0.00    +0.000 A 
ATOM     31  C   UNL     1       3.842   4.328  17.099  0.00  0.00    +0.000 A 
ATOM     32  C   UNL     1       4.901   4.222  16.187  0.00  0.00    +0.000 A 
ATOM     33  C   UNL     1       5.592   5.358  15.772  0.00  0.00    +0.000 A 
ATOM     34  C   UNL     1       5.220   6.602  16.262  0.00  0.00    +0.000 A 
ATOM     35  C   UNL     1       4.161   6.701  17.167  0.00  0.00    +0.000 A 
ENDBRANCH  29  30
ENDBRANCH  10  27
TORSDOF 4
ENDMDL
MODEL 9
REMARK VINA RESULT:      -7.2      2.810      3.998
REMARK  Name = 
REMARK  4 active torsions:
REMARK  status: ('A' for Active; 'I' for Inactive)
REMARK    1  A    between atoms: N_3  and  C_4
REMARK    2  A    between atoms: C_9  and  C_10
REMARK    3  A    between atoms: N_21  and  C_22
REMARK    4  A    between atoms: C_24  and  C_25
REMARK                            x       y       z     vdW  Elec       q    Type
REMARK                         _______ _______ _______ _____ _____    ______ ____
ROOT
ATOM      1  O   UNL     1      -1.636  13.287  18.538  0.00  0.00    +0.000 OA
ATOM      2  C   UNL     1      -1.468  12.528  19.486  0.00  0.00    +0.000 C 
ATOM      3  N   UNL     1      -2.490  12.006  20.271  0.00  0.00    +0.000 N 
ATOM      4  N   UNL     1      -0.193  12.173  19.946  0.00  0.00    +0.000 N 
ATOM      5  C   UNL     1       0.990  12.774  19.290  0.00  0.00    +0.000 C 
ATOM      6  C   UNL     1       1.651  11.822  18.257  0.00  0.00    +0.000 C 
ATOM      7  N   UNL     1       1.790  10.479  18.811  0.00  0.00    +0.000 N 
ATOM      8  C   UNL     1       2.475   9.394  18.232  0.00  0.00    +0.000 C 
ATOM      9  O   UNL     1       3.166   9.449  17.231  0.00  0.00    +0.000 OA
ATOM     10  N   UNL     1       2.151   8.278  18.996  0.00  0.00    +0.000 N 
ATOM     11  C   UNL     1       1.230   8.637  19.964  0.00  0.00    +0.000 C 
ATOM     12  O   UNL     1       0.788   7.958  20.878  0.00  0.00    +0.000 OA
ATOM     13  C   UNL     1       0.660   9.952  19.530  0.00  0.00    +0.000 C 
ATOM     14  C   UNL     1       0.088  10.872  20.586  0.00  0.00    +0.000 C 
ATOM     15  H   UNL     1      -2.219  12.130  21.238  0.00  0.00    +0.000 HD
ENDROOT
BRANCH   3  16
ATOM     16  C   UNL     1      -3.837  12.402  20.024  0.00  0.00    +0.000 A 
ATOM     17  C   UNL     1      -4.484  13.100  21.058  0.00  0.00    +0.000 A 
ATOM     18  C   UNL     1      -5.804  13.522  20.918  0.00  0.00    +0.000 A 
ATOM     19  C   UNL     1      -6.503  13.222  19.753  0.00  0.00    +0.000 A 
ATOM     20  C   UNL     1      -5.881  12.504  18.729  0.00  0.00    +0.000 A 
ATOM     21  C   UNL     1      -4.541  12.078  18.840  0.00  0.00    +0.000 A 
BRANCH  21  22
ATOM     22  C   UNL     1      -3.966  11.244  17.768  0.00  0.00    +0.000 A 
ATOM     23  C   UNL     1      -3.339   9.958  17.894  0.00  0.00    +0.000 A 
ATOM     24  C   UNL     1      -2.896   9.450  16.693  0.00  0.00    +0.000 A 
ATOM     25  S   UNL     1      -3.294  10.471  15.386  0.00  0.00    +0.000 S 
ATOM     26  C   UNL     1      -4.025  11.612  16.434  0.00  0.00    +0.000 A 
ENDBRANCH  21  22
ENDBRANCH   3  16
BRANCH  10  27
ATOM     27  C   UNL     1       2.189   6.913  18.563  0.00  0.00    +0.000 C 
ATOM     28  C   UNL     1       3.214   6.194  17.754  0.00  0.00    +0.000 C 
ATOM     29  C   UNL     1       3.131   5.924  19.235  0.00  0.00    +0.000 C 
BRANCH  29  30
ATOM     30  C   UNL     1       2.453   4.742  19.896  0.00  0.00    +0.000 A 
ATOM     31  C   UNL     1       2.602   4.407  21.249  0.00  0.00    +0.000 A 
ATOM     32  C   UNL     1       1.969   3.282  21.794  0.00  0.00    +0.000 A 
ATOM     33  C   UNL     1       1.168   2.468  20.998  0.00  0.00    +0.000 A 
ATOM     34  C   UNL     1       0.994   2.780  19.656  0.00  0.00    +0.000 A 
ATOM     35  C   UNL     1       1.625   3.905  19.121  0.00  0.00    +0.000 A 
ENDBRANCH  29  30
ENDBRANCH  10  27
TORSDOF 4
ENDMDL
