MODEL 1
REMARK VINA RESULT:      -6.3      0.000      0.000
REMARK  Name = 
REMARK  6 active torsions:
REMARK  status: ('A' for Active; 'I' for Inactive)
REMARK    1  A    between atoms: C_1  and  C_2
REMARK    2  A    between atoms: C_2  and  C_3
REMARK    3  A    between atoms: C_2  and  C_4
REMARK    4  A    between atoms: C_2  and  N_6
REMARK    5  A    between atoms: N_6  and  N_7
REMARK    6  A    between atoms: C_8  and  C_10
REMARK                            x       y       z     vdW  Elec       q    Type
REMARK                         _______ _______ _______ _____ _____    ______ ____
ROOT
ATOM      1  N   UNL     1       4.609   3.336  17.672  0.00  0.00    +0.000 N 
ATOM      2  C   UNL     1       3.233   3.238  17.824  0.00  0.00    +0.000 C 
ATOM      3  O   UNL     1       2.457   3.234  16.875  0.00  0.00    +0.000 OA
ATOM      4  H   UNL     1       5.242   3.331  18.469  0.00  0.00    +0.000 HD
ENDROOT
BRANCH   2   5
ATOM      5  C   UNL     1       2.730   3.069  19.215  0.00  0.00    +0.000 A 
ATOM      6  C   UNL     1       3.535   2.607  20.256  0.00  0.00    +0.000 A 
ATOM      7  C   UNL     1       2.956   2.470  21.507  0.00  0.00    +0.000 A 
ATOM      8  N   UNL     1       1.664   2.754  21.771  0.00  0.00    +0.000 NA
ATOM      9  C   UNL     1       0.913   3.218  20.750  0.00  0.00    +0.000 A 
ATOM     10  C   UNL     1       1.396   3.396  19.467  0.00  0.00    +0.000 A 
ENDBRANCH   2   5
BRANCH   1  11
ATOM     11  N   UNL     1       5.152   3.473  16.364  0.00  0.00    +0.000 NA
ATOM     12  H   UNL     1       5.625   2.587  16.141  0.00  0.00    +0.000 HD
BRANCH  11  14
ATOM     13  C   UNL     1       6.888   4.542  14.899  0.00  0.00    +0.000 C 
ATOM     14  C   UNL     1       6.116   4.600  16.231  0.00  0.00    +0.000 C 
ATOM     15  C   UNL     1       5.301   5.904  16.262  0.00  0.00    +0.000 C 
BRANCH  14  16
ATOM     16  C   UNL     1       7.083   4.619  17.363  0.00  0.00    +0.000 C 
ATOM     17  N   UNL     1       7.822   4.602  18.258  0.00  0.00    +0.000 NA
ENDBRANCH  14  16
ENDBRANCH  11  14
ENDBRANCH   1  11
TORSDOF 4
ENDMDL
MODEL 2
REMARK VINA RESULT:      -6.3      0.082      1.219
REMARK  Name = 
REMARK  6 active torsions:
REMARK  status: ('A' for Active; 'I' for Inactive)
REMARK    1  A    between atoms: C_1  and  C_2
REMARK    2  A    between atoms: C_2  and  C_3
REMARK    3  A    between atoms: C_2  and  C_4
REMARK    4  A    between atoms: C_2  and  N_6
REMARK    5  A    between atoms: N_6  and  N_7
REMARK    6  A    between atoms: C_8  and  C_10
REMARK                            x       y       z     vdW  Elec       q    Type
REMARK                         _______ _______ _______ _____ _____    ______ ____
ROOT
ATOM      1  N   UNL     1       4.584   3.347  17.674  0.00  0.00    +0.000 N 
ATOM      2  C   UNL     1       3.207   3.236  17.802  0.00  0.00    +0.000 C 
ATOM      3  O   UNL     1       2.448   3.221  16.839  0.00  0.00    +0.000 OA
ATOM      4  H   UNL     1       5.203   3.351  18.482  0.00  0.00    +0.000 HD
ENDROOT
BRANCH   2   5
ATOM      5  C   UNL     1       2.680   3.066  19.184  0.00  0.00    +0.000 A 
ATOM      6  C   UNL     1       1.367   3.381  19.533  0.00  0.00    +0.000 A 
ATOM      7  C   UNL     1       0.990   3.203  20.854  0.00  0.00    +0.000 A 
ATOM      8  N   UNL     1       1.818   2.745  21.815  0.00  0.00    +0.000 NA
ATOM      9  C   UNL     1       3.077   2.430  21.446  0.00  0.00    +0.000 A 
ATOM     10  C   UNL     1       3.551   2.567  20.154  0.00  0.00    +0.000 A 
ENDBRANCH   2   5
BRANCH   1  11
ATOM     11  N   UNL     1       5.149   3.486  16.375  0.00  0.00    +0.000 NA
ATOM     12  H   UNL     1       5.615   2.595  16.155  0.00  0.00    +0.000 HD
BRANCH  11  14
ATOM     13  C   UNL     1       6.932   4.532  14.951  0.00  0.00    +0.000 C 
ATOM     14  C   UNL     1       6.129   4.601  16.264  0.00  0.00    +0.000 C 
ATOM     15  C   UNL     1       5.328   5.915  16.274  0.00  0.00    +0.000 C 
BRANCH  14  16
ATOM     16  C   UNL     1       7.069   4.611  17.419  0.00  0.00    +0.000 C 
ATOM     17  N   UNL     1       7.828   4.636  18.297  0.00  0.00    +0.000 NA
ENDBRANCH  14  16
ENDBRANCH  11  14
ENDBRANCH   1  11
TORSDOF 4
ENDMDL
MODEL 3
REMARK VINA RESULT:      -6.2      1.029      2.024
REMARK  Name = 
REMARK  6 active torsions:
REMARK  status: ('A' for Active; 'I' for Inactive)
REMARK    1  A    between atoms: C_1  and  C_2
REMARK    2  A    between atoms: C_2  and  C_3
REMARK    3  A    between atoms: C_2  and  C_4
REMARK    4  A    between atoms: C_2  and  N_6
REMARK    5  A    between atoms: N_6  and  N_7
REMARK    6  A    between atoms: C_8  and  C_10
REMARK                            x       y       z     vdW  Elec       q    Type
REMARK                         _______ _______ _______ _____ _____    ______ ____
ROOT
ATOM      1  N   UNL     1       4.849   3.490  17.949  0.00  0.00    +0.000 N 
ATOM      2  C   UNL     1       3.464   3.403  17.925  0.00  0.00    +0.000 C 
ATOM      3  O   UNL     1       2.813   3.438  16.887  0.00  0.00    +0.000 OA
ATOM      4  H   UNL     1       5.377   3.451  18.817  0.00  0.00    +0.000 HD
ENDROOT
BRANCH   2   5
ATOM      5  C   UNL     1       2.790   3.196  19.236  0.00  0.00    +0.000 A 
ATOM      6  C   UNL     1       1.451   3.520  19.453  0.00  0.00    +0.000 A 
ATOM      7  C   UNL     1       0.932   3.303  20.719  0.00  0.00    +0.000 A 
ATOM      8  N   UNL     1       1.646   2.800  21.747  0.00  0.00    +0.000 NA
ATOM      9  C   UNL     1       2.933   2.477  21.503  0.00  0.00    +0.000 A 
ATOM     10  C   UNL     1       3.545   2.649  20.276  0.00  0.00    +0.000 A 
ENDBRANCH   2   5
BRANCH   1  11
ATOM     11  N   UNL     1       5.552   3.662  16.723  0.00  0.00    +0.000 NA
ATOM     12  H   UNL     1       6.127   2.819  16.587  0.00  0.00    +0.000 HD
BRANCH  11  14
ATOM     13  C   UNL     1       5.656   6.141  17.106  0.00  0.00    +0.000 C 
ATOM     14  C   UNL     1       6.423   4.869  16.697  0.00  0.00    +0.000 C 
ATOM     15  C   UNL     1       7.553   4.637  17.715  0.00  0.00    +0.000 C 
BRANCH  14  16
ATOM     16  C   UNL     1       7.031   5.068  15.353  0.00  0.00    +0.000 C 
ATOM     17  N   UNL     1       7.516   5.258  14.315  0.00  0.00    +0.000 NA
ENDBRANCH  14  16
ENDBRANCH  11  14
ENDBRANCH   1  11
TORSDOF 4
ENDMDL
MODEL 4
REMARK VINA RESULT:      -6.1      1.036      1.629
REMARK  Name = 
REMARK  6 active torsions:
REMARK  status: ('A' for Active; 'I' for Inactive)
REMARK    1  A    between atoms: C_1  and  C_2
REMARK    2  A    between atoms: C_2  and  C_3
REMARK    3  A    between atoms: C_2  and  C_4
REMARK    4  A    between atoms: C_2  and  N_6
REMARK    5  A    between atoms: N_6  and  N_7
REMARK    6  A    between atoms: C_8  and  C_10
REMARK                            x       y       z     vdW  Elec       q    Type
REMARK                         _______ _______ _______ _____ _____    ______ ____
ROOT
ATOM      1  N   UNL     1       4.862   3.430  17.925  0.00  0.00    +0.000 N 
ATOM      2  C   UNL     1       3.477   3.393  17.878  0.00  0.00    +0.000 C 
ATOM      3  O   UNL     1       2.844   3.474  16.830  0.00  0.00    +0.000 OA
ATOM      4  H   UNL     1       5.375   3.354  18.801  0.00  0.00    +0.000 HD
ENDROOT
BRANCH   2   5
ATOM      5  C   UNL     1       2.773   3.179  19.172  0.00  0.00    +0.000 A 
ATOM      6  C   UNL     1       3.437   2.776  20.332  0.00  0.00    +0.000 A 
ATOM      7  C   UNL     1       2.679   2.589  21.476  0.00  0.00    +0.000 A 
ATOM      8  N   UNL     1       1.344   2.772  21.530  0.00  0.00    +0.000 NA
ATOM      9  C   UNL     1       0.731   3.180  20.400  0.00  0.00    +0.000 A 
ATOM     10  C   UNL     1       1.396   3.401  19.208  0.00  0.00    +0.000 A 
ENDBRANCH   2   5
BRANCH   1  11
ATOM     11  N   UNL     1       5.591   3.606  16.715  0.00  0.00    +0.000 NA
ATOM     12  H   UNL     1       6.195   2.780  16.607  0.00  0.00    +0.000 HD
BRANCH  11  14
ATOM     13  C   UNL     1       5.622   6.085  17.109  0.00  0.00    +0.000 C 
ATOM     14  C   UNL     1       6.426   4.839  16.693  0.00  0.00    +0.000 C 
ATOM     15  C   UNL     1       7.566   4.636  17.706  0.00  0.00    +0.000 C 
BRANCH  14  16
ATOM     16  C   UNL     1       7.024   5.062  15.347  0.00  0.00    +0.000 C 
ATOM     17  N   UNL     1       7.496   5.198  14.296  0.00  0.00    +0.000 NA
ENDBRANCH  14  16
ENDBRANCH  11  14
ENDBRANCH   1  11
TORSDOF 4
ENDMDL
MODEL 5
REMARK VINA RESULT:      -6.1      1.694      5.631
REMARK  Name = 
REMARK  6 active torsions:
REMARK  status: ('A' for Active; 'I' for Inactive)
REMARK    1  A    between atoms: C_1  and  C_2
REMARK    2  A    between atoms: C_2  and  C_3
REMARK    3  A    between atoms: C_2  and  C_4
REMARK    4  A    between atoms: C_2  and  N_6
REMARK    5  A    between atoms: N_6  and  N_7
REMARK    6  A    between atoms: C_8  and  C_10
REMARK                            x       y       z     vdW  Elec       q    Type
REMARK                         _______ _______ _______ _____ _____    ______ ____
ROOT
ATOM      1  N   UNL     1       3.581   4.646  18.779  0.00  0.00    +0.000 N 
ATOM      2  C   UNL     1       3.810   4.297  17.457  0.00  0.00    +0.000 C 
ATOM      3  O   UNL     1       2.985   3.700  16.773  0.00  0.00    +0.000 OA
ATOM      4  H   UNL     1       4.271   5.149  19.333  0.00  0.00    +0.000 HD
ENDROOT
BRANCH   2   5
ATOM      5  C   UNL     1       5.102   4.743  16.867  0.00  0.00    +0.000 A 
ATOM      6  C   UNL     1       5.915   5.701  17.472  0.00  0.00    +0.000 A 
ATOM      7  C   UNL     1       7.087   6.055  16.824  0.00  0.00    +0.000 A 
ATOM      8  N   UNL     1       7.482   5.528  15.647  0.00  0.00    +0.000 NA
ATOM      9  C   UNL     1       6.686   4.589  15.093  0.00  0.00    +0.000 A 
ATOM     10  C   UNL     1       5.500   4.162  15.661  0.00  0.00    +0.000 A 
ENDBRANCH   2   5
BRANCH   1  11
ATOM     11  N   UNL     1       2.352   4.270  19.391  0.00  0.00    +0.000 NA
ATOM     12  H   UNL     1       2.091   5.031  20.033  0.00  0.00    +0.000 HD
BRANCH  11  14
ATOM     13  C   UNL     1       1.847   3.122  21.566  0.00  0.00    +0.000 C 
ATOM     14  C   UNL     1       2.426   2.988  20.144  0.00  0.00    +0.000 C 
ATOM     15  C   UNL     1       1.583   1.957  19.374  0.00  0.00    +0.000 C 
BRANCH  14  16
ATOM     16  C   UNL     1       3.826   2.488  20.225  0.00  0.00    +0.000 C 
ATOM     17  N   UNL     1       4.905   2.063  20.285  0.00  0.00    +0.000 NA
ENDBRANCH  14  16
ENDBRANCH  11  14
ENDBRANCH   1  11
TORSDOF 4
ENDMDL
MODEL 6
REMARK VINA RESULT:      -6.0      1.694      5.647
REMARK  Name = 
REMARK  6 active torsions:
REMARK  status: ('A' for Active; 'I' for Inactive)
REMARK    1  A    between atoms: C_1  and  C_2
REMARK    2  A    between atoms: C_2  and  C_3
REMARK    3  A    between atoms: C_2  and  C_4
REMARK    4  A    between atoms: C_2  and  N_6
REMARK    5  A    between atoms: N_6  and  N_7
REMARK    6  A    between atoms: C_8  and  C_10
REMARK                            x       y       z     vdW  Elec       q    Type
REMARK                         _______ _______ _______ _____ _____    ______ ____
ROOT
ATOM      1  N   UNL     1       3.585   4.661  18.700  0.00  0.00    +0.000 N 
ATOM      2  C   UNL     1       3.760   4.282  17.377  0.00  0.00    +0.000 C 
ATOM      3  O   UNL     1       2.905   3.677  16.739  0.00  0.00    +0.000 OA
ATOM      4  H   UNL     1       4.300   5.169  19.215  0.00  0.00    +0.000 HD
ENDROOT
BRANCH   2   5
ATOM      5  C   UNL     1       5.031   4.704  16.728  0.00  0.00    +0.000 A 
ATOM      6  C   UNL     1       5.407   4.272  15.456  0.00  0.00    +0.000 A 
ATOM      7  C   UNL     1       6.621   4.713  14.957  0.00  0.00    +0.000 A 
ATOM      8  N   UNL     1       7.457   5.530  15.631  0.00  0.00    +0.000 NA
ATOM      9  C   UNL     1       7.060   5.948  16.851  0.00  0.00    +0.000 A 
ATOM     10  C   UNL     1       5.865   5.571  17.436  0.00  0.00    +0.000 A 
ENDBRANCH   2   5
BRANCH   1  11
ATOM     11  N   UNL     1       2.378   4.308  19.367  0.00  0.00    +0.000 NA
ATOM     12  H   UNL     1       2.145   5.088  19.997  0.00  0.00    +0.000 HD
BRANCH  11  14
ATOM     13  C   UNL     1       1.965   3.225  21.593  0.00  0.00    +0.000 C 
ATOM     14  C   UNL     1       2.473   3.046  20.150  0.00  0.00    +0.000 C 
ATOM     15  C   UNL     1       1.584   2.005  19.448  0.00  0.00    +0.000 C 
BRANCH  14  16
ATOM     16  C   UNL     1       3.871   2.532  20.178  0.00  0.00    +0.000 C 
ATOM     17  N   UNL     1       4.951   2.111  20.231  0.00  0.00    +0.000 NA
ENDBRANCH  14  16
ENDBRANCH  11  14
ENDBRANCH   1  11
TORSDOF 4
ENDMDL
MODEL 7
REMARK VINA RESULT:      -6.0      1.904      5.855
REMARK  Name = 
REMARK  6 active torsions:
REMARK  status: ('A' for Active; 'I' for Inactive)
REMARK    1  A    between atoms: C_1  and  C_2
REMARK    2  A    between atoms: C_2  and  C_3
REMARK    3  A    between atoms: C_2  and  C_4
REMARK    4  A    between atoms: C_2  and  N_6
REMARK    5  A    between atoms: N_6  and  N_7
REMARK    6  A    between atoms: C_8  and  C_10
REMARK                            x       y       z     vdW  Elec       q    Type
REMARK                         _______ _______ _______ _____ _____    ______ ____
ROOT
ATOM      1  N   UNL     1       3.956   3.817  19.170  0.00  0.00    +0.000 N 
ATOM      2  C   UNL     1       4.179   3.365  17.878  0.00  0.00    +0.000 C 
ATOM      3  O   UNL     1       3.870   2.238  17.504  0.00  0.00    +0.000 OA
ATOM      4  H   UNL     1       4.210   4.757  19.465  0.00  0.00    +0.000 HD
ENDROOT
BRANCH   2   5
ATOM      5  C   UNL     1       4.763   4.346  16.923  0.00  0.00    +0.000 A 
ATOM      6  C   UNL     1       5.601   3.967  15.873  0.00  0.00    +0.000 A 
ATOM      7  C   UNL     1       6.104   4.967  15.057  0.00  0.00    +0.000 A 
ATOM      8  N   UNL     1       5.832   6.278  15.222  0.00  0.00    +0.000 NA
ATOM      9  C   UNL     1       5.004   6.614  16.233  0.00  0.00    +0.000 A 
ATOM     10  C   UNL     1       4.445   5.693  17.100  0.00  0.00    +0.000 A 
ENDBRANCH   2   5
BRANCH   1  11
ATOM     11  N   UNL     1       3.375   2.932  20.122  0.00  0.00    +0.000 NA
ATOM     12  H   UNL     1       3.438   1.983  19.727  0.00  0.00    +0.000 HD
BRANCH  11  14
ATOM     13  C   UNL     1       1.541   2.698  21.820  0.00  0.00    +0.000 C 
ATOM     14  C   UNL     1       1.954   3.244  20.440  0.00  0.00    +0.000 C 
ATOM     15  C   UNL     1       1.819   4.776  20.465  0.00  0.00    +0.000 C 
BRANCH  14  16
ATOM     16  C   UNL     1       1.036   2.704  19.400  0.00  0.00    +0.000 C 
ATOM     17  N   UNL     1       0.314   2.319  18.577  0.00  0.00    +0.000 NA
ENDBRANCH  14  16
ENDBRANCH  11  14
ENDBRANCH   1  11
TORSDOF 4
ENDMDL
MODEL 8
REMARK VINA RESULT:      -6.0      1.619      5.637
REMARK  Name = 
REMARK  6 active torsions:
REMARK  status: ('A' for Active; 'I' for Inactive)
REMARK    1  A    between atoms: C_1  and  C_2
REMARK    2  A    between atoms: C_2  and  C_3
REMARK    3  A    between atoms: C_2  and  C_4
REMARK    4  A    between atoms: C_2  and  N_6
REMARK    5  A    between atoms: N_6  and  N_7
REMARK    6  A    between atoms: C_8  and  C_10
REMARK                            x       y       z     vdW  Elec       q    Type
REMARK                         _______ _______ _______ _____ _____    ______ ____
ROOT
ATOM      1  N   UNL     1       4.361   3.034  18.671  0.00  0.00    +0.000 N 
ATOM      2  C   UNL     1       4.189   3.438  17.356  0.00  0.00    +0.000 C 
ATOM      3  O   UNL     1       3.153   3.241  16.729  0.00  0.00    +0.000 OA
ATOM      4  H   UNL     1       5.223   3.210  19.182  0.00  0.00    +0.000 HD
ENDROOT
BRANCH   2   5
ATOM      5  C   UNL     1       5.314   4.195  16.741  0.00  0.00    +0.000 A 
ATOM      6  C   UNL     1       5.728   3.992  15.424  0.00  0.00    +0.000 A 
ATOM      7  C   UNL     1       6.799   4.738  14.963  0.00  0.00    +0.000 A 
ATOM      8  N   UNL     1       7.461   5.643  15.711  0.00  0.00    +0.000 NA
ATOM      9  C   UNL     1       7.028   5.834  16.975  0.00  0.00    +0.000 A 
ATOM     10  C   UNL     1       5.965   5.144  17.530  0.00  0.00    +0.000 A 
ENDBRANCH   2   5
BRANCH   1  11
ATOM     11  N   UNL     1       3.309   2.328  19.321  0.00  0.00    +0.000 NA
ATOM     12  H   UNL     1       2.776   1.842  18.587  0.00  0.00    +0.000 HD
BRANCH  11  14
ATOM     13  C   UNL     1       0.932   3.070  19.638  0.00  0.00    +0.000 C 
ATOM     14  C   UNL     1       2.395   3.205  20.103  0.00  0.00    +0.000 C 
ATOM     15  C   UNL     1       2.479   2.756  21.573  0.00  0.00    +0.000 C 
BRANCH  14  16
ATOM     16  C   UNL     1       2.811   4.632  20.019  0.00  0.00    +0.000 C 
ATOM     17  N   UNL     1       3.103   5.752  19.936  0.00  0.00    +0.000 NA
ENDBRANCH  14  16
ENDBRANCH  11  14
ENDBRANCH   1  11
TORSDOF 4
ENDMDL
MODEL 9
REMARK VINA RESULT:      -6.0      1.937      5.788
REMARK  Name = 
REMARK  6 active torsions:
REMARK  status: ('A' for Active; 'I' for Inactive)
REMARK    1  A    between atoms: C_1  and  C_2
REMARK    2  A    between atoms: C_2  and  C_3
REMARK    3  A    between atoms: C_2  and  C_4
REMARK    4  A    between atoms: C_2  and  N_6
REMARK    5  A    between atoms: N_6  and  N_7
REMARK    6  A    between atoms: C_8  and  C_10
REMARK                            x       y       z     vdW  Elec       q    Type
REMARK                         _______ _______ _______ _____ _____    ______ ____
ROOT
ATOM      1  N   UNL     1       2.929   4.414  17.439  0.00  0.00    +0.000 N 
ATOM      2  C   UNL     1       3.650   5.588  17.599  0.00  0.00    +0.000 C 
ATOM      3  O   UNL     1       3.244   6.533  18.266  0.00  0.00    +0.000 OA
ATOM      4  H   UNL     1       3.281   3.634  16.889  0.00  0.00    +0.000 HD
ENDROOT
BRANCH   2   5
ATOM      5  C   UNL     1       4.997   5.631  16.966  0.00  0.00    +0.000 A 
ATOM      6  C   UNL     1       5.332   4.856  15.855  0.00  0.00    +0.000 A 
ATOM      7  C   UNL     1       6.621   4.961  15.361  0.00  0.00    +0.000 A 
ATOM      8  N   UNL     1       7.566   5.764  15.892  0.00  0.00    +0.000 NA
ATOM      9  C   UNL     1       7.209   6.517  16.954  0.00  0.00    +0.000 A 
ATOM     10  C   UNL     1       5.948   6.490  17.519  0.00  0.00    +0.000 A 
ENDBRANCH   2   5
BRANCH   1  11
ATOM     11  N   UNL     1       1.644   4.304  18.043  0.00  0.00    +0.000 NA
ATOM     12  H   UNL     1       1.364   5.253  18.325  0.00  0.00    +0.000 HD
BRANCH  11  14
ATOM     13  C   UNL     1       1.094   4.125  20.486  0.00  0.00    +0.000 C 
ATOM     14  C   UNL     1       1.615   3.404  19.228  0.00  0.00    +0.000 C 
ATOM     15  C   UNL     1       0.654   2.248  18.899  0.00  0.00    +0.000 C 
BRANCH  14  16
ATOM     16  C   UNL     1       2.962   2.834  19.507  0.00  0.00    +0.000 C 
ATOM     17  N   UNL     1       3.996   2.361  19.744  0.00  0.00    +0.000 NA
ENDBRANCH  14  16
ENDBRANCH  11  14
ENDBRANCH   1  11
TORSDOF 4
ENDMDL
