MODEL 1
REMARK VINA RESULT:      -7.6      0.000      0.000
REMARK  Name = 
REMARK  7 active torsions:
REMARK  status: ('A' for Active; 'I' for Inactive)
REMARK    1  A    between atoms: C_3  and  C_4
REMARK    2  A    between atoms: C_7  and  N_8
REMARK    3  A    between atoms: C_18  and  O_19
REMARK    4  A    between atoms: O_19  and  C_20
REMARK    5  A    between atoms: C_20  and  C_21
REMARK    6  A    between atoms: C_21  and  C_22
REMARK    7  A    between atoms: C_22  and  N_23
REMARK                            x       y       z     vdW  Elec       q    Type
REMARK                         _______ _______ _______ _____ _____    ______ ____
ROOT
ATOM      1  C   UNL     1       3.221   7.563  17.414  0.00  0.00    +0.000 A 
ATOM      2  C   UNL     1       2.346   8.591  17.759  0.00  0.00    +0.000 A 
ATOM      3  C   UNL     1       1.738   8.626  19.023  0.00  0.00    +0.000 A 
ATOM      4  C   UNL     1       1.953   7.561  19.908  0.00  0.00    +0.000 A 
ATOM      5  C   UNL     1       2.825   6.533  19.558  0.00  0.00    +0.000 A 
ATOM      6  C   UNL     1       3.498   6.554  18.333  0.00  0.00    +0.000 A 
ENDROOT
BRANCH   3   7
ATOM      7  C   UNL     1       1.087   9.912  19.480  0.00  0.00    +0.000 C 
ATOM      8  C   UNL     1      -0.133  10.373  18.679  0.00  0.00    +0.000 C 
ATOM      9  C   UNL     1      -0.748  11.646  19.266  0.00  0.00    +0.000 C 
ATOM     10  C   UNL     1      -0.984  11.606  20.796  0.00  0.00    +0.000 C 
ATOM     11  C   UNL     1       0.217  11.010  21.556  0.00  0.00    +0.000 C 
ATOM     12  C   UNL     1       0.686   9.706  20.946  0.00  0.00    +0.000 C 
BRANCH  10  13
ATOM     13  N   UNL     1      -1.429  12.847  21.464  0.00  0.00    +0.000 NA
ATOM     14  C   UNL     1      -1.626  12.762  22.907  0.00  0.00    +0.000 C 
ATOM     15  C   UNL     1      -2.978  12.189  23.331  0.00  0.00    +0.000 C 
ATOM     16  C   UNL     1      -4.174  12.684  22.511  0.00  0.00    +0.000 C 
ATOM     17  C   UNL     1      -3.887  13.039  21.054  0.00  0.00    +0.000 C 
ATOM     18  C   UNL     1      -2.500  13.632  20.855  0.00  0.00    +0.000 C 
ENDBRANCH  10  13
ENDBRANCH   3   7
BRANCH   6  19
ATOM     19  O   UNL     1       4.416   5.558  18.178  0.00  0.00    +0.000 OA
BRANCH  19  20
ATOM     20  C   UNL     1       4.286   4.760  17.000  0.00  0.00    +0.000 C 
BRANCH  20  21
ATOM     21  C   UNL     1       4.389   3.302  17.432  0.00  0.00    +0.000 C 
BRANCH  21  22
ATOM     22  C   UNL     1       3.028   2.611  17.490  0.00  0.00    +0.000 C 
BRANCH  22  23
ATOM     23  N   UNL     1       2.471   2.491  18.846  0.00  0.00    +0.000 NA
ATOM     24  C   UNL     1       3.484   2.731  19.888  0.00  0.00    +0.000 C 
ATOM     25  C   UNL     1       2.891   2.514  21.281  0.00  0.00    +0.000 C 
ATOM     26  C   UNL     1       1.666   3.392  21.510  0.00  0.00    +0.000 C 
ATOM     27  C   UNL     1       0.667   3.221  20.372  0.00  0.00    +0.000 C 
ATOM     28  C   UNL     1       1.334   3.412  19.010  0.00  0.00    +0.000 C 
ENDBRANCH  22  23
ENDBRANCH  21  22
ENDBRANCH  20  21
ENDBRANCH  19  20
ENDBRANCH   6  19
TORSDOF 7
ENDMDL
MODEL 2
REMARK VINA RESULT:      -7.5      1.840      3.140
REMARK  Name = 
REMARK  7 active torsions:
REMARK  status: ('A' for Active; 'I' for Inactive)
REMARK    1  A    between atoms: C_3  and  C_4
REMARK    2  A    between atoms: C_7  and  N_8
REMARK    3  A    between atoms: C_18  and  O_19
REMARK    4  A    between atoms: O_19  and  C_20
REMARK    5  A    between atoms: C_20  and  C_21
REMARK    6  A    between atoms: C_21  and  C_22
REMARK    7  A    between atoms: C_22  and  N_23
REMARK                            x       y       z     vdW  Elec       q    Type
REMARK                         _______ _______ _______ _____ _____    ______ ____
ROOT
ATOM      1  C   UNL     1       1.905   5.814  20.544  0.00  0.00    +0.000 A 
ATOM      2  C   UNL     1       1.642   7.153  20.821  0.00  0.00    +0.000 A 
ATOM      3  C   UNL     1       1.770   8.133  19.825  0.00  0.00    +0.000 A 
ATOM      4  C   UNL     1       2.255   7.759  18.565  0.00  0.00    +0.000 A 
ATOM      5  C   UNL     1       2.522   6.420  18.293  0.00  0.00    +0.000 A 
ATOM      6  C   UNL     1       2.302   5.438  19.264  0.00  0.00    +0.000 A 
ENDROOT
BRANCH   3   7
ATOM      7  C   UNL     1       1.150   9.492  20.060  0.00  0.00    +0.000 C 
ATOM      8  C   UNL     1       0.162   9.978  18.997  0.00  0.00    +0.000 C 
ATOM      9  C   UNL     1      -0.449  11.331  19.368  0.00  0.00    +0.000 C 
ATOM     10  C   UNL     1      -0.996  11.420  20.815  0.00  0.00    +0.000 C 
ATOM     11  C   UNL     1      -0.030  10.799  21.842  0.00  0.00    +0.000 C 
ATOM     12  C   UNL     1       0.442   9.424  21.420  0.00  0.00    +0.000 C 
BRANCH  10  13
ATOM     13  N   UNL     1      -1.461  12.735  21.303  0.00  0.00    +0.000 NA
ATOM     14  C   UNL     1      -1.613  12.865  22.748  0.00  0.00    +0.000 C 
ATOM     15  C   UNL     1      -2.932  12.326  23.300  0.00  0.00    +0.000 C 
ATOM     16  C   UNL     1      -4.167  12.656  22.455  0.00  0.00    +0.000 C 
ATOM     17  C   UNL     1      -3.935  12.794  20.953  0.00  0.00    +0.000 C 
ATOM     18  C   UNL     1      -2.576  13.388  20.619  0.00  0.00    +0.000 C 
ENDBRANCH  10  13
ENDBRANCH   3   7
BRANCH   6  19
ATOM     19  O   UNL     1       2.479   4.160  18.821  0.00  0.00    +0.000 OA
BRANCH  19  20
ATOM     20  C   UNL     1       2.576   3.991  17.406  0.00  0.00    +0.000 C 
BRANCH  20  21
ATOM     21  C   UNL     1       3.887   3.264  17.129  0.00  0.00    +0.000 C 
BRANCH  21  22
ATOM     22  C   UNL     1       4.888   4.130  16.366  0.00  0.00    +0.000 C 
BRANCH  22  23
ATOM     23  N   UNL     1       5.594   5.113  17.202  0.00  0.00    +0.000 NA
ATOM     24  C   UNL     1       6.041   4.538  18.482  0.00  0.00    +0.000 C 
ATOM     25  C   UNL     1       6.692   5.607  19.360  0.00  0.00    +0.000 C 
ATOM     26  C   UNL     1       7.852   6.288  18.642  0.00  0.00    +0.000 C 
ATOM     27  C   UNL     1       7.412   6.786  17.271  0.00  0.00    +0.000 C 
ATOM     28  C   UNL     1       6.735   5.679  16.465  0.00  0.00    +0.000 C 
ENDBRANCH  22  23
ENDBRANCH  21  22
ENDBRANCH  20  21
ENDBRANCH  19  20
ENDBRANCH   6  19
TORSDOF 7
ENDMDL
MODEL 3
REMARK VINA RESULT:      -7.4      1.166      2.176
REMARK  Name = 
REMARK  7 active torsions:
REMARK  status: ('A' for Active; 'I' for Inactive)
REMARK    1  A    between atoms: C_3  and  C_4
REMARK    2  A    between atoms: C_7  and  N_8
REMARK    3  A    between atoms: C_18  and  O_19
REMARK    4  A    between atoms: O_19  and  C_20
REMARK    5  A    between atoms: C_20  and  C_21
REMARK    6  A    between atoms: C_21  and  C_22
REMARK    7  A    between atoms: C_22  and  N_23
REMARK                            x       y       z     vdW  Elec       q    Type
REMARK                         _______ _______ _______ _____ _____    ______ ____
ROOT
ATOM      1  C   UNL     1       2.417   6.864  19.657  0.00  0.00    +0.000 A 
ATOM      2  C   UNL     1       1.640   7.756  20.392  0.00  0.00    +0.000 A 
ATOM      3  C   UNL     1       1.188   8.956  19.822  0.00  0.00    +0.000 A 
ATOM      4  C   UNL     1       1.605   9.291  18.527  0.00  0.00    +0.000 A 
ATOM      5  C   UNL     1       2.386   8.398  17.797  0.00  0.00    +0.000 A 
ATOM      6  C   UNL     1       2.754   7.164  18.339  0.00  0.00    +0.000 A 
ENDROOT
BRANCH   3   7
ATOM      7  C   UNL     1       0.079   9.716  20.515  0.00  0.00    +0.000 C 
ATOM      8  C   UNL     1       0.310  10.053  21.990  0.00  0.00    +0.000 C 
ATOM      9  C   UNL     1      -0.844  10.874  22.570  0.00  0.00    +0.000 C 
ATOM     10  C   UNL     1      -1.269  12.091  21.711  0.00  0.00    +0.000 C 
ATOM     11  C   UNL     1      -1.360  11.743  20.213  0.00  0.00    +0.000 C 
ATOM     12  C   UNL     1      -0.128  11.013  19.722  0.00  0.00    +0.000 C 
BRANCH  10  13
ATOM     13  N   UNL     1      -2.473  12.845  22.120  0.00  0.00    +0.000 NA
ATOM     14  C   UNL     1      -2.848  13.966  21.265  0.00  0.00    +0.000 C 
ATOM     15  C   UNL     1      -2.087  15.261  21.545  0.00  0.00    +0.000 C 
ATOM     16  C   UNL     1      -1.879  15.579  23.029  0.00  0.00    +0.000 C 
ATOM     17  C   UNL     1      -1.766  14.378  23.963  0.00  0.00    +0.000 C 
ATOM     18  C   UNL     1      -2.635  13.209  23.526  0.00  0.00    +0.000 C 
ENDBRANCH  10  13
ENDBRANCH   3   7
BRANCH   6  19
ATOM     19  O   UNL     1       3.404   6.339  17.470  0.00  0.00    +0.000 OA
BRANCH  19  20
ATOM     20  C   UNL     1       4.792   6.118  17.730  0.00  0.00    +0.000 C 
BRANCH  20  21
ATOM     21  C   UNL     1       4.969   4.626  17.985  0.00  0.00    +0.000 C 
BRANCH  21  22
ATOM     22  C   UNL     1       3.790   3.800  17.474  0.00  0.00    +0.000 C 
BRANCH  22  23
ATOM     23  N   UNL     1       3.009   3.147  18.536  0.00  0.00    +0.000 NA
ATOM     24  C   UNL     1       3.499   3.491  19.882  0.00  0.00    +0.000 C 
ATOM     25  C   UNL     1       2.721   2.728  20.954  0.00  0.00    +0.000 C 
ATOM     26  C   UNL     1       1.222   2.985  20.846  0.00  0.00    +0.000 C 
ATOM     27  C   UNL     1       0.739   2.731  19.423  0.00  0.00    +0.000 C 
ATOM     28  C   UNL     1       1.584   3.492  18.402  0.00  0.00    +0.000 C 
ENDBRANCH  22  23
ENDBRANCH  21  22
ENDBRANCH  20  21
ENDBRANCH  19  20
ENDBRANCH   6  19
TORSDOF 7
ENDMDL
MODEL 4
REMARK VINA RESULT:      -7.3      0.793      1.201
REMARK  Name = 
REMARK  7 active torsions:
REMARK  status: ('A' for Active; 'I' for Inactive)
REMARK    1  A    between atoms: C_3  and  C_4
REMARK    2  A    between atoms: C_7  and  N_8
REMARK    3  A    between atoms: C_18  and  O_19
REMARK    4  A    between atoms: O_19  and  C_20
REMARK    5  A    between atoms: C_20  and  C_21
REMARK    6  A    between atoms: C_21  and  C_22
REMARK    7  A    between atoms: C_22  and  N_23
REMARK                            x       y       z     vdW  Elec       q    Type
REMARK                         _______ _______ _______ _____ _____    ______ ____
ROOT
ATOM      1  C   UNL     1       2.985   7.842  17.752  0.00  0.00    +0.000 A 
ATOM      2  C   UNL     1       1.977   8.685  18.212  0.00  0.00    +0.000 A 
ATOM      3  C   UNL     1       1.371   8.468  19.459  0.00  0.00    +0.000 A 
ATOM      4  C   UNL     1       1.731   7.335  20.200  0.00  0.00    +0.000 A 
ATOM      5  C   UNL     1       2.737   6.492  19.734  0.00  0.00    +0.000 A 
ATOM      6  C   UNL     1       3.400   6.768  18.535  0.00  0.00    +0.000 A 
ENDROOT
BRANCH   3   7
ATOM      7  C   UNL     1       0.547   9.580  20.069  0.00  0.00    +0.000 C 
ATOM      8  C   UNL     1       0.538   9.654  21.598  0.00  0.00    +0.000 C 
ATOM      9  C   UNL     1      -0.272  10.852  22.102  0.00  0.00    +0.000 C 
ATOM     10  C   UNL     1       0.065  12.198  21.413  0.00  0.00    +0.000 C 
ATOM     11  C   UNL     1       0.198  12.054  19.885  0.00  0.00    +0.000 C 
ATOM     12  C   UNL     1       1.093  10.896  19.498  0.00  0.00    +0.000 C 
BRANCH  10  13
ATOM     13  N   UNL     1      -0.776  13.371  21.730  0.00  0.00    +0.000 NA
ATOM     14  C   UNL     1      -1.296  13.437  23.092  0.00  0.00    +0.000 C 
ATOM     15  C   UNL     1      -2.560  12.613  23.331  0.00  0.00    +0.000 C 
ATOM     16  C   UNL     1      -3.597  12.684  22.205  0.00  0.00    +0.000 C 
ATOM     17  C   UNL     1      -3.046  12.897  20.798  0.00  0.00    +0.000 C 
ATOM     18  C   UNL     1      -1.808  13.779  20.779  0.00  0.00    +0.000 C 
ENDBRANCH  10  13
ENDBRANCH   3   7
BRANCH   6  19
ATOM     19  O   UNL     1       4.447   5.937  18.266  0.00  0.00    +0.000 OA
BRANCH  19  20
ATOM     20  C   UNL     1       4.530   5.440  16.929  0.00  0.00    +0.000 C 
BRANCH  20  21
ATOM     21  C   UNL     1       3.699   4.164  16.872  0.00  0.00    +0.000 C 
BRANCH  21  22
ATOM     22  C   UNL     1       4.178   3.108  17.867  0.00  0.00    +0.000 C 
BRANCH  22  23
ATOM     23  N   UNL     1       3.171   2.721  18.866  0.00  0.00    +0.000 NA
ATOM     24  C   UNL     1       3.553   3.126  20.230  0.00  0.00    +0.000 C 
ATOM     25  C   UNL     1       2.526   2.633  21.250  0.00  0.00    +0.000 C 
ATOM     26  C   UNL     1       1.123   3.128  20.916  0.00  0.00    +0.000 C 
ATOM     27  C   UNL     1       0.774   2.802  19.469  0.00  0.00    +0.000 C 
ATOM     28  C   UNL     1       1.859   3.287  18.509  0.00  0.00    +0.000 C 
ENDBRANCH  22  23
ENDBRANCH  21  22
ENDBRANCH  20  21
ENDBRANCH  19  20
ENDBRANCH   6  19
TORSDOF 7
ENDMDL
MODEL 5
REMARK VINA RESULT:      -7.3      1.196      2.039
REMARK  Name = 
REMARK  7 active torsions:
REMARK  status: ('A' for Active; 'I' for Inactive)
REMARK    1  A    between atoms: C_3  and  C_4
REMARK    2  A    between atoms: C_7  and  N_8
REMARK    3  A    between atoms: C_18  and  O_19
REMARK    4  A    between atoms: O_19  and  C_20
REMARK    5  A    between atoms: C_20  and  C_21
REMARK    6  A    between atoms: C_21  and  C_22
REMARK    7  A    between atoms: C_22  and  N_23
REMARK                            x       y       z     vdW  Elec       q    Type
REMARK                         _______ _______ _______ _____ _____    ______ ____
ROOT
ATOM      1  C   UNL     1       1.721   7.914  20.076  0.00  0.00    +0.000 A 
ATOM      2  C   UNL     1       1.162   9.074  20.605  0.00  0.00    +0.000 A 
ATOM      3  C   UNL     1       0.934  10.197  19.796  0.00  0.00    +0.000 A 
ATOM      4  C   UNL     1       1.361  10.169  18.462  0.00  0.00    +0.000 A 
ATOM      5  C   UNL     1       1.925   9.009  17.938  0.00  0.00    +0.000 A 
ATOM      6  C   UNL     1       2.062   7.863  18.727  0.00  0.00    +0.000 A 
ENDROOT
BRANCH   3   7
ATOM      7  C   UNL     1       0.022  11.289  20.309  0.00  0.00    +0.000 C 
ATOM      8  C   UNL     1      -1.338  11.414  19.618  0.00  0.00    +0.000 C 
ATOM      9  C   UNL     1      -2.200  12.505  20.258  0.00  0.00    +0.000 C 
ATOM     10  C   UNL     1      -2.290  12.437  21.803  0.00  0.00    +0.000 C 
ATOM     11  C   UNL     1      -0.918  12.175  22.455  0.00  0.00    +0.000 C 
ATOM     12  C   UNL     1      -0.190  11.018  21.805  0.00  0.00    +0.000 C 
BRANCH  10  13
ATOM     13  N   UNL     1      -2.974  13.540  22.510  0.00  0.00    +0.000 NA
ATOM     14  C   UNL     1      -3.032  13.431  23.963  0.00  0.00    +0.000 C 
ATOM     15  C   UNL     1      -4.164  12.550  24.490  0.00  0.00    +0.000 C 
ATOM     16  C   UNL     1      -5.504  12.723  23.767  0.00  0.00    +0.000 C 
ATOM     17  C   UNL     1      -5.427  13.116  22.295  0.00  0.00    +0.000 C 
ATOM     18  C   UNL     1      -4.249  14.028  21.990  0.00  0.00    +0.000 C 
ENDBRANCH  10  13
ENDBRANCH   3   7
BRANCH   6  19
ATOM     19  O   UNL     1       2.506   6.765  18.053  0.00  0.00    +0.000 OA
BRANCH  19  20
ATOM     20  C   UNL     1       3.860   6.809  17.597  0.00  0.00    +0.000 C 
BRANCH  20  21
ATOM     21  C   UNL     1       4.547   5.549  18.109  0.00  0.00    +0.000 C 
BRANCH  21  22
ATOM     22  C   UNL     1       3.958   4.275  17.505  0.00  0.00    +0.000 C 
BRANCH  22  23
ATOM     23  N   UNL     1       3.162   3.474  18.449  0.00  0.00    +0.000 NA
ATOM     24  C   UNL     1       3.359   3.899  19.846  0.00  0.00    +0.000 C 
ATOM     25  C   UNL     1       2.586   2.992  20.803  0.00  0.00    +0.000 C 
ATOM     26  C   UNL     1       1.101   2.951  20.458  0.00  0.00    +0.000 C 
ATOM     27  C   UNL     1       0.906   2.617  18.984  0.00  0.00    +0.000 C 
ATOM     28  C   UNL     1       1.736   3.534  18.088  0.00  0.00    +0.000 C 
ENDBRANCH  22  23
ENDBRANCH  21  22
ENDBRANCH  20  21
ENDBRANCH  19  20
ENDBRANCH   6  19
TORSDOF 7
ENDMDL
MODEL 6
REMARK VINA RESULT:      -7.3      1.272      1.929
REMARK  Name = 
REMARK  7 active torsions:
REMARK  status: ('A' for Active; 'I' for Inactive)
REMARK    1  A    between atoms: C_3  and  C_4
REMARK    2  A    between atoms: C_7  and  N_8
REMARK    3  A    between atoms: C_18  and  O_19
REMARK    4  A    between atoms: O_19  and  C_20
REMARK    5  A    between atoms: C_20  and  C_21
REMARK    6  A    between atoms: C_21  and  C_22
REMARK    7  A    between atoms: C_22  and  N_23
REMARK                            x       y       z     vdW  Elec       q    Type
REMARK                         _______ _______ _______ _____ _____    ______ ____
ROOT
ATOM      1  C   UNL     1       1.981   8.694  17.764  0.00  0.00    +0.000 A 
ATOM      2  C   UNL     1       1.338   9.566  18.638  0.00  0.00    +0.000 A 
ATOM      3  C   UNL     1       1.215   9.258  20.002  0.00  0.00    +0.000 A 
ATOM      4  C   UNL     1       1.670   8.015  20.459  0.00  0.00    +0.000 A 
ATOM      5  C   UNL     1       2.309   7.143  19.580  0.00  0.00    +0.000 A 
ATOM      6  C   UNL     1       2.510   7.499  18.244  0.00  0.00    +0.000 A 
ENDROOT
BRANCH   3   7
ATOM      7  C   UNL     1       0.833  10.361  20.963  0.00  0.00    +0.000 C 
ATOM      8  C   UNL     1       0.875  11.787  20.407  0.00  0.00    +0.000 C 
ATOM      9  C   UNL     1       0.411  12.813  21.444  0.00  0.00    +0.000 C 
ATOM     10  C   UNL     1      -0.919  12.459  22.155  0.00  0.00    +0.000 C 
ATOM     11  C   UNL     1      -0.977  10.979  22.580  0.00  0.00    +0.000 C 
ATOM     12  C   UNL     1      -0.587  10.047  21.453  0.00  0.00    +0.000 C 
BRANCH  10  13
ATOM     13  N   UNL     1      -1.358  13.316  23.276  0.00  0.00    +0.000 NA
ATOM     14  C   UNL     1      -2.705  13.071  23.781  0.00  0.00    +0.000 C 
ATOM     15  C   UNL     1      -3.816  13.749  22.982  0.00  0.00    +0.000 C 
ATOM     16  C   UNL     1      -3.509  15.184  22.539  0.00  0.00    +0.000 C 
ATOM     17  C   UNL     1      -2.039  15.505  22.280  0.00  0.00    +0.000 C 
ATOM     18  C   UNL     1      -1.100  14.753  23.210  0.00  0.00    +0.000 C 
ENDBRANCH  10  13
ENDBRANCH   3   7
BRANCH   6  19
ATOM     19  O   UNL     1       3.261   6.611  17.532  0.00  0.00    +0.000 OA
BRANCH  19  20
ATOM     20  C   UNL     1       4.220   5.858  18.277  0.00  0.00    +0.000 C 
BRANCH  20  21
ATOM     21  C   UNL     1       4.575   4.633  17.443  0.00  0.00    +0.000 C 
BRANCH  21  22
ATOM     22  C   UNL     1       3.904   3.360  17.956  0.00  0.00    +0.000 C 
BRANCH  22  23
ATOM     23  N   UNL     1       3.101   3.552  19.174  0.00  0.00    +0.000 NA
ATOM     24  C   UNL     1       1.654   3.507  18.900  0.00  0.00    +0.000 C 
ATOM     25  C   UNL     1       0.853   3.796  20.170  0.00  0.00    +0.000 C 
ATOM     26  C   UNL     1       1.218   2.831  21.293  0.00  0.00    +0.000 C 
ATOM     27  C   UNL     1       2.728   2.800  21.499  0.00  0.00    +0.000 C 
ATOM     28  C   UNL     1       3.466   2.547  20.186  0.00  0.00    +0.000 C 
ENDBRANCH  22  23
ENDBRANCH  21  22
ENDBRANCH  20  21
ENDBRANCH  19  20
ENDBRANCH   6  19
TORSDOF 7
ENDMDL
MODEL 7
REMARK VINA RESULT:      -7.3      6.273      7.954
REMARK  Name = 
REMARK  7 active torsions:
REMARK  status: ('A' for Active; 'I' for Inactive)
REMARK    1  A    between atoms: C_3  and  C_4
REMARK    2  A    between atoms: C_7  and  N_8
REMARK    3  A    between atoms: C_18  and  O_19
REMARK    4  A    between atoms: O_19  and  C_20
REMARK    5  A    between atoms: C_20  and  C_21
REMARK    6  A    between atoms: C_21  and  C_22
REMARK    7  A    between atoms: C_22  and  N_23
REMARK                            x       y       z     vdW  Elec       q    Type
REMARK                         _______ _______ _______ _____ _____    ______ ____
ROOT
ATOM      1  C   UNL     1       6.205   7.044  17.103  0.00  0.00    +0.000 A 
ATOM      2  C   UNL     1       6.774   8.300  17.306  0.00  0.00    +0.000 A 
ATOM      3  C   UNL     1       7.902   8.454  18.126  0.00  0.00    +0.000 A 
ATOM      4  C   UNL     1       8.399   7.339  18.812  0.00  0.00    +0.000 A 
ATOM      5  C   UNL     1       7.824   6.086  18.610  0.00  0.00    +0.000 A 
ATOM      6  C   UNL     1       6.759   5.926  17.720  0.00  0.00    +0.000 A 
ENDROOT
BRANCH   3   7
ATOM      7  C   UNL     1       8.687   9.744  18.043  0.00  0.00    +0.000 C 
ATOM      8  C   UNL     1       7.906  10.983  17.600  0.00  0.00    +0.000 C 
ATOM      9  C   UNL     1       8.781  12.239  17.614  0.00  0.00    +0.000 C 
ATOM     10  C   UNL     1       9.596  12.447  18.915  0.00  0.00    +0.000 C 
ATOM     11  C   UNL     1      10.258  11.144  19.402  0.00  0.00    +0.000 C 
ATOM     12  C   UNL     1       9.282   9.988  19.437  0.00  0.00    +0.000 C 
BRANCH  10  13
ATOM     13  N   UNL     1      10.581  13.548  18.950  0.00  0.00    +0.000 NA
ATOM     14  C   UNL     1      11.213  13.802  20.240  0.00  0.00    +0.000 C 
ATOM     15  C   UNL     1      10.388  14.667  21.193  0.00  0.00    +0.000 C 
ATOM     16  C   UNL     1       9.685  15.859  20.535  0.00  0.00    +0.000 C 
ATOM     17  C   UNL     1       9.273  15.674  19.077  0.00  0.00    +0.000 C 
ATOM     18  C   UNL     1      10.251  14.812  18.294  0.00  0.00    +0.000 C 
ENDBRANCH  10  13
ENDBRANCH   3   7
BRANCH   6  19
ATOM     19  O   UNL     1       6.382   4.631  17.521  0.00  0.00    +0.000 OA
BRANCH  19  20
ATOM     20  C   UNL     1       5.557   4.383  16.381  0.00  0.00    +0.000 C 
BRANCH  20  21
ATOM     21  C   UNL     1       4.203   3.914  16.900  0.00  0.00    +0.000 C 
BRANCH  21  22
ATOM     22  C   UNL     1       4.324   3.033  18.142  0.00  0.00    +0.000 C 
BRANCH  22  23
ATOM     23  N   UNL     1       3.432   3.422  19.245  0.00  0.00    +0.000 NA
ATOM     24  C   UNL     1       2.925   4.797  19.094  0.00  0.00    +0.000 C 
ATOM     25  C   UNL     1       2.073   5.196  20.300  0.00  0.00    +0.000 C 
ATOM     26  C   UNL     1       0.922   4.221  20.518  0.00  0.00    +0.000 C 
ATOM     27  C   UNL     1       1.440   2.788  20.564  0.00  0.00    +0.000 C 
ATOM     28  C   UNL     1       2.315   2.470  19.353  0.00  0.00    +0.000 C 
ENDBRANCH  22  23
ENDBRANCH  21  22
ENDBRANCH  20  21
ENDBRANCH  19  20
ENDBRANCH   6  19
TORSDOF 7
ENDMDL
MODEL 8
REMARK VINA RESULT:      -7.2      1.702      2.519
REMARK  Name = 
REMARK  7 active torsions:
REMARK  status: ('A' for Active; 'I' for Inactive)
REMARK    1  A    between atoms: C_3  and  C_4
REMARK    2  A    between atoms: C_7  and  N_8
REMARK    3  A    between atoms: C_18  and  O_19
REMARK    4  A    between atoms: O_19  and  C_20
REMARK    5  A    between atoms: C_20  and  C_21
REMARK    6  A    between atoms: C_21  and  C_22
REMARK    7  A    between atoms: C_22  and  N_23
REMARK                            x       y       z     vdW  Elec       q    Type
REMARK                         _______ _______ _______ _____ _____    ______ ____
ROOT
ATOM      1  C   UNL     1       3.432   7.437  17.503  0.00  0.00    +0.000 A 
ATOM      2  C   UNL     1       2.448   8.382  17.783  0.00  0.00    +0.000 A 
ATOM      3  C   UNL     1       1.741   8.347  18.994  0.00  0.00    +0.000 A 
ATOM      4  C   UNL     1       1.973   7.291  19.885  0.00  0.00    +0.000 A 
ATOM      5  C   UNL     1       2.954   6.345  19.598  0.00  0.00    +0.000 A 
ATOM      6  C   UNL     1       3.719   6.441  18.432  0.00  0.00    +0.000 A 
ENDROOT
BRANCH   3   7
ATOM      7  C   UNL     1       0.948   9.567  19.407  0.00  0.00    +0.000 C 
ATOM      8  C   UNL     1       0.956   9.905  20.900  0.00  0.00    +0.000 C 
ATOM      9  C   UNL     1       0.178  11.190  21.193  0.00  0.00    +0.000 C 
ATOM     10  C   UNL     1       0.536  12.388  20.280  0.00  0.00    +0.000 C 
ATOM     11  C   UNL     1       0.650  11.978  18.799  0.00  0.00    +0.000 C 
ATOM     12  C   UNL     1       1.516  10.751  18.613  0.00  0.00    +0.000 C 
BRANCH  10  13
ATOM     13  N   UNL     1      -0.276  13.618  20.394  0.00  0.00    +0.000 NA
ATOM     14  C   UNL     1      -0.137  14.581  19.307  0.00  0.00    +0.000 C 
ATOM     15  C   UNL     1       1.071  15.509  19.432  0.00  0.00    +0.000 C 
ATOM     16  C   UNL     1       1.335  16.037  20.845  0.00  0.00    +0.000 C 
ATOM     17  C   UNL     1       0.921  15.120  21.993  0.00  0.00    +0.000 C 
ATOM     18  C   UNL     1      -0.329  14.313  21.678  0.00  0.00    +0.000 C 
ENDBRANCH  10  13
ENDBRANCH   3   7
BRANCH   6  19
ATOM     19  O   UNL     1       4.728   5.527  18.344  0.00  0.00    +0.000 OA
BRANCH  19  20
ATOM     20  C   UNL     1       4.865   4.861  17.088  0.00  0.00    +0.000 C 
BRANCH  20  21
ATOM     21  C   UNL     1       3.712   3.870  16.977  0.00  0.00    +0.000 C 
BRANCH  21  22
ATOM     22  C   UNL     1       3.942   2.608  17.806  0.00  0.00    +0.000 C 
BRANCH  22  23
ATOM     23  N   UNL     1       2.995   2.437  18.918  0.00  0.00    +0.000 NA
ATOM     24  C   UNL     1       3.576   2.834  20.212  0.00  0.00    +0.000 C 
ATOM     25  C   UNL     1       2.596   2.562  21.353  0.00  0.00    +0.000 C 
ATOM     26  C   UNL     1       1.262   3.265  21.124  0.00  0.00    +0.000 C 
ATOM     27  C   UNL     1       0.717   2.935  19.739  0.00  0.00    +0.000 C 
ATOM     28  C   UNL     1       1.760   3.193  18.653  0.00  0.00    +0.000 C 
ENDBRANCH  22  23
ENDBRANCH  21  22
ENDBRANCH  20  21
ENDBRANCH  19  20
ENDBRANCH   6  19
TORSDOF 7
ENDMDL
MODEL 9
REMARK VINA RESULT:      -7.2      2.435      3.997
REMARK  Name = 
REMARK  7 active torsions:
REMARK  status: ('A' for Active; 'I' for Inactive)
REMARK    1  A    between atoms: C_3  and  C_4
REMARK    2  A    between atoms: C_7  and  N_8
REMARK    3  A    between atoms: C_18  and  O_19
REMARK    4  A    between atoms: O_19  and  C_20
REMARK    5  A    between atoms: C_20  and  C_21
REMARK    6  A    between atoms: C_21  and  C_22
REMARK    7  A    between atoms: C_22  and  N_23
REMARK                            x       y       z     vdW  Elec       q    Type
REMARK                         _______ _______ _______ _____ _____    ______ ____
ROOT
ATOM      1  C   UNL     1       1.489   8.205  20.268  0.00  0.00    +0.000 A 
ATOM      2  C   UNL     1       0.575   9.226  20.016  0.00  0.00    +0.000 A 
ATOM      3  C   UNL     1       0.448   9.778  18.733  0.00  0.00    +0.000 A 
ATOM      4  C   UNL     1       1.318   9.351  17.722  0.00  0.00    +0.000 A 
ATOM      5  C   UNL     1       2.235   8.334  17.979  0.00  0.00    +0.000 A 
ATOM      6  C   UNL     1       2.290   7.725  19.236  0.00  0.00    +0.000 A 
ENDROOT
BRANCH   3   7
ATOM      7  C   UNL     1      -0.771  10.617  18.421  0.00  0.00    +0.000 C 
ATOM      8  C   UNL     1      -1.850   9.950  17.564  0.00  0.00    +0.000 C 
ATOM      9  C   UNL     1      -3.061  10.865  17.366  0.00  0.00    +0.000 C 
ATOM     10  C   UNL     1      -3.606  11.510  18.665  0.00  0.00    +0.000 C 
ATOM     11  C   UNL     1      -2.478  12.050  19.565  0.00  0.00    +0.000 C 
ATOM     12  C   UNL     1      -1.376  11.033  19.769  0.00  0.00    +0.000 C 
BRANCH  10  13
ATOM     13  N   UNL     1      -4.674  12.524  18.543  0.00  0.00    +0.000 NA
ATOM     14  C   UNL     1      -5.189  13.066  19.796  0.00  0.00    +0.000 C 
ATOM     15  C   UNL     1      -6.251  12.201  20.474  0.00  0.00    +0.000 C 
ATOM     16  C   UNL     1      -7.285  11.587  19.524  0.00  0.00    +0.000 C 
ATOM     17  C   UNL     1      -6.797  11.279  18.111  0.00  0.00    +0.000 C 
ATOM     18  C   UNL     1      -5.772  12.285  17.610  0.00  0.00    +0.000 C 
ENDBRANCH  10  13
ENDBRANCH   3   7
BRANCH   6  19
ATOM     19  O   UNL     1       3.139   6.660  19.308  0.00  0.00    +0.000 OA
BRANCH  19  20
ATOM     20  C   UNL     1       2.691   5.455  18.686  0.00  0.00    +0.000 C 
BRANCH  20  21
ATOM     21  C   UNL     1       3.221   4.295  19.521  0.00  0.00    +0.000 C 
BRANCH  21  22
ATOM     22  C   UNL     1       4.552   3.757  18.998  0.00  0.00    +0.000 C 
BRANCH  22  23
ATOM     23  N   UNL     1       5.130   4.546  17.900  0.00  0.00    +0.000 NA
ATOM     24  C   UNL     1       6.529   4.926  18.161  0.00  0.00    +0.000 C 
ATOM     25  C   UNL     1       7.069   5.816  17.041  0.00  0.00    +0.000 C 
ATOM     26  C   UNL     1       6.941   5.141  15.680  0.00  0.00    +0.000 C 
ATOM     27  C   UNL     1       5.514   4.653  15.460  0.00  0.00    +0.000 C 
ATOM     28  C   UNL     1       5.025   3.804  16.632  0.00  0.00    +0.000 C 
ENDBRANCH  22  23
ENDBRANCH  21  22
ENDBRANCH  20  21
ENDBRANCH  19  20
ENDBRANCH   6  19
TORSDOF 7
ENDMDL
