MODEL 1
REMARK VINA RESULT:      -7.9      0.000      0.000
REMARK  Name = 
REMARK  5 active torsions:
REMARK  status: ('A' for Active; 'I' for Inactive)
REMARK    1  A    between atoms: C_2  and  C_3
REMARK    2  A    between atoms: C_3  and  C_16
REMARK    3  A    between atoms: C_4  and  C_5
REMARK    4  A    between atoms: C_8  and  O_9
REMARK    5  A    between atoms: O_9  and  C_10
REMARK                            x       y       z     vdW  Elec       q    Type
REMARK                         _______ _______ _______ _____ _____    ______ ____
ROOT
ATOM      1  C   UNL     1       2.605   6.332  18.364  0.00  0.00    +0.000 C 
ATOM      2  C   UNL     1       3.821   6.638  17.841  0.00  0.00    +0.000 C 
ENDROOT
BRANCH   1   3
ATOM      3  C   UNL     1       2.071   7.350  19.204  0.00  0.00    +0.000 A 
ATOM      4  N   UNL     1       1.783   7.216  20.494  0.00  0.00    +0.000 NA
ATOM      5  C   UNL     1       1.251   8.392  20.911  0.00  0.00    +0.000 A 
ATOM      6  C   UNL     1       0.761   8.732  22.178  0.00  0.00    +0.000 A 
ATOM      7  C   UNL     1       0.225  10.007  22.363  0.00  0.00    +0.000 A 
ATOM      8  C   UNL     1       0.189  10.917  21.303  0.00  0.00    +0.000 A 
ATOM      9  C   UNL     1       0.690  10.591  20.030  0.00  0.00    +0.000 A 
ATOM     10  C   UNL     1       1.216   9.306  19.864  0.00  0.00    +0.000 A 
ATOM     11  N   UNL     1       1.776   8.630  18.791  0.00  0.00    +0.000 N 
ATOM     12  H   UNL     1       1.912   9.013  17.870  0.00  0.00    +0.000 HD
ENDBRANCH   1   3
BRANCH   2  13
ATOM     13  C   UNL     1       4.554   5.871  16.834  0.00  0.00    +0.000 A 
ATOM     14  C   UNL     1       4.799   4.515  17.060  0.00  0.00    +0.000 A 
ATOM     15  C   UNL     1       5.460   3.757  16.093  0.00  0.00    +0.000 A 
ATOM     16  C   UNL     1       5.867   4.339  14.891  0.00  0.00    +0.000 A 
ATOM     17  C   UNL     1       5.669   5.705  14.690  0.00  0.00    +0.000 A 
ATOM     18  C   UNL     1       4.997   6.468  15.652  0.00  0.00    +0.000 A 
BRANCH  16  19
ATOM     19  O   UNL     1       6.486   3.485  14.031  0.00  0.00    +0.000 OA
BRANCH  19  20
ATOM     20  C   UNL     1       6.097   3.471  12.666  0.00  0.00    +0.000 C 
ATOM     21  F   UNL     1       4.807   3.796  12.449  0.00  0.00    +0.000 F 
ATOM     22  F   UNL     1       6.885   4.319  11.970  0.00  0.00    +0.000 F 
ATOM     23  F   UNL     1       6.293   2.222  12.181  0.00  0.00    +0.000 F 
ENDBRANCH  19  20
ENDBRANCH  16  19
ENDBRANCH   2  13
BRANCH   1  25
ATOM     24  N   UNL     1       1.485   3.951  17.466  0.00  0.00    +0.000 NA
ATOM     25  C   UNL     1       1.993   5.030  17.873  0.00  0.00    +0.000 C 
ENDBRANCH   1  25
TORSDOF 5
ENDMDL
MODEL 2
REMARK VINA RESULT:      -7.8      0.135      1.190
REMARK  Name = 
REMARK  5 active torsions:
REMARK  status: ('A' for Active; 'I' for Inactive)
REMARK    1  A    between atoms: C_2  and  C_3
REMARK    2  A    between atoms: C_3  and  C_16
REMARK    3  A    between atoms: C_4  and  C_5
REMARK    4  A    between atoms: C_8  and  O_9
REMARK    5  A    between atoms: O_9  and  C_10
REMARK                            x       y       z     vdW  Elec       q    Type
REMARK                         _______ _______ _______ _____ _____    ______ ____
ROOT
ATOM      1  C   UNL     1       2.613   6.292  18.333  0.00  0.00    +0.000 C 
ATOM      2  C   UNL     1       3.820   6.623  17.804  0.00  0.00    +0.000 C 
ENDROOT
BRANCH   1   3
ATOM      3  C   UNL     1       2.058   7.303  19.168  0.00  0.00    +0.000 A 
ATOM      4  N   UNL     1       1.677   8.512  18.771  0.00  0.00    +0.000 NA
ATOM      5  C   UNL     1       1.255   9.182  19.872  0.00  0.00    +0.000 A 
ATOM      6  C   UNL     1       0.792  10.500  19.973  0.00  0.00    +0.000 A 
ATOM      7  C   UNL     1       0.441  10.987  21.232  0.00  0.00    +0.000 A 
ATOM      8  C   UNL     1       0.548  10.168  22.359  0.00  0.00    +0.000 A 
ATOM      9  C   UNL     1       0.999   8.838  22.269  0.00  0.00    +0.000 A 
ATOM     10  C   UNL     1       1.352   8.373  20.999  0.00  0.00    +0.000 A 
ATOM     11  N   UNL     1       1.836   7.165  20.521  0.00  0.00    +0.000 N 
ATOM     12  H   UNL     1       2.014   6.348  21.080  0.00  0.00    +0.000 HD
ENDBRANCH   1   3
BRANCH   2  13
ATOM     13  C   UNL     1       4.568   5.867  16.800  0.00  0.00    +0.000 A 
ATOM     14  C   UNL     1       4.826   4.513  17.025  0.00  0.00    +0.000 A 
ATOM     15  C   UNL     1       5.502   3.765  16.061  0.00  0.00    +0.000 A 
ATOM     16  C   UNL     1       5.910   4.354  14.863  0.00  0.00    +0.000 A 
ATOM     17  C   UNL     1       5.698   5.718  14.662  0.00  0.00    +0.000 A 
ATOM     18  C   UNL     1       5.011   6.471  15.622  0.00  0.00    +0.000 A 
BRANCH  16  19
ATOM     19  O   UNL     1       6.544   3.509  14.005  0.00  0.00    +0.000 OA
BRANCH  19  20
ATOM     20  C   UNL     1       6.152   3.480  12.640  0.00  0.00    +0.000 C 
ATOM     21  F   UNL     1       4.843   3.730  12.430  0.00  0.00    +0.000 F 
ATOM     22  F   UNL     1       6.885   4.377  11.947  0.00  0.00    +0.000 F 
ATOM     23  F   UNL     1       6.419   2.248  12.147  0.00  0.00    +0.000 F 
ENDBRANCH  19  20
ENDBRANCH  16  19
ENDBRANCH   2  13
BRANCH   1  25
ATOM     24  N   UNL     1       1.548   3.878  17.458  0.00  0.00    +0.000 NA
ATOM     25  C   UNL     1       2.031   4.972  17.854  0.00  0.00    +0.000 C 
ENDBRANCH   1  25
TORSDOF 5
ENDMDL
MODEL 3
REMARK VINA RESULT:      -7.7      0.199      1.734
REMARK  Name = 
REMARK  5 active torsions:
REMARK  status: ('A' for Active; 'I' for Inactive)
REMARK    1  A    between atoms: C_2  and  C_3
REMARK    2  A    between atoms: C_3  and  C_16
REMARK    3  A    between atoms: C_4  and  C_5
REMARK    4  A    between atoms: C_8  and  O_9
REMARK    5  A    between atoms: O_9  and  C_10
REMARK                            x       y       z     vdW  Elec       q    Type
REMARK                         _______ _______ _______ _____ _____    ______ ____
ROOT
ATOM      1  C   UNL     1       2.575   6.264  18.343  0.00  0.00    +0.000 C 
ATOM      2  C   UNL     1       3.803   6.552  17.838  0.00  0.00    +0.000 C 
ENDROOT
BRANCH   1   3
ATOM      3  C   UNL     1       2.040   7.294  19.169  0.00  0.00    +0.000 A 
ATOM      4  N   UNL     1       1.682   8.505  18.760  0.00  0.00    +0.000 NA
ATOM      5  C   UNL     1       1.275   9.194  19.855  0.00  0.00    +0.000 A 
ATOM      6  C   UNL     1       0.837  10.522  19.944  0.00  0.00    +0.000 A 
ATOM      7  C   UNL     1       0.497  11.028  21.198  0.00  0.00    +0.000 A 
ATOM      8  C   UNL     1       0.589  10.218  22.333  0.00  0.00    +0.000 A 
ATOM      9  C   UNL     1       1.016   8.880  22.255  0.00  0.00    +0.000 A 
ATOM     10  C   UNL     1       1.358   8.395  20.989  0.00  0.00    +0.000 A 
ATOM     11  N   UNL     1       1.818   7.173  20.523  0.00  0.00    +0.000 N 
ATOM     12  H   UNL     1       1.981   6.358  21.090  0.00  0.00    +0.000 HD
ENDBRANCH   1   3
BRANCH   2  13
ATOM     13  C   UNL     1       4.543   5.770  16.847  0.00  0.00    +0.000 A 
ATOM     14  C   UNL     1       5.020   6.407  15.700  0.00  0.00    +0.000 A 
ATOM     15  C   UNL     1       5.763   5.688  14.764  0.00  0.00    +0.000 A 
ATOM     16  C   UNL     1       6.047   4.337  14.970  0.00  0.00    +0.000 A 
ATOM     17  C   UNL     1       5.525   3.689  16.090  0.00  0.00    +0.000 A 
ATOM     18  C   UNL     1       4.789   4.409  17.038  0.00  0.00    +0.000 A 
BRANCH  16  19
ATOM     19  O   UNL     1       6.793   3.760  13.988  0.00  0.00    +0.000 OA
BRANCH  19  20
ATOM     20  C   UNL     1       6.212   3.545  12.710  0.00  0.00    +0.000 C 
ATOM     21  F   UNL     1       6.351   2.289  12.238  0.00  0.00    +0.000 F 
ATOM     22  F   UNL     1       4.898   3.850  12.761  0.00  0.00    +0.000 F 
ATOM     23  F   UNL     1       6.804   4.383  11.828  0.00  0.00    +0.000 F 
ENDBRANCH  19  20
ENDBRANCH  16  19
ENDBRANCH   2  13
BRANCH   1  25
ATOM     24  N   UNL     1       1.442   3.891  17.443  0.00  0.00    +0.000 NA
ATOM     25  C   UNL     1       1.955   4.967  17.851  0.00  0.00    +0.000 C 
ENDBRANCH   1  25
TORSDOF 5
ENDMDL
MODEL 4
REMARK VINA RESULT:      -7.7      1.206      2.104
REMARK  Name = 
REMARK  5 active torsions:
REMARK  status: ('A' for Active; 'I' for Inactive)
REMARK    1  A    between atoms: C_2  and  C_3
REMARK    2  A    between atoms: C_3  and  C_16
REMARK    3  A    between atoms: C_4  and  C_5
REMARK    4  A    between atoms: C_8  and  O_9
REMARK    5  A    between atoms: O_9  and  C_10
REMARK                            x       y       z     vdW  Elec       q    Type
REMARK                         _______ _______ _______ _____ _____    ______ ____
ROOT
ATOM      1  C   UNL     1       2.663   6.652  19.569  0.00  0.00    +0.000 C 
ATOM      2  C   UNL     1       3.198   6.984  18.365  0.00  0.00    +0.000 C 
ENDROOT
BRANCH   1   3
ATOM      3  C   UNL     1       1.856   7.677  20.139  0.00  0.00    +0.000 A 
ATOM      4  N   UNL     1       1.408   8.753  19.502  0.00  0.00    +0.000 NA
ATOM      5  C   UNL     1       0.726   9.500  20.405  0.00  0.00    +0.000 A 
ATOM      6  C   UNL     1       0.099  10.739  20.224  0.00  0.00    +0.000 A 
ATOM      7  C   UNL     1      -0.519  11.339  21.321  0.00  0.00    +0.000 A 
ATOM      8  C   UNL     1      -0.512  10.705  22.567  0.00  0.00    +0.000 A 
ATOM      9  C   UNL     1       0.104   9.455  22.758  0.00  0.00    +0.000 A 
ATOM     10  C   UNL     1       0.723   8.875  21.647  0.00  0.00    +0.000 A 
ATOM     11  N   UNL     1       1.423   7.695  21.446  0.00  0.00    +0.000 N 
ATOM     12  H   UNL     1       1.598   6.996  22.148  0.00  0.00    +0.000 HD
ENDBRANCH   1   3
BRANCH   2  13
ATOM     13  C   UNL     1       3.943   6.099  17.469  0.00  0.00    +0.000 A 
ATOM     14  C   UNL     1       5.059   6.599  16.796  0.00  0.00    +0.000 A 
ATOM     15  C   UNL     1       5.806   5.759  15.969  0.00  0.00    +0.000 A 
ATOM     16  C   UNL     1       5.456   4.416  15.819  0.00  0.00    +0.000 A 
ATOM     17  C   UNL     1       4.310   3.932  16.450  0.00  0.00    +0.000 A 
ATOM     18  C   UNL     1       3.563   4.767  17.289  0.00  0.00    +0.000 A 
BRANCH  16  19
ATOM     19  O   UNL     1       6.277   3.707  14.997  0.00  0.00    +0.000 OA
BRANCH  19  20
ATOM     20  C   UNL     1       6.164   3.871  13.591  0.00  0.00    +0.000 C 
ATOM     21  F   UNL     1       6.421   2.756  12.877  0.00  0.00    +0.000 F 
ATOM     22  F   UNL     1       4.921   4.304  13.292  0.00  0.00    +0.000 F 
ATOM     23  F   UNL     1       7.045   4.821  13.201  0.00  0.00    +0.000 F 
ENDBRANCH  19  20
ENDBRANCH  16  19
ENDBRANCH   2  13
BRANCH   1  25
ATOM     24  N   UNL     1       3.144   4.046  20.410  0.00  0.00    +0.000 NA
ATOM     25  C   UNL     1       2.926   5.227  20.029  0.00  0.00    +0.000 C 
ENDBRANCH   1  25
TORSDOF 5
ENDMDL
MODEL 5
REMARK VINA RESULT:      -7.7      1.182      1.865
REMARK  Name = 
REMARK  5 active torsions:
REMARK  status: ('A' for Active; 'I' for Inactive)
REMARK    1  A    between atoms: C_2  and  C_3
REMARK    2  A    between atoms: C_3  and  C_16
REMARK    3  A    between atoms: C_4  and  C_5
REMARK    4  A    between atoms: C_8  and  O_9
REMARK    5  A    between atoms: O_9  and  C_10
REMARK                            x       y       z     vdW  Elec       q    Type
REMARK                         _______ _______ _______ _____ _____    ______ ____
ROOT
ATOM      1  C   UNL     1       2.789   6.594  19.512  0.00  0.00    +0.000 C 
ATOM      2  C   UNL     1       3.367   6.959  18.337  0.00  0.00    +0.000 C 
ENDROOT
BRANCH   1   3
ATOM      3  C   UNL     1       1.940   7.593  20.067  0.00  0.00    +0.000 A 
ATOM      4  N   UNL     1       1.479   8.660  19.425  0.00  0.00    +0.000 NA
ATOM      5  C   UNL     1       0.754   9.382  20.315  0.00  0.00    +0.000 A 
ATOM      6  C   UNL     1       0.098  10.604  20.125  0.00  0.00    +0.000 A 
ATOM      7  C   UNL     1      -0.564  11.180  21.210  0.00  0.00    +0.000 A 
ATOM      8  C   UNL     1      -0.570  10.539  22.452  0.00  0.00    +0.000 A 
ATOM      9  C   UNL     1       0.075   9.305  22.652  0.00  0.00    +0.000 A 
ATOM     10  C   UNL     1       0.737   8.749  21.553  0.00  0.00    +0.000 A 
ATOM     11  N   UNL     1       1.474   7.591  21.363  0.00  0.00    +0.000 N 
ATOM     12  H   UNL     1       1.650   6.892  22.066  0.00  0.00    +0.000 HD
ENDBRANCH   1   3
BRANCH   2  13
ATOM     13  C   UNL     1       4.164   6.105  17.456  0.00  0.00    +0.000 A 
ATOM     14  C   UNL     1       3.706   4.819  17.163  0.00  0.00    +0.000 A 
ATOM     15  C   UNL     1       4.431   4.005  16.292  0.00  0.00    +0.000 A 
ATOM     16  C   UNL     1       5.605   4.470  15.698  0.00  0.00    +0.000 A 
ATOM     17  C   UNL     1       6.088   5.735  16.032  0.00  0.00    +0.000 A 
ATOM     18  C   UNL     1       5.359   6.560  16.897  0.00  0.00    +0.000 A 
BRANCH  16  19
ATOM     19  O   UNL     1       6.203   3.581  14.858  0.00  0.00    +0.000 OA
BRANCH  19  20
ATOM     20  C   UNL     1       6.111   3.779  13.455  0.00  0.00    +0.000 C 
ATOM     21  F   UNL     1       6.298   2.664  12.721  0.00  0.00    +0.000 F 
ATOM     22  F   UNL     1       4.903   4.302  13.157  0.00  0.00    +0.000 F 
ATOM     23  F   UNL     1       7.058   4.675  13.090  0.00  0.00    +0.000 F 
ENDBRANCH  19  20
ENDBRANCH  16  19
ENDBRANCH   2  13
BRANCH   1  25
ATOM     24  N   UNL     1       3.284   3.981  20.323  0.00  0.00    +0.000 NA
ATOM     25  C   UNL     1       3.060   5.165  19.956  0.00  0.00    +0.000 C 
ENDBRANCH   1  25
TORSDOF 5
ENDMDL
MODEL 6
REMARK VINA RESULT:      -7.7      5.575      6.825
REMARK  Name = 
REMARK  5 active torsions:
REMARK  status: ('A' for Active; 'I' for Inactive)
REMARK    1  A    between atoms: C_2  and  C_3
REMARK    2  A    between atoms: C_3  and  C_16
REMARK    3  A    between atoms: C_4  and  C_5
REMARK    4  A    between atoms: C_8  and  O_9
REMARK    5  A    between atoms: O_9  and  C_10
REMARK                            x       y       z     vdW  Elec       q    Type
REMARK                         _______ _______ _______ _____ _____    ______ ____
ROOT
ATOM      1  C   UNL     1       7.751   7.616  18.304  0.00  0.00    +0.000 C 
ATOM      2  C   UNL     1       6.651   7.567  17.509  0.00  0.00    +0.000 C 
ENDROOT
BRANCH   1   3
ATOM      3  C   UNL     1       8.332   8.912  18.397  0.00  0.00    +0.000 A 
ATOM      4  N   UNL     1       8.030   9.953  17.629  0.00  0.00    +0.000 NA
ATOM      5  C   UNL     1       8.837  10.976  18.002  0.00  0.00    +0.000 A 
ATOM      6  C   UNL     1       8.922  12.268  17.467  0.00  0.00    +0.000 A 
ATOM      7  C   UNL     1       9.862  13.149  18.000  0.00  0.00    +0.000 A 
ATOM      8  C   UNL     1      10.692  12.744  19.049  0.00  0.00    +0.000 A 
ATOM      9  C   UNL     1      10.608  11.453  19.604  0.00  0.00    +0.000 A 
ATOM     10  C   UNL     1       9.664  10.584  19.050  0.00  0.00    +0.000 A 
ATOM     11  N   UNL     1       9.301   9.272  19.308  0.00  0.00    +0.000 N 
ATOM     12  H   UNL     1       9.702   8.688  20.023  0.00  0.00    +0.000 HD
ENDBRANCH   1   3
BRANCH   2  13
ATOM     13  C   UNL     1       5.754   6.424  17.333  0.00  0.00    +0.000 A 
ATOM     14  C   UNL     1       4.500   6.446  17.947  0.00  0.00    +0.000 A 
ATOM     15  C   UNL     1       3.615   5.385  17.757  0.00  0.00    +0.000 A 
ATOM     16  C   UNL     1       3.965   4.305  16.945  0.00  0.00    +0.000 A 
ATOM     17  C   UNL     1       5.238   4.260  16.376  0.00  0.00    +0.000 A 
ATOM     18  C   UNL     1       6.126   5.327  16.554  0.00  0.00    +0.000 A 
BRANCH  16  19
ATOM     19  O   UNL     1       3.004   3.347  16.834  0.00  0.00    +0.000 OA
BRANCH  19  20
ATOM     20  C   UNL     1       2.840   2.402  17.880  0.00  0.00    +0.000 C 
ATOM     21  F   UNL     1       3.200   2.851  19.100  0.00  0.00    +0.000 F 
ATOM     22  F   UNL     1       1.550   2.005  17.923  0.00  0.00    +0.000 F 
ATOM     23  F   UNL     1       3.604   1.320  17.600  0.00  0.00    +0.000 F 
ENDBRANCH  19  20
ENDBRANCH  16  19
ENDBRANCH   2  13
BRANCH   1  25
ATOM     24  N   UNL     1       8.372   5.253  19.630  0.00  0.00    +0.000 NA
ATOM     25  C   UNL     1       8.091   6.324  19.029  0.00  0.00    +0.000 C 
ENDBRANCH   1  25
TORSDOF 5
ENDMDL
MODEL 7
REMARK VINA RESULT:      -7.6      5.654      6.914
REMARK  Name = 
REMARK  5 active torsions:
REMARK  status: ('A' for Active; 'I' for Inactive)
REMARK    1  A    between atoms: C_2  and  C_3
REMARK    2  A    between atoms: C_3  and  C_16
REMARK    3  A    between atoms: C_4  and  C_5
REMARK    4  A    between atoms: C_8  and  O_9
REMARK    5  A    between atoms: O_9  and  C_10
REMARK                            x       y       z     vdW  Elec       q    Type
REMARK                         _______ _______ _______ _____ _____    ______ ____
ROOT
ATOM      1  C   UNL     1       7.809   7.858  18.255  0.00  0.00    +0.000 C 
ATOM      2  C   UNL     1       6.722   7.881  17.441  0.00  0.00    +0.000 C 
ENDROOT
BRANCH   1   3
ATOM      3  C   UNL     1       8.446   9.123  18.395  0.00  0.00    +0.000 A 
ATOM      4  N   UNL     1       8.271  10.170  17.597  0.00  0.00    +0.000 NA
ATOM      5  C   UNL     1       9.093  11.154  18.039  0.00  0.00    +0.000 A 
ATOM      6  C   UNL     1       9.294  12.434  17.507  0.00  0.00    +0.000 A 
ATOM      7  C   UNL     1      10.227  13.271  18.121  0.00  0.00    +0.000 A 
ATOM      8  C   UNL     1      10.934  12.833  19.244  0.00  0.00    +0.000 A 
ATOM      9  C   UNL     1      10.732  11.554  19.794  0.00  0.00    +0.000 A 
ATOM     10  C   UNL     1       9.798  10.730  19.160  0.00  0.00    +0.000 A 
ATOM     11  N   UNL     1       9.345   9.440  19.390  0.00  0.00    +0.000 N 
ATOM     12  H   UNL     1       9.647   8.843  20.141  0.00  0.00    +0.000 HD
ENDBRANCH   1   3
BRANCH   2  13
ATOM     13  C   UNL     1       5.777   6.786  17.217  0.00  0.00    +0.000 A 
ATOM     14  C   UNL     1       6.172   5.701  16.432  0.00  0.00    +0.000 A 
ATOM     15  C   UNL     1       5.301   4.628  16.241  0.00  0.00    +0.000 A 
ATOM     16  C   UNL     1       4.040   4.622  16.841  0.00  0.00    +0.000 A 
ATOM     17  C   UNL     1       3.628   5.731  17.581  0.00  0.00    +0.000 A 
ATOM     18  C   UNL     1       4.502   6.805  17.785  0.00  0.00    +0.000 A 
BRANCH  16  19
ATOM     19  O   UNL     1       3.299   3.510  16.585  0.00  0.00    +0.000 OA
BRANCH  19  20
ATOM     20  C   UNL     1       2.580   2.895  17.644  0.00  0.00    +0.000 C 
ATOM     21  F   UNL     1       3.221   2.902  18.831  0.00  0.00    +0.000 F 
ATOM     22  F   UNL     1       1.386   3.508  17.787  0.00  0.00    +0.000 F 
ATOM     23  F   UNL     1       2.352   1.603  17.309  0.00  0.00    +0.000 F 
ENDBRANCH  19  20
ENDBRANCH  16  19
ENDBRANCH   2  13
BRANCH   1  25
ATOM     24  N   UNL     1       8.299   5.432  19.522  0.00  0.00    +0.000 NA
ATOM     25  C   UNL     1       8.077   6.532  18.948  0.00  0.00    +0.000 C 
ENDBRANCH   1  25
TORSDOF 5
ENDMDL
MODEL 8
REMARK VINA RESULT:      -7.6      1.585      2.473
REMARK  Name = 
REMARK  5 active torsions:
REMARK  status: ('A' for Active; 'I' for Inactive)
REMARK    1  A    between atoms: C_2  and  C_3
REMARK    2  A    between atoms: C_3  and  C_16
REMARK    3  A    between atoms: C_4  and  C_5
REMARK    4  A    between atoms: C_8  and  O_9
REMARK    5  A    between atoms: O_9  and  C_10
REMARK                            x       y       z     vdW  Elec       q    Type
REMARK                         _______ _______ _______ _____ _____    ______ ____
ROOT
ATOM      1  C   UNL     1       1.991   7.089  20.222  0.00  0.00    +0.000 C 
ATOM      2  C   UNL     1       2.593   7.332  19.029  0.00  0.00    +0.000 C 
ENDROOT
BRANCH   1   3
ATOM      3  C   UNL     1       1.236   8.190  20.718  0.00  0.00    +0.000 A 
ATOM      4  N   UNL     1       0.822   8.343  21.970  0.00  0.00    +0.000 NA
ATOM      5  C   UNL     1       0.097   9.489  22.016  0.00  0.00    +0.000 A 
ATOM      6  C   UNL     1      -0.576  10.058  23.104  0.00  0.00    +0.000 A 
ATOM      7  C   UNL     1      -1.291  11.238  22.901  0.00  0.00    +0.000 A 
ATOM      8  C   UNL     1      -1.323  11.833  21.638  0.00  0.00    +0.000 A 
ATOM      9  C   UNL     1      -0.641  11.278  20.540  0.00  0.00    +0.000 A 
ATOM     10  C   UNL     1       0.064  10.092  20.764  0.00  0.00    +0.000 A 
ATOM     11  N   UNL     1       0.826   9.262  19.956  0.00  0.00    +0.000 N 
ATOM     12  H   UNL     1       1.016   9.416  18.980  0.00  0.00    +0.000 HD
ENDBRANCH   1   3
BRANCH   2  13
ATOM     13  C   UNL     1       3.308   6.361  18.200  0.00  0.00    +0.000 A 
ATOM     14  C   UNL     1       4.628   6.626  17.831  0.00  0.00    +0.000 A 
ATOM     15  C   UNL     1       5.339   5.694  17.075  0.00  0.00    +0.000 A 
ATOM     16  C   UNL     1       4.746   4.488  16.695  0.00  0.00    +0.000 A 
ATOM     17  C   UNL     1       3.411   4.248  17.019  0.00  0.00    +0.000 A 
ATOM     18  C   UNL     1       2.696   5.176  17.787  0.00  0.00    +0.000 A 
BRANCH  16  19
ATOM     19  O   UNL     1       5.555   3.664  15.975  0.00  0.00    +0.000 OA
BRANCH  19  20
ATOM     20  C   UNL     1       6.127   4.135  14.764  0.00  0.00    +0.000 C 
ATOM     21  F   UNL     1       7.362   4.660  14.896  0.00  0.00    +0.000 F 
ATOM     22  F   UNL     1       6.176   3.123  13.871  0.00  0.00    +0.000 F 
ATOM     23  F   UNL     1       5.322   5.100  14.261  0.00  0.00    +0.000 F 
ENDBRANCH  19  20
ENDBRANCH  16  19
ENDBRANCH   2  13
BRANCH   1  25
ATOM     24  N   UNL     1       2.255   4.494  21.185  0.00  0.00    +0.000 NA
ATOM     25  C   UNL     1       2.135   5.670  20.749  0.00  0.00    +0.000 C 
ENDBRANCH   1  25
TORSDOF 5
ENDMDL
MODEL 9
REMARK VINA RESULT:      -7.5      5.164      8.943
REMARK  Name = 
REMARK  5 active torsions:
REMARK  status: ('A' for Active; 'I' for Inactive)
REMARK    1  A    between atoms: C_2  and  C_3
REMARK    2  A    between atoms: C_3  and  C_16
REMARK    3  A    between atoms: C_4  and  C_5
REMARK    4  A    between atoms: C_8  and  O_9
REMARK    5  A    between atoms: O_9  and  C_10
REMARK                            x       y       z     vdW  Elec       q    Type
REMARK                         _______ _______ _______ _____ _____    ______ ____
ROOT
ATOM      1  C   UNL     1       5.125   5.281  17.218  0.00  0.00    +0.000 C 
ATOM      2  C   UNL     1       3.838   5.715  17.179  0.00  0.00    +0.000 C 
ENDROOT
BRANCH   1   3
ATOM      3  C   UNL     1       5.657   4.952  15.939  0.00  0.00    +0.000 A 
ATOM      4  N   UNL     1       6.703   5.533  15.364  0.00  0.00    +0.000 NA
ATOM      5  C   UNL     1       6.852   4.971  14.139  0.00  0.00    +0.000 A 
ATOM      6  C   UNL     1       7.791   5.271  13.143  0.00  0.00    +0.000 A 
ATOM      7  C   UNL     1       7.727   4.574  11.937  0.00  0.00    +0.000 A 
ATOM      8  C   UNL     1       6.749   3.596  11.739  0.00  0.00    +0.000 A 
ATOM      9  C   UNL     1       5.809   3.276  12.736  0.00  0.00    +0.000 A 
ATOM     10  C   UNL     1       5.887   3.992  13.934  0.00  0.00    +0.000 A 
ATOM     11  N   UNL     1       5.154   3.973  15.111  0.00  0.00    +0.000 N 
ATOM     12  H   UNL     1       4.376   3.363  15.302  0.00  0.00    +0.000 HD
ENDBRANCH   1   3
BRANCH   2  13
ATOM     13  C   UNL     1       3.069   6.263  18.296  0.00  0.00    +0.000 A 
ATOM     14  C   UNL     1       2.644   5.405  19.312  0.00  0.00    +0.000 A 
ATOM     15  C   UNL     1       1.946   5.916  20.406  0.00  0.00    +0.000 A 
ATOM     16  C   UNL     1       1.680   7.283  20.503  0.00  0.00    +0.000 A 
ATOM     17  C   UNL     1       2.059   8.131  19.462  0.00  0.00    +0.000 A 
ATOM     18  C   UNL     1       2.770   7.625  18.367  0.00  0.00    +0.000 A 
BRANCH  16  19
ATOM     19  O   UNL     1       1.006   7.649  21.627  0.00  0.00    +0.000 OA
BRANCH  19  20
ATOM     20  C   UNL     1       0.253   8.853  21.626  0.00  0.00    +0.000 C 
ATOM     21  F   UNL     1      -0.407   9.097  20.476  0.00  0.00    +0.000 F 
ATOM     22  F   UNL     1      -0.636   8.823  22.642  0.00  0.00    +0.000 F 
ATOM     23  F   UNL     1       1.101   9.885  21.840  0.00  0.00    +0.000 F 
ENDBRANCH  19  20
ENDBRANCH  16  19
ENDBRANCH   2  13
BRANCH   1  25
ATOM     24  N   UNL     1       6.340   5.376  19.716  0.00  0.00    +0.000 NA
ATOM     25  C   UNL     1       5.790   5.333  18.584  0.00  0.00    +0.000 C 
ENDBRANCH   1  25
TORSDOF 5
ENDMDL
