MODEL 1
REMARK VINA RESULT:      -6.7      0.000      0.000
REMARK  Name = 
REMARK  3 active torsions:
REMARK  status: ('A' for Active; 'I' for Inactive)
REMARK    1  A    between atoms: N_1  and  C_2
REMARK    2  A    between atoms: C_2  and  N_4
REMARK    3  A    between atoms: N_4  and  N_5
REMARK                            x       y       z     vdW  Elec       q    Type
REMARK                         _______ _______ _______ _____ _____    ______ ____
ROOT
ATOM      1  N   UNL     1       6.184   4.369  16.461  0.00  0.00    +0.000 NA
ATOM      2  C   UNL     1       5.084   4.973  16.816  0.00  0.00    +0.000 C 
ATOM      3  C   UNL     1       4.705   6.398  16.452  0.00  0.00    +0.000 C 
ATOM      4  C   UNL     1       4.296   7.165  17.691  0.00  0.00    +0.000 C 
ATOM      5  S   UNL     1       2.695   6.569  18.277  0.00  0.00    +0.000 S 
ATOM      6  C   UNL     1       3.010   4.810  18.290  0.00  0.00    +0.000 A 
ATOM      7  C   UNL     1       2.113   3.999  19.009  0.00  0.00    +0.000 A 
ATOM      8  F   UNL     1       1.065   4.543  19.649  0.00  0.00    +0.000 F 
ATOM      9  C   UNL     1       2.272   2.621  19.091  0.00  0.00    +0.000 A 
ATOM     10  C   UNL     1       3.344   2.035  18.444  0.00  0.00    +0.000 A 
ATOM     11  F   UNL     1       3.511   0.707  18.513  0.00  0.00    +0.000 F 
ATOM     12  C   UNL     1       4.249   2.800  17.719  0.00  0.00    +0.000 A 
ATOM     13  C   UNL     1       4.089   4.194  17.631  0.00  0.00    +0.000 A 
ENDROOT
BRANCH   1  14
ATOM     14  N   UNL     1       7.113   5.016  15.703  0.00  0.00    +0.000 N 
ATOM     15  H   UNL     1       7.791   5.650  16.103  0.00  0.00    +0.000 HD
BRANCH  14  16
ATOM     16  C   UNL     1       7.163   4.858  14.346  0.00  0.00    +0.000 C 
ATOM     17  S   UNL     1       6.140   3.829  13.543  0.00  0.00    +0.000 S 
BRANCH  16  18
ATOM     18  N   UNL     1       8.097   5.590  13.698  0.00  0.00    +0.000 N 
ATOM     19  H   UNL     1       8.904   5.961  14.178  0.00  0.00    +0.000 HD
ATOM     20  H   UNL     1       7.933   5.794  12.721  0.00  0.00    +0.000 HD
ENDBRANCH  16  18
ENDBRANCH  14  16
ENDBRANCH   1  14
TORSDOF 3
ENDMDL
MODEL 2
REMARK VINA RESULT:      -6.5      3.108      4.858
REMARK  Name = 
REMARK  3 active torsions:
REMARK  status: ('A' for Active; 'I' for Inactive)
REMARK    1  A    between atoms: N_1  and  C_2
REMARK    2  A    between atoms: C_2  and  N_4
REMARK    3  A    between atoms: N_4  and  N_5
REMARK                            x       y       z     vdW  Elec       q    Type
REMARK                         _______ _______ _______ _____ _____    ______ ____
ROOT
ATOM      1  N   UNL     1       2.363   7.205  18.128  0.00  0.00    +0.000 NA
ATOM      2  C   UNL     1       3.266   6.296  17.887  0.00  0.00    +0.000 C 
ATOM      3  C   UNL     1       4.679   6.565  17.399  0.00  0.00    +0.000 C 
ATOM      4  C   UNL     1       4.990   5.706  16.192  0.00  0.00    +0.000 C 
ATOM      5  S   UNL     1       5.172   3.982  16.701  0.00  0.00    +0.000 S 
ATOM      6  C   UNL     1       3.680   3.789  17.665  0.00  0.00    +0.000 A 
ATOM      7  C   UNL     1       3.271   2.478  17.968  0.00  0.00    +0.000 A 
ATOM      8  F   UNL     1       3.990   1.425  17.544  0.00  0.00    +0.000 F 
ATOM      9  C   UNL     1       2.121   2.217  18.702  0.00  0.00    +0.000 A 
ATOM     10  C   UNL     1       1.360   3.281  19.149  0.00  0.00    +0.000 A 
ATOM     11  F   UNL     1       0.249   3.046  19.859  0.00  0.00    +0.000 F 
ATOM     12  C   UNL     1       1.732   4.592  18.876  0.00  0.00    +0.000 A 
ATOM     13  C   UNL     1       2.897   4.859  18.136  0.00  0.00    +0.000 A 
ENDROOT
BRANCH   1  14
ATOM     14  N   UNL     1       2.646   8.525  17.943  0.00  0.00    +0.000 N 
ATOM     15  H   UNL     1       3.480   8.837  17.463  0.00  0.00    +0.000 HD
BRANCH  14  16
ATOM     16  C   UNL     1       1.823   9.506  18.420  0.00  0.00    +0.000 C 
ATOM     17  S   UNL     1       0.940   9.313  19.810  0.00  0.00    +0.000 S 
BRANCH  16  18
ATOM     18  N   UNL     1       1.772  10.644  17.691  0.00  0.00    +0.000 N 
ATOM     19  H   UNL     1       2.609  11.074  17.325  0.00  0.00    +0.000 HD
ATOM     20  H   UNL     1       0.867  11.076  17.565  0.00  0.00    +0.000 HD
ENDBRANCH  16  18
ENDBRANCH  14  16
ENDBRANCH   1  14
TORSDOF 3
ENDMDL
MODEL 3
REMARK VINA RESULT:      -6.5      2.254      3.544
REMARK  Name = 
REMARK  3 active torsions:
REMARK  status: ('A' for Active; 'I' for Inactive)
REMARK    1  A    between atoms: N_1  and  C_2
REMARK    2  A    between atoms: C_2  and  N_4
REMARK    3  A    between atoms: N_4  and  N_5
REMARK                            x       y       z     vdW  Elec       q    Type
REMARK                         _______ _______ _______ _____ _____    ______ ____
ROOT
ATOM      1  N   UNL     1       4.509   5.262  16.758  0.00  0.00    +0.000 NA
ATOM      2  C   UNL     1       3.983   4.363  17.543  0.00  0.00    +0.000 C 
ATOM      3  C   UNL     1       4.236   2.868  17.462  0.00  0.00    +0.000 C 
ATOM      4  C   UNL     1       2.924   2.114  17.443  0.00  0.00    +0.000 C 
ATOM      5  S   UNL     1       2.147   2.200  19.071  0.00  0.00    +0.000 S 
ATOM      6  C   UNL     1       2.245   3.959  19.364  0.00  0.00    +0.000 A 
ATOM      7  C   UNL     1       1.442   4.490  20.390  0.00  0.00    +0.000 A 
ATOM      8  F   UNL     1       0.642   3.687  21.113  0.00  0.00    +0.000 F 
ATOM      9  C   UNL     1       1.436   5.845  20.694  0.00  0.00    +0.000 A 
ATOM     10  C   UNL     1       2.247   6.694  19.964  0.00  0.00    +0.000 A 
ATOM     11  F   UNL     1       2.253   8.004  20.245  0.00  0.00    +0.000 F 
ATOM     12  C   UNL     1       3.059   6.210  18.946  0.00  0.00    +0.000 A 
ATOM     13  C   UNL     1       3.070   4.838  18.639  0.00  0.00    +0.000 A 
ENDROOT
BRANCH   1  14
ATOM     14  N   UNL     1       5.363   4.895  15.762  0.00  0.00    +0.000 N 
ATOM     15  H   UNL     1       5.037   4.509  14.886  0.00  0.00    +0.000 HD
BRANCH  14  16
ATOM     16  C   UNL     1       6.717   5.008  15.903  0.00  0.00    +0.000 C 
ATOM     17  S   UNL     1       7.473   4.756  17.357  0.00  0.00    +0.000 S 
BRANCH  16  18
ATOM     18  N   UNL     1       7.404   5.337  14.786  0.00  0.00    +0.000 N 
ATOM     19  H   UNL     1       8.402   5.203  14.722  0.00  0.00    +0.000 HD
ATOM     20  H   UNL     1       6.887   5.769  14.031  0.00  0.00    +0.000 HD
ENDBRANCH  16  18
ENDBRANCH  14  16
ENDBRANCH   1  14
TORSDOF 3
ENDMDL
MODEL 4
REMARK VINA RESULT:      -6.5      4.032      6.117
REMARK  Name = 
REMARK  3 active torsions:
REMARK  status: ('A' for Active; 'I' for Inactive)
REMARK    1  A    between atoms: N_1  and  C_2
REMARK    2  A    between atoms: C_2  and  N_4
REMARK    3  A    between atoms: N_4  and  N_5
REMARK                            x       y       z     vdW  Elec       q    Type
REMARK                         _______ _______ _______ _____ _____    ______ ____
ROOT
ATOM      1  N   UNL     1       2.379   6.996  20.060  0.00  0.00    +0.000 NA
ATOM      2  C   UNL     1       2.223   5.715  19.866  0.00  0.00    +0.000 C 
ATOM      3  C   UNL     1       1.267   4.819  20.632  0.00  0.00    +0.000 C 
ATOM      4  C   UNL     1       1.994   3.595  21.148  0.00  0.00    +0.000 C 
ATOM      5  S   UNL     1       2.396   2.499  19.770  0.00  0.00    +0.000 S 
ATOM      6  C   UNL     1       3.152   3.673  18.655  0.00  0.00    +0.000 A 
ATOM      7  C   UNL     1       3.911   3.156  17.589  0.00  0.00    +0.000 A 
ATOM      8  F   UNL     1       4.046   1.829  17.430  0.00  0.00    +0.000 F 
ATOM      9  C   UNL     1       4.548   3.981  16.672  0.00  0.00    +0.000 A 
ATOM     10  C   UNL     1       4.428   5.351  16.814  0.00  0.00    +0.000 A 
ATOM     11  F   UNL     1       5.036   6.161  15.936  0.00  0.00    +0.000 F 
ATOM     12  C   UNL     1       3.683   5.902  17.849  0.00  0.00    +0.000 A 
ATOM     13  C   UNL     1       3.034   5.069  18.777  0.00  0.00    +0.000 A 
ENDROOT
BRANCH   1  14
ATOM     14  N   UNL     1       1.655   7.642  21.017  0.00  0.00    +0.000 N 
ATOM     15  H   UNL     1       1.519   7.259  21.943  0.00  0.00    +0.000 HD
BRANCH  14  16
ATOM     16  C   UNL     1       1.050   8.841  20.767  0.00  0.00    +0.000 C 
ATOM     17  S   UNL     1       0.252   9.686  21.950  0.00  0.00    +0.000 S 
BRANCH  16  18
ATOM     18  N   UNL     1       1.142   9.299  19.498  0.00  0.00    +0.000 N 
ATOM     19  H   UNL     1       1.531   8.732  18.759  0.00  0.00    +0.000 HD
ATOM     20  H   UNL     1       0.847  10.251  19.324  0.00  0.00    +0.000 HD
ENDBRANCH  16  18
ENDBRANCH  14  16
ENDBRANCH   1  14
TORSDOF 3
ENDMDL
MODEL 5
REMARK VINA RESULT:      -6.4      2.178      3.601
REMARK  Name = 
REMARK  3 active torsions:
REMARK  status: ('A' for Active; 'I' for Inactive)
REMARK    1  A    between atoms: N_1  and  C_2
REMARK    2  A    between atoms: C_2  and  N_4
REMARK    3  A    between atoms: N_4  and  N_5
REMARK                            x       y       z     vdW  Elec       q    Type
REMARK                         _______ _______ _______ _____ _____    ______ ____
ROOT
ATOM      1  N   UNL     1       5.977   6.325  16.243  0.00  0.00    +0.000 NA
ATOM      2  C   UNL     1       5.515   5.823  17.355  0.00  0.00    +0.000 C 
ATOM      3  C   UNL     1       6.156   4.698  18.147  0.00  0.00    +0.000 C 
ATOM      4  C   UNL     1       5.134   3.624  18.455  0.00  0.00    +0.000 C 
ATOM      5  S   UNL     1       3.965   4.233  19.690  0.00  0.00    +0.000 S 
ATOM      6  C   UNL     1       3.526   5.799  18.951  0.00  0.00    +0.000 A 
ATOM      7  C   UNL     1       2.375   6.444  19.438  0.00  0.00    +0.000 A 
ATOM      8  F   UNL     1       1.650   5.890  20.424  0.00  0.00    +0.000 F 
ATOM      9  C   UNL     1       1.941   7.661  18.927  0.00  0.00    +0.000 A 
ATOM     10  C   UNL     1       2.667   8.252  17.909  0.00  0.00    +0.000 A 
ATOM     11  F   UNL     1       2.262   9.425  17.406  0.00  0.00    +0.000 F 
ATOM     12  C   UNL     1       3.814   7.650  17.404  0.00  0.00    +0.000 A 
ATOM     13  C   UNL     1       4.257   6.421  17.923  0.00  0.00    +0.000 A 
ENDROOT
BRANCH   1  14
ATOM     14  N   UNL     1       7.125   5.840  15.693  0.00  0.00    +0.000 N 
ATOM     15  H   UNL     1       8.029   5.963  16.131  0.00  0.00    +0.000 HD
BRANCH  14  16
ATOM     16  C   UNL     1       7.121   5.176  14.499  0.00  0.00    +0.000 C 
ATOM     17  S   UNL     1       6.054   3.947  14.182  0.00  0.00    +0.000 S 
BRANCH  16  18
ATOM     18  N   UNL     1       8.037   5.581  13.591  0.00  0.00    +0.000 N 
ATOM     19  H   UNL     1       8.037   5.225  12.646  0.00  0.00    +0.000 HD
ATOM     20  H   UNL     1       8.754   6.221  13.906  0.00  0.00    +0.000 HD
ENDBRANCH  16  18
ENDBRANCH  14  16
ENDBRANCH   1  14
TORSDOF 3
ENDMDL
MODEL 6
REMARK VINA RESULT:      -6.4      2.480      3.966
REMARK  Name = 
REMARK  3 active torsions:
REMARK  status: ('A' for Active; 'I' for Inactive)
REMARK    1  A    between atoms: N_1  and  C_2
REMARK    2  A    between atoms: C_2  and  N_4
REMARK    3  A    between atoms: N_4  and  N_5
REMARK                            x       y       z     vdW  Elec       q    Type
REMARK                         _______ _______ _______ _____ _____    ______ ____
ROOT
ATOM      1  N   UNL     1       4.480   4.991  16.771  0.00  0.00    +0.000 NA
ATOM      2  C   UNL     1       4.060   4.947  18.006  0.00  0.00    +0.000 C 
ATOM      3  C   UNL     1       4.357   3.836  18.997  0.00  0.00    +0.000 C 
ATOM      4  C   UNL     1       3.077   3.350  19.641  0.00  0.00    +0.000 C 
ATOM      5  S   UNL     1       2.450   4.607  20.777  0.00  0.00    +0.000 S 
ATOM      6  C   UNL     1       2.513   6.040  19.712  0.00  0.00    +0.000 A 
ATOM      7  C   UNL     1       1.789   7.177  20.115  0.00  0.00    +0.000 A 
ATOM      8  F   UNL     1       1.089   7.168  21.262  0.00  0.00    +0.000 F 
ATOM      9  C   UNL     1       1.763   8.340  19.356  0.00  0.00    +0.000 A 
ATOM     10  C   UNL     1       2.472   8.377  18.170  0.00  0.00    +0.000 A 
ATOM     11  F   UNL     1       2.458   9.491  17.427  0.00  0.00    +0.000 F 
ATOM     12  C   UNL     1       3.205   7.277  17.739  0.00  0.00    +0.000 A 
ATOM     13  C   UNL     1       3.236   6.100  18.507  0.00  0.00    +0.000 A 
ENDROOT
BRANCH   1  14
ATOM     14  N   UNL     1       5.250   3.987  16.268  0.00  0.00    +0.000 N 
ATOM     15  H   UNL     1       5.091   3.015  16.499  0.00  0.00    +0.000 HD
BRANCH  14  16
ATOM     16  C   UNL     1       6.301   4.242  15.433  0.00  0.00    +0.000 C 
ATOM     17  S   UNL     1       6.208   3.981  13.798  0.00  0.00    +0.000 S 
BRANCH  16  18
ATOM     18  N   UNL     1       7.422   4.721  16.019  0.00  0.00    +0.000 N 
ATOM     19  H   UNL     1       8.335   4.559  15.623  0.00  0.00    +0.000 HD
ATOM     20  H   UNL     1       7.315   5.211  16.898  0.00  0.00    +0.000 HD
ENDBRANCH  16  18
ENDBRANCH  14  16
ENDBRANCH   1  14
TORSDOF 3
ENDMDL
MODEL 7
REMARK VINA RESULT:      -6.3      1.561      1.740
REMARK  Name = 
REMARK  3 active torsions:
REMARK  status: ('A' for Active; 'I' for Inactive)
REMARK    1  A    between atoms: N_1  and  C_2
REMARK    2  A    between atoms: C_2  and  N_4
REMARK    3  A    between atoms: N_4  and  N_5
REMARK                            x       y       z     vdW  Elec       q    Type
REMARK                         _______ _______ _______ _____ _____    ______ ____
ROOT
ATOM      1  N   UNL     1       4.833   3.774  16.684  0.00  0.00    +0.000 NA
ATOM      2  C   UNL     1       4.079   4.702  17.204  0.00  0.00    +0.000 C 
ATOM      3  C   UNL     1       4.101   6.172  16.822  0.00  0.00    +0.000 C 
ATOM      4  C   UNL     1       4.222   7.034  18.060  0.00  0.00    +0.000 C 
ATOM      5  S   UNL     1       2.674   6.988  18.990  0.00  0.00    +0.000 S 
ATOM      6  C   UNL     1       2.414   5.222  19.065  0.00  0.00    +0.000 A 
ATOM      7  C   UNL     1       1.479   4.746  20.001  0.00  0.00    +0.000 A 
ATOM      8  F   UNL     1       0.813   5.601  20.795  0.00  0.00    +0.000 F 
ATOM      9  C   UNL     1       1.209   3.391  20.147  0.00  0.00    +0.000 A 
ATOM     10  C   UNL     1       1.882   2.488  19.345  0.00  0.00    +0.000 A 
ATOM     11  F   UNL     1       1.632   1.178  19.473  0.00  0.00    +0.000 F 
ATOM     12  C   UNL     1       2.810   2.918  18.404  0.00  0.00    +0.000 A 
ATOM     13  C   UNL     1       3.082   4.289  18.251  0.00  0.00    +0.000 A 
ENDROOT
BRANCH   1  14
ATOM     14  N   UNL     1       5.739   4.084  15.714  0.00  0.00    +0.000 N 
ATOM     15  H   UNL     1       5.573   3.888  14.736  0.00  0.00    +0.000 HD
BRANCH  14  16
ATOM     16  C   UNL     1       6.939   4.662  16.016  0.00  0.00    +0.000 C 
ATOM     17  S   UNL     1       7.562   4.640  17.553  0.00  0.00    +0.000 S 
BRANCH  16  18
ATOM     18  N   UNL     1       7.590   5.251  14.988  0.00  0.00    +0.000 N 
ATOM     19  H   UNL     1       7.420   4.979  14.031  0.00  0.00    +0.000 HD
ATOM     20  H   UNL     1       8.289   5.946  15.216  0.00  0.00    +0.000 HD
ENDBRANCH  16  18
ENDBRANCH  14  16
ENDBRANCH   1  14
TORSDOF 3
ENDMDL
MODEL 8
REMARK VINA RESULT:      -6.2      2.728      3.720
REMARK  Name = 
REMARK  3 active torsions:
REMARK  status: ('A' for Active; 'I' for Inactive)
REMARK    1  A    between atoms: N_1  and  C_2
REMARK    2  A    between atoms: C_2  and  N_4
REMARK    3  A    between atoms: N_4  and  N_5
REMARK                            x       y       z     vdW  Elec       q    Type
REMARK                         _______ _______ _______ _____ _____    ______ ____
ROOT
ATOM      1  N   UNL     1       4.858   6.456  17.830  0.00  0.00    +0.000 NA
ATOM      2  C   UNL     1       4.407   5.239  17.962  0.00  0.00    +0.000 C 
ATOM      3  C   UNL     1       5.019   4.000  17.334  0.00  0.00    +0.000 C 
ATOM      4  C   UNL     1       3.959   3.201  16.607  0.00  0.00    +0.000 C 
ATOM      5  S   UNL     1       2.857   2.418  17.804  0.00  0.00    +0.000 S 
ATOM      6  C   UNL     1       2.470   3.827  18.831  0.00  0.00    +0.000 A 
ATOM      7  C   UNL     1       1.365   3.714  19.695  0.00  0.00    +0.000 A 
ATOM      8  F   UNL     1       0.645   2.580  19.734  0.00  0.00    +0.000 F 
ATOM      9  C   UNL     1       0.972   4.754  20.527  0.00  0.00    +0.000 A 
ATOM     10  C   UNL     1       1.693   5.934  20.505  0.00  0.00    +0.000 A 
ATOM     11  F   UNL     1       1.328   6.946  21.303  0.00  0.00    +0.000 F 
ATOM     12  C   UNL     1       2.794   6.084  19.671  0.00  0.00    +0.000 A 
ATOM     13  C   UNL     1       3.196   5.032  18.830  0.00  0.00    +0.000 A 
ENDROOT
BRANCH   1  14
ATOM     14  N   UNL     1       5.965   6.703  17.076  0.00  0.00    +0.000 N 
ATOM     15  H   UNL     1       5.952   6.662  16.065  0.00  0.00    +0.000 HD
BRANCH  14  16
ATOM     16  C   UNL     1       7.169   7.001  17.650  0.00  0.00    +0.000 C 
ATOM     17  S   UNL     1       7.834   6.054  18.838  0.00  0.00    +0.000 S 
BRANCH  16  18
ATOM     18  N   UNL     1       7.786   8.113  17.192  0.00  0.00    +0.000 N 
ATOM     19  H   UNL     1       8.792   8.175  17.140  0.00  0.00    +0.000 HD
ATOM     20  H   UNL     1       7.203   8.901  16.944  0.00  0.00    +0.000 HD
ENDBRANCH  16  18
ENDBRANCH  14  16
ENDBRANCH   1  14
TORSDOF 3
ENDMDL
MODEL 9
REMARK VINA RESULT:      -6.2      2.813      4.216
REMARK  Name = 
REMARK  3 active torsions:
REMARK  status: ('A' for Active; 'I' for Inactive)
REMARK    1  A    between atoms: N_1  and  C_2
REMARK    2  A    between atoms: C_2  and  N_4
REMARK    3  A    between atoms: N_4  and  N_5
REMARK                            x       y       z     vdW  Elec       q    Type
REMARK                         _______ _______ _______ _____ _____    ______ ____
ROOT
ATOM      1  N   UNL     1       4.103   4.966  16.844  0.00  0.00    +0.000 NA
ATOM      2  C   UNL     1       3.736   4.973  18.096  0.00  0.00    +0.000 C 
ATOM      3  C   UNL     1       4.016   3.872  19.102  0.00  0.00    +0.000 C 
ATOM      4  C   UNL     1       2.740   3.471  19.811  0.00  0.00    +0.000 C 
ATOM      5  S   UNL     1       2.231   4.786  20.940  0.00  0.00    +0.000 S 
ATOM      6  C   UNL     1       2.323   6.189  19.836  0.00  0.00    +0.000 A 
ATOM      7  C   UNL     1       1.679   7.373  20.240  0.00  0.00    +0.000 A 
ATOM      8  F   UNL     1       1.029   7.428  21.414  0.00  0.00    +0.000 F 
ATOM      9  C   UNL     1       1.682   8.517  19.452  0.00  0.00    +0.000 A 
ATOM     10  C   UNL     1       2.341   8.487  18.237  0.00  0.00    +0.000 A 
ATOM     11  F   UNL     1       2.354   9.583  17.467  0.00  0.00    +0.000 F 
ATOM     12  C   UNL     1       2.994   7.340  17.805  0.00  0.00    +0.000 A 
ATOM     13  C   UNL     1       2.996   6.181  18.601  0.00  0.00    +0.000 A 
ENDROOT
BRANCH   1  14
ATOM     14  N   UNL     1       4.797   3.910  16.335  0.00  0.00    +0.000 N 
ATOM     15  H   UNL     1       4.396   2.984  16.262  0.00  0.00    +0.000 HD
BRANCH  14  16
ATOM     16  C   UNL     1       6.089   4.041  15.912  0.00  0.00    +0.000 C 
ATOM     17  S   UNL     1       7.273   4.674  16.886  0.00  0.00    +0.000 S 
BRANCH  16  18
ATOM     18  N   UNL     1       6.347   3.622  14.652  0.00  0.00    +0.000 N 
ATOM     19  H   UNL     1       6.015   4.134  13.848  0.00  0.00    +0.000 HD
ATOM     20  H   UNL     1       6.847   2.750  14.544  0.00  0.00    +0.000 HD
ENDBRANCH  16  18
ENDBRANCH  14  16
ENDBRANCH   1  14
TORSDOF 3
ENDMDL
