MODEL 1
REMARK VINA RESULT:      -8.5      0.000      0.000
REMARK  Name = 
REMARK  10 active torsions:
REMARK  status: ('A' for Active; 'I' for Inactive)
REMARK    1  A    between atoms: C_1  and  C_2
REMARK    2  A    between atoms: C_2  and  C_3
REMARK    3  A    between atoms: C_8  and  N_9
REMARK    4  A    between atoms: N_9  and  C_10
REMARK    5  A    between atoms: C_10  and  C_11
REMARK    6  A    between atoms: N_13  and  C_14
REMARK    7  A    between atoms: C_14  and  C_15
REMARK    8  A    between atoms: C_20  and  C_22
REMARK    9  A    between atoms: C_22  and  C_23
REMARK   10  A    between atoms: C_23  and  C_24
REMARK                            x       y       z     vdW  Elec       q    Type
REMARK                         _______ _______ _______ _____ _____    ______ ____
ROOT
ATOM      1  N   UNL     1       3.462   5.666  19.040  0.00  0.00    +0.000 N 
ATOM      2  C   UNL     1       4.850   5.441  19.017  0.00  0.00    +0.000 C 
ATOM      3  O   UNL     1       5.394   4.466  19.538  0.00  0.00    +0.000 OA
ENDROOT
BRANCH   1   9
ATOM      4  C   UNL     1       1.958   3.695  18.937  0.00  0.00    +0.000 A 
ATOM      5  C   UNL     1       1.365   2.624  19.631  0.00  0.00    +0.000 A 
ATOM      6  C   UNL     1       1.333   2.605  21.028  0.00  0.00    +0.000 A 
ATOM      7  C   UNL     1       1.845   3.685  21.735  0.00  0.00    +0.000 A 
ATOM      8  C   UNL     1       2.469   4.743  21.065  0.00  0.00    +0.000 A 
ATOM      9  C   UNL     1       2.586   4.729  19.664  0.00  0.00    +0.000 A 
BRANCH   4  11
ATOM     10  C   UNL     1       2.969   3.184  16.714  0.00  0.00    +0.000 C 
ATOM     11  C   UNL     1       1.754   3.765  17.446  0.00  0.00    +0.000 C 
ENDBRANCH   4  11
ENDBRANCH   1   9
BRANCH   1  12
ATOM     12  C   UNL     1       2.883   6.910  18.501  0.00  0.00    +0.000 C 
BRANCH  12  13
ATOM     13  C   UNL     1       2.075   7.901  19.344  0.00  0.00    +0.000 C 
ATOM     14  O   UNL     1       2.054   7.828  20.574  0.00  0.00    +0.000 OA
ATOM     15  N   UNL     1       1.501   8.946  18.666  0.00  0.00    +0.000 N 
ATOM     16  H   UNL     1       1.604   9.037  17.663  0.00  0.00    +0.000 HD
BRANCH  15  17
ATOM     17  C   UNL     1       0.760   9.957  19.378  0.00  0.00    +0.000 C 
BRANCH  17  18
ATOM     18  C   UNL     1      -0.454  10.313  18.608  0.00  0.00    +0.000 A 
ATOM     19  C   UNL     1      -1.400  11.308  18.744  0.00  0.00    +0.000 A 
ATOM     20  C   UNL     1      -2.330  11.122  17.693  0.00  0.00    +0.000 A 
ATOM     21  C   UNL     1      -1.890  10.033  16.979  0.00  0.00    +0.000 A 
ATOM     22  O   UNL     1      -0.754   9.532  17.529  0.00  0.00    +0.000 OA
ENDBRANCH  17  18
ENDBRANCH  15  17
ENDBRANCH  12  13
ENDBRANCH   1  12
BRANCH   2  23
ATOM     23  C   UNL     1       5.697   6.537  18.354  0.00  0.00    +0.000 C 
BRANCH  23  24
ATOM     24  C   UNL     1       7.093   6.091  17.911  0.00  0.00    +0.000 C 
BRANCH  24  25
ATOM     25  C   UNL     1       7.001   5.175  16.694  0.00  0.00    +0.000 C 
ATOM     26  O   UNL     1       7.057   3.952  16.800  0.00  0.00    +0.000 OA
ATOM     27  N   UNL     1       6.872   5.851  15.491  0.00  0.00    +0.000 N 
ATOM     28  C   UNL     1       6.826   5.156  14.270  0.00  0.00    +0.000 A 
ATOM     29  C   UNL     1       5.936   4.107  14.072  0.00  0.00    +0.000 A 
ATOM     30  C   UNL     1       5.959   3.429  12.855  0.00  0.00    +0.000 A 
ATOM     31  C   UNL     1       6.889   3.797  11.892  0.00  0.00    +0.000 A 
ATOM     32  C   UNL     1       7.716   4.874  12.170  0.00  0.00    +0.000 A 
ATOM     33  N   UNL     1       7.674   5.592  13.317  0.00  0.00    +0.000 NA
ATOM     34  H   UNL     1       7.336   6.746  15.417  0.00  0.00    +0.000 HD
ENDBRANCH  24  25
ENDBRANCH  23  24
ENDBRANCH   2  23
TORSDOF 9
ENDMDL
MODEL 2
REMARK VINA RESULT:      -8.4      3.430      7.235
REMARK  Name = 
REMARK  10 active torsions:
REMARK  status: ('A' for Active; 'I' for Inactive)
REMARK    1  A    between atoms: C_1  and  C_2
REMARK    2  A    between atoms: C_2  and  C_3
REMARK    3  A    between atoms: C_8  and  N_9
REMARK    4  A    between atoms: N_9  and  C_10
REMARK    5  A    between atoms: C_10  and  C_11
REMARK    6  A    between atoms: N_13  and  C_14
REMARK    7  A    between atoms: C_14  and  C_15
REMARK    8  A    between atoms: C_20  and  C_22
REMARK    9  A    between atoms: C_22  and  C_23
REMARK   10  A    between atoms: C_23  and  C_24
REMARK                            x       y       z     vdW  Elec       q    Type
REMARK                         _______ _______ _______ _____ _____    ______ ____
ROOT
ATOM      1  N   UNL     1       5.045   4.853  17.784  0.00  0.00    +0.000 N 
ATOM      2  C   UNL     1       6.107   5.232  18.625  0.00  0.00    +0.000 C 
ATOM      3  O   UNL     1       6.102   5.072  19.847  0.00  0.00    +0.000 OA
ENDROOT
BRANCH   1   9
ATOM      4  C   UNL     1       2.751   4.950  18.724  0.00  0.00    +0.000 A 
ATOM      5  C   UNL     1       1.536   4.276  18.947  0.00  0.00    +0.000 A 
ATOM      6  C   UNL     1       1.458   2.885  18.838  0.00  0.00    +0.000 A 
ATOM      7  C   UNL     1       2.608   2.158  18.560  0.00  0.00    +0.000 A 
ATOM      8  C   UNL     1       3.817   2.812  18.301  0.00  0.00    +0.000 A 
ATOM      9  C   UNL     1       3.887   4.216  18.321  0.00  0.00    +0.000 A 
BRANCH   4  11
ATOM     10  C   UNL     1       1.890   6.716  20.261  0.00  0.00    +0.000 C 
ATOM     11  C   UNL     1       2.820   6.412  19.082  0.00  0.00    +0.000 C 
ENDBRANCH   4  11
ENDBRANCH   1   9
BRANCH   1  12
ATOM     12  C   UNL     1       5.060   5.177  16.346  0.00  0.00    +0.000 C 
BRANCH  12  13
ATOM     13  C   UNL     1       5.952   4.461  15.326  0.00  0.00    +0.000 C 
ATOM     14  O   UNL     1       6.191   3.256  15.419  0.00  0.00    +0.000 OA
ATOM     15  N   UNL     1       6.345   5.201  14.241  0.00  0.00    +0.000 N 
ATOM     16  H   UNL     1       6.065   6.169  14.139  0.00  0.00    +0.000 HD
BRANCH  15  17
ATOM     17  C   UNL     1       7.147   4.603  13.203  0.00  0.00    +0.000 C 
BRANCH  17  18
ATOM     18  C   UNL     1       6.320   3.651  12.427  0.00  0.00    +0.000 A 
ATOM     19  C   UNL     1       6.594   2.446  11.811  0.00  0.00    +0.000 A 
ATOM     20  C   UNL     1       5.382   2.015  11.221  0.00  0.00    +0.000 A 
ATOM     21  C   UNL     1       4.446   2.977  11.519  0.00  0.00    +0.000 A 
ATOM     22  O   UNL     1       5.006   3.976  12.247  0.00  0.00    +0.000 OA
ENDBRANCH  17  18
ENDBRANCH  15  17
ENDBRANCH  12  13
ENDBRANCH   1  12
BRANCH   2  23
ATOM     23  C   UNL     1       7.282   5.946  17.942  0.00  0.00    +0.000 C 
BRANCH  23  24
ATOM     24  C   UNL     1       8.096   6.866  18.858  0.00  0.00    +0.000 C 
BRANCH  24  25
ATOM     25  C   UNL     1       8.269   8.240  18.218  0.00  0.00    +0.000 C 
ATOM     26  O   UNL     1       7.867   8.480  17.082  0.00  0.00    +0.000 OA
ATOM     27  N   UNL     1       8.928   9.155  19.024  0.00  0.00    +0.000 N 
ATOM     28  C   UNL     1       9.214  10.453  18.564  0.00  0.00    +0.000 A 
ATOM     29  C   UNL     1       8.221  11.258  18.019  0.00  0.00    +0.000 A 
ATOM     30  C   UNL     1       8.569  12.521  17.545  0.00  0.00    +0.000 A 
ATOM     31  C   UNL     1       9.896  12.925  17.599  0.00  0.00    +0.000 A 
ATOM     32  C   UNL     1      10.809  12.063  18.187  0.00  0.00    +0.000 A 
ATOM     33  N   UNL     1      10.492  10.857  18.714  0.00  0.00    +0.000 NA
ATOM     34  H   UNL     1       9.639   8.791  19.643  0.00  0.00    +0.000 HD
ENDBRANCH  24  25
ENDBRANCH  23  24
ENDBRANCH   2  23
TORSDOF 9
ENDMDL
MODEL 3
REMARK VINA RESULT:      -8.4      1.953      8.275
REMARK  Name = 
REMARK  10 active torsions:
REMARK  status: ('A' for Active; 'I' for Inactive)
REMARK    1  A    between atoms: C_1  and  C_2
REMARK    2  A    between atoms: C_2  and  C_3
REMARK    3  A    between atoms: C_8  and  N_9
REMARK    4  A    between atoms: N_9  and  C_10
REMARK    5  A    between atoms: C_10  and  C_11
REMARK    6  A    between atoms: N_13  and  C_14
REMARK    7  A    between atoms: C_14  and  C_15
REMARK    8  A    between atoms: C_20  and  C_22
REMARK    9  A    between atoms: C_22  and  C_23
REMARK   10  A    between atoms: C_23  and  C_24
REMARK                            x       y       z     vdW  Elec       q    Type
REMARK                         _______ _______ _______ _____ _____    ______ ____
ROOT
ATOM      1  N   UNL     1       3.165   5.624  18.711  0.00  0.00    +0.000 N 
ATOM      2  C   UNL     1       2.322   6.615  18.178  0.00  0.00    +0.000 C 
ATOM      3  O   UNL     1       1.272   6.373  17.582  0.00  0.00    +0.000 OA
ENDROOT
BRANCH   1   9
ATOM      4  C   UNL     1       1.871   3.646  19.466  0.00  0.00    +0.000 A 
ATOM      5  C   UNL     1       1.334   2.389  19.134  0.00  0.00    +0.000 A 
ATOM      6  C   UNL     1       1.773   1.698  18.002  0.00  0.00    +0.000 A 
ATOM      7  C   UNL     1       2.792   2.237  17.229  0.00  0.00    +0.000 A 
ATOM      8  C   UNL     1       3.315   3.501  17.523  0.00  0.00    +0.000 A 
ATOM      9  C   UNL     1       2.817   4.244  18.607  0.00  0.00    +0.000 A 
BRANCH   4  11
ATOM     10  C   UNL     1       2.178   3.408  21.931  0.00  0.00    +0.000 C 
ATOM     11  C   UNL     1       1.523   4.225  20.813  0.00  0.00    +0.000 C 
ENDBRANCH   4  11
ENDBRANCH   1   9
BRANCH   1  12
ATOM     12  C   UNL     1       4.466   5.972  19.310  0.00  0.00    +0.000 C 
BRANCH  12  13
ATOM     13  C   UNL     1       5.810   5.485  18.756  0.00  0.00    +0.000 C 
ATOM     14  O   UNL     1       6.536   4.733  19.408  0.00  0.00    +0.000 OA
ATOM     15  N   UNL     1       6.083   5.815  17.453  0.00  0.00    +0.000 N 
ATOM     16  H   UNL     1       5.431   6.362  16.906  0.00  0.00    +0.000 HD
BRANCH  15  17
ATOM     17  C   UNL     1       7.301   5.363  16.828  0.00  0.00    +0.000 C 
BRANCH  17  18
ATOM     18  C   UNL     1       6.999   4.849  15.472  0.00  0.00    +0.000 A 
ATOM     19  C   UNL     1       6.178   3.843  15.006  0.00  0.00    +0.000 A 
ATOM     20  C   UNL     1       6.322   3.831  13.597  0.00  0.00    +0.000 A 
ATOM     21  C   UNL     1       7.214   4.832  13.294  0.00  0.00    +0.000 A 
ATOM     22  O   UNL     1       7.633   5.454  14.425  0.00  0.00    +0.000 OA
ENDBRANCH  17  18
ENDBRANCH  15  17
ENDBRANCH  12  13
ENDBRANCH   1  12
BRANCH   2  23
ATOM     23  C   UNL     1       2.819   8.062  18.312  0.00  0.00    +0.000 C 
BRANCH  23  24
ATOM     24  C   UNL     1       1.888   9.120  17.712  0.00  0.00    +0.000 C 
BRANCH  24  25
ATOM     25  C   UNL     1       1.303  10.002  18.811  0.00  0.00    +0.000 C 
ATOM     26  O   UNL     1       1.601  11.189  18.915  0.00  0.00    +0.000 OA
ATOM     27  N   UNL     1       0.442   9.334  19.667  0.00  0.00    +0.000 N 
ATOM     28  C   UNL     1      -0.143   9.990  20.765  0.00  0.00    +0.000 A 
ATOM     29  C   UNL     1      -0.819  11.193  20.607  0.00  0.00    +0.000 A 
ATOM     30  C   UNL     1      -1.347  11.818  21.736  0.00  0.00    +0.000 A 
ATOM     31  C   UNL     1      -1.155  11.240  22.983  0.00  0.00    +0.000 A 
ATOM     32  C   UNL     1      -0.493  10.023  23.036  0.00  0.00    +0.000 A 
ATOM     33  N   UNL     1      -0.024   9.361  21.952  0.00  0.00    +0.000 NA
ATOM     34  H   UNL     1       0.643   8.361  19.851  0.00  0.00    +0.000 HD
ENDBRANCH  24  25
ENDBRANCH  23  24
ENDBRANCH   2  23
TORSDOF 9
ENDMDL
MODEL 4
REMARK VINA RESULT:      -8.2      3.693      7.616
REMARK  Name = 
REMARK  10 active torsions:
REMARK  status: ('A' for Active; 'I' for Inactive)
REMARK    1  A    between atoms: C_1  and  C_2
REMARK    2  A    between atoms: C_2  and  C_3
REMARK    3  A    between atoms: C_8  and  N_9
REMARK    4  A    between atoms: N_9  and  C_10
REMARK    5  A    between atoms: C_10  and  C_11
REMARK    6  A    between atoms: N_13  and  C_14
REMARK    7  A    between atoms: C_14  and  C_15
REMARK    8  A    between atoms: C_20  and  C_22
REMARK    9  A    between atoms: C_22  and  C_23
REMARK   10  A    between atoms: C_23  and  C_24
REMARK                            x       y       z     vdW  Elec       q    Type
REMARK                         _______ _______ _______ _____ _____    ______ ____
ROOT
ATOM      1  N   UNL     1       5.340   5.371  17.461  0.00  0.00    +0.000 N 
ATOM      2  C   UNL     1       6.250   5.812  18.439  0.00  0.00    +0.000 C 
ATOM      3  O   UNL     1       6.075   5.669  19.650  0.00  0.00    +0.000 OA
ENDROOT
BRANCH   1   9
ATOM      4  C   UNL     1       2.904   5.352  17.930  0.00  0.00    +0.000 A 
ATOM      5  C   UNL     1       1.719   4.596  17.995  0.00  0.00    +0.000 A 
ATOM      6  C   UNL     1       1.761   3.200  18.035  0.00  0.00    +0.000 A 
ATOM      7  C   UNL     1       2.991   2.557  18.066  0.00  0.00    +0.000 A 
ATOM      8  C   UNL     1       4.179   3.289  17.968  0.00  0.00    +0.000 A 
ATOM      9  C   UNL     1       4.146   4.688  17.838  0.00  0.00    +0.000 A 
BRANCH   4  11
ATOM     10  C   UNL     1       2.445   7.169  19.577  0.00  0.00    +0.000 C 
ATOM     11  C   UNL     1       2.798   6.843  18.123  0.00  0.00    +0.000 C 
ENDBRANCH   4  11
ENDBRANCH   1   9
BRANCH   1  12
ATOM     12  C   UNL     1       5.549   5.675  16.034  0.00  0.00    +0.000 C 
BRANCH  12  13
ATOM     13  C   UNL     1       6.276   4.735  15.066  0.00  0.00    +0.000 C 
ATOM     14  O   UNL     1       6.332   3.521  15.273  0.00  0.00    +0.000 OA
ATOM     15  N   UNL     1       6.728   5.298  13.900  0.00  0.00    +0.000 N 
ATOM     16  H   UNL     1       6.594   6.283  13.710  0.00  0.00    +0.000 HD
BRANCH  15  17
ATOM     17  C   UNL     1       7.383   4.486  12.905  0.00  0.00    +0.000 C 
BRANCH  17  18
ATOM     18  C   UNL     1       6.385   3.612  12.246  0.00  0.00    +0.000 A 
ATOM     19  C   UNL     1       5.040   3.752  11.977  0.00  0.00    +0.000 A 
ATOM     20  C   UNL     1       4.637   2.562  11.324  0.00  0.00    +0.000 A 
ATOM     21  C   UNL     1       5.761   1.776  11.230  0.00  0.00    +0.000 A 
ATOM     22  O   UNL     1       6.827   2.403  11.791  0.00  0.00    +0.000 OA
ENDBRANCH  17  18
ENDBRANCH  15  17
ENDBRANCH  12  13
ENDBRANCH   1  12
BRANCH   2  23
ATOM     23  C   UNL     1       7.479   6.570  17.918  0.00  0.00    +0.000 C 
BRANCH  23  24
ATOM     24  C   UNL     1       7.220   8.030  17.534  0.00  0.00    +0.000 C 
BRANCH  24  25
ATOM     25  C   UNL     1       8.259   8.944  18.175  0.00  0.00    +0.000 C 
ATOM     26  O   UNL     1       8.943   8.578  19.127  0.00  0.00    +0.000 OA
ATOM     27  N   UNL     1       8.332  10.202  17.598  0.00  0.00    +0.000 N 
ATOM     28  C   UNL     1       9.203  11.184  18.103  0.00  0.00    +0.000 A 
ATOM     29  C   UNL     1      10.551  10.914  18.303  0.00  0.00    +0.000 A 
ATOM     30  C   UNL     1      11.361  11.912  18.842  0.00  0.00    +0.000 A 
ATOM     31  C   UNL     1      10.793  13.130  19.193  0.00  0.00    +0.000 A 
ATOM     32  C   UNL     1       9.445  13.314  18.928  0.00  0.00    +0.000 A 
ATOM     33  N   UNL     1       8.647  12.388  18.348  0.00  0.00    +0.000 NA
ATOM     34  H   UNL     1       7.472  10.589  17.234  0.00  0.00    +0.000 HD
ENDBRANCH  24  25
ENDBRANCH  23  24
ENDBRANCH   2  23
TORSDOF 9
ENDMDL
MODEL 5
REMARK VINA RESULT:      -8.0      3.397      7.107
REMARK  Name = 
REMARK  10 active torsions:
REMARK  status: ('A' for Active; 'I' for Inactive)
REMARK    1  A    between atoms: C_1  and  C_2
REMARK    2  A    between atoms: C_2  and  C_3
REMARK    3  A    between atoms: C_8  and  N_9
REMARK    4  A    between atoms: N_9  and  C_10
REMARK    5  A    between atoms: C_10  and  C_11
REMARK    6  A    between atoms: N_13  and  C_14
REMARK    7  A    between atoms: C_14  and  C_15
REMARK    8  A    between atoms: C_20  and  C_22
REMARK    9  A    between atoms: C_22  and  C_23
REMARK   10  A    between atoms: C_23  and  C_24
REMARK                            x       y       z     vdW  Elec       q    Type
REMARK                         _______ _______ _______ _____ _____    ______ ____
ROOT
ATOM      1  N   UNL     1       5.224   4.279  18.110  0.00  0.00    +0.000 N 
ATOM      2  C   UNL     1       5.951   5.283  18.775  0.00  0.00    +0.000 C 
ATOM      3  O   UNL     1       5.513   5.926  19.729  0.00  0.00    +0.000 OA
ENDROOT
BRANCH   1   9
ATOM      4  C   UNL     1       2.775   4.672  18.163  0.00  0.00    +0.000 A 
ATOM      5  C   UNL     1       1.494   4.120  18.347  0.00  0.00    +0.000 A 
ATOM      6  C   UNL     1       1.331   2.874  18.960  0.00  0.00    +0.000 A 
ATOM      7  C   UNL     1       2.446   2.202  19.440  0.00  0.00    +0.000 A 
ATOM      8  C   UNL     1       3.731   2.718  19.237  0.00  0.00    +0.000 A 
ATOM      9  C   UNL     1       3.912   3.927  18.543  0.00  0.00    +0.000 A 
BRANCH   4  11
ATOM     10  C   UNL     1       2.394   7.047  18.826  0.00  0.00    +0.000 C 
ATOM     11  C   UNL     1       2.864   6.106  17.711  0.00  0.00    +0.000 C 
ENDBRANCH   4  11
ENDBRANCH   1   9
BRANCH   1  12
ATOM     12  C   UNL     1       5.758   3.627  16.900  0.00  0.00    +0.000 C 
BRANCH  12  13
ATOM     13  C   UNL     1       5.750   4.281  15.514  0.00  0.00    +0.000 C 
ATOM     14  O   UNL     1       5.168   5.347  15.312  0.00  0.00    +0.000 OA
ATOM     15  N   UNL     1       6.539   3.688  14.561  0.00  0.00    +0.000 N 
ATOM     16  H   UNL     1       7.080   2.859  14.773  0.00  0.00    +0.000 HD
BRANCH  15  17
ATOM     17  C   UNL     1       6.635   4.255  13.239  0.00  0.00    +0.000 C 
BRANCH  17  18
ATOM     18  C   UNL     1       5.748   3.510  12.317  0.00  0.00    +0.000 A 
ATOM     19  C   UNL     1       4.484   3.752  11.821  0.00  0.00    +0.000 A 
ATOM     20  C   UNL     1       4.168   2.658  10.979  0.00  0.00    +0.000 A 
ATOM     21  C   UNL     1       5.259   1.823  11.010  0.00  0.00    +0.000 A 
ATOM     22  O   UNL     1       6.223   2.329  11.822  0.00  0.00    +0.000 OA
ENDBRANCH  17  18
ENDBRANCH  15  17
ENDBRANCH  12  13
ENDBRANCH   1  12
BRANCH   2  23
ATOM     23  C   UNL     1       7.336   5.605  18.195  0.00  0.00    +0.000 C 
BRANCH  23  24
ATOM     24  C   UNL     1       8.177   6.570  19.036  0.00  0.00    +0.000 C 
BRANCH  24  25
ATOM     25  C   UNL     1       8.288   7.925  18.343  0.00  0.00    +0.000 C 
ATOM     26  O   UNL     1       7.895   8.097  17.192  0.00  0.00    +0.000 OA
ATOM     27  N   UNL     1       8.881   8.906  19.123  0.00  0.00    +0.000 N 
ATOM     28  C   UNL     1       9.105  10.198  18.616  0.00  0.00    +0.000 A 
ATOM     29  C   UNL     1       8.081  10.926  18.021  0.00  0.00    +0.000 A 
ATOM     30  C   UNL     1       8.369  12.186  17.502  0.00  0.00    +0.000 A 
ATOM     31  C   UNL     1       9.671  12.663  17.563  0.00  0.00    +0.000 A 
ATOM     32  C   UNL     1      10.618  11.877  18.202  0.00  0.00    +0.000 A 
ATOM     33  N   UNL     1      10.356  10.677  18.771  0.00  0.00    +0.000 NA
ATOM     34  H   UNL     1       9.598   8.606  19.768  0.00  0.00    +0.000 HD
ENDBRANCH  24  25
ENDBRANCH  23  24
ENDBRANCH   2  23
TORSDOF 9
ENDMDL
MODEL 6
REMARK VINA RESULT:      -7.9      1.984      8.064
REMARK  Name = 
REMARK  10 active torsions:
REMARK  status: ('A' for Active; 'I' for Inactive)
REMARK    1  A    between atoms: C_1  and  C_2
REMARK    2  A    between atoms: C_2  and  C_3
REMARK    3  A    between atoms: C_8  and  N_9
REMARK    4  A    between atoms: N_9  and  C_10
REMARK    5  A    between atoms: C_10  and  C_11
REMARK    6  A    between atoms: N_13  and  C_14
REMARK    7  A    between atoms: C_14  and  C_15
REMARK    8  A    between atoms: C_20  and  C_22
REMARK    9  A    between atoms: C_22  and  C_23
REMARK   10  A    between atoms: C_23  and  C_24
REMARK                            x       y       z     vdW  Elec       q    Type
REMARK                         _______ _______ _______ _____ _____    ______ ____
ROOT
ATOM      1  N   UNL     1       3.168   5.394  18.797  0.00  0.00    +0.000 N 
ATOM      2  C   UNL     1       2.361   6.392  18.221  0.00  0.00    +0.000 C 
ATOM      3  O   UNL     1       1.319   6.159  17.608  0.00  0.00    +0.000 OA
ENDROOT
BRANCH   1   9
ATOM      4  C   UNL     1       1.826   3.463  19.590  0.00  0.00    +0.000 A 
ATOM      5  C   UNL     1       1.260   2.212  19.283  0.00  0.00    +0.000 A 
ATOM      6  C   UNL     1       1.686   1.488  18.166  0.00  0.00    +0.000 A 
ATOM      7  C   UNL     1       2.719   1.987  17.385  0.00  0.00    +0.000 A 
ATOM      8  C   UNL     1       3.271   3.244  17.654  0.00  0.00    +0.000 A 
ATOM      9  C   UNL     1       2.788   4.021  18.721  0.00  0.00    +0.000 A 
BRANCH   4  11
ATOM     10  C   UNL     1       2.179   3.310  22.055  0.00  0.00    +0.000 C 
ATOM     11  C   UNL     1       1.489   4.078  20.924  0.00  0.00    +0.000 C 
ENDBRANCH   4  11
ENDBRANCH   1   9
BRANCH   1  12
ATOM     12  C   UNL     1       4.464   5.726  19.416  0.00  0.00    +0.000 C 
BRANCH  12  13
ATOM     13  C   UNL     1       5.815   5.465  18.740  0.00  0.00    +0.000 C 
ATOM     14  O   UNL     1       6.599   4.623  19.180  0.00  0.00    +0.000 OA
ATOM     15  N   UNL     1       6.032   6.115  17.552  0.00  0.00    +0.000 N 
ATOM     16  H   UNL     1       5.336   6.738  17.162  0.00  0.00    +0.000 HD
BRANCH  15  17
ATOM     17  C   UNL     1       7.254   5.899  16.817  0.00  0.00    +0.000 C 
BRANCH  17  18
ATOM     18  C   UNL     1       6.954   5.172  15.562  0.00  0.00    +0.000 A 
ATOM     19  C   UNL     1       6.019   4.214  15.227  0.00  0.00    +0.000 A 
ATOM     20  C   UNL     1       6.237   3.904  13.863  0.00  0.00    +0.000 A 
ATOM     21  C   UNL     1       7.283   4.695  13.451  0.00  0.00    +0.000 A 
ATOM     22  O   UNL     1       7.728   5.466  14.476  0.00  0.00    +0.000 OA
ENDBRANCH  17  18
ENDBRANCH  15  17
ENDBRANCH  12  13
ENDBRANCH   1  12
BRANCH   2  23
ATOM     23  C   UNL     1       2.892   7.829  18.329  0.00  0.00    +0.000 C 
BRANCH  23  24
ATOM     24  C   UNL     1       2.049   8.882  17.602  0.00  0.00    +0.000 C 
BRANCH  24  25
ATOM     25  C   UNL     1       1.440   9.861  18.601  0.00  0.00    +0.000 C 
ATOM     26  O   UNL     1       0.867   9.475  19.617  0.00  0.00    +0.000 OA
ATOM     27  N   UNL     1       1.579  11.191  18.239  0.00  0.00    +0.000 N 
ATOM     28  C   UNL     1       1.028  12.219  19.024  0.00  0.00    +0.000 A 
ATOM     29  C   UNL     1       1.281  12.296  20.389  0.00  0.00    +0.000 A 
ATOM     30  C   UNL     1       0.678  13.314  21.125  0.00  0.00    +0.000 A 
ATOM     31  C   UNL     1      -0.180  14.197  20.485  0.00  0.00    +0.000 A 
ATOM     32  C   UNL     1      -0.347  14.058  19.116  0.00  0.00    +0.000 A 
ATOM     33  N   UNL     1       0.273  13.119  18.363  0.00  0.00    +0.000 NA
ATOM     34  H   UNL     1       1.564  11.400  17.250  0.00  0.00    +0.000 HD
ENDBRANCH  24  25
ENDBRANCH  23  24
ENDBRANCH   2  23
TORSDOF 9
ENDMDL
MODEL 7
REMARK VINA RESULT:      -7.9      1.506      1.946
REMARK  Name = 
REMARK  10 active torsions:
REMARK  status: ('A' for Active; 'I' for Inactive)
REMARK    1  A    between atoms: C_1  and  C_2
REMARK    2  A    between atoms: C_2  and  C_3
REMARK    3  A    between atoms: C_8  and  N_9
REMARK    4  A    between atoms: N_9  and  C_10
REMARK    5  A    between atoms: C_10  and  C_11
REMARK    6  A    between atoms: N_13  and  C_14
REMARK    7  A    between atoms: C_14  and  C_15
REMARK    8  A    between atoms: C_20  and  C_22
REMARK    9  A    between atoms: C_22  and  C_23
REMARK   10  A    between atoms: C_23  and  C_24
REMARK                            x       y       z     vdW  Elec       q    Type
REMARK                         _______ _______ _______ _____ _____    ______ ____
ROOT
ATOM      1  N   UNL     1       3.760   6.049  18.418  0.00  0.00    +0.000 N 
ATOM      2  C   UNL     1       5.098   5.922  18.831  0.00  0.00    +0.000 C 
ATOM      3  O   UNL     1       5.467   5.166  19.731  0.00  0.00    +0.000 OA
ENDROOT
BRANCH   1   9
ATOM      4  C   UNL     1       2.455   3.945  18.591  0.00  0.00    +0.000 A 
ATOM      5  C   UNL     1       1.671   3.106  19.403  0.00  0.00    +0.000 A 
ATOM      6  C   UNL     1       1.114   3.577  20.595  0.00  0.00    +0.000 A 
ATOM      7  C   UNL     1       1.294   4.907  20.951  0.00  0.00    +0.000 A 
ATOM      8  C   UNL     1       2.098   5.748  20.175  0.00  0.00    +0.000 A 
ATOM      9  C   UNL     1       2.737   5.260  19.021  0.00  0.00    +0.000 A 
BRANCH   4  11
ATOM     10  C   UNL     1       3.658   2.164  17.325  0.00  0.00    +0.000 C 
ATOM     11  C   UNL     1       2.829   3.448  17.219  0.00  0.00    +0.000 C 
ENDBRANCH   4  11
ENDBRANCH   1   9
BRANCH   1  12
ATOM     12  C   UNL     1       3.365   7.057  17.417  0.00  0.00    +0.000 C 
BRANCH  12  13
ATOM     13  C   UNL     1       2.753   8.414  17.780  0.00  0.00    +0.000 C 
ATOM     14  O   UNL     1       3.360   9.466  17.576  0.00  0.00    +0.000 OA
ATOM     15  N   UNL     1       1.448   8.395  18.205  0.00  0.00    +0.000 N 
ATOM     16  H   UNL     1       0.937   7.525  18.282  0.00  0.00    +0.000 HD
BRANCH  15  17
ATOM     17  C   UNL     1       0.769   9.626  18.525  0.00  0.00    +0.000 C 
BRANCH  17  18
ATOM     18  C   UNL     1       0.545   9.700  19.987  0.00  0.00    +0.000 A 
ATOM     19  C   UNL     1       0.514   8.749  20.987  0.00  0.00    +0.000 A 
ATOM     20  C   UNL     1       0.246   9.444  22.191  0.00  0.00    +0.000 A 
ATOM     21  C   UNL     1       0.137  10.772  21.852  0.00  0.00    +0.000 A 
ATOM     22  O   UNL     1       0.314  10.937  20.516  0.00  0.00    +0.000 OA
ENDBRANCH  17  18
ENDBRANCH  15  17
ENDBRANCH  12  13
ENDBRANCH   1  12
BRANCH   2  23
ATOM     23  C   UNL     1       6.106   6.851  18.139  0.00  0.00    +0.000 C 
BRANCH  23  24
ATOM     24  C   UNL     1       7.396   6.169  17.674  0.00  0.00    +0.000 C 
BRANCH  24  25
ATOM     25  C   UNL     1       7.103   5.187  16.544  0.00  0.00    +0.000 C 
ATOM     26  O   UNL     1       6.979   3.982  16.750  0.00  0.00    +0.000 OA
ATOM     27  N   UNL     1       7.016   5.779  15.294  0.00  0.00    +0.000 N 
ATOM     28  C   UNL     1       6.802   5.008  14.138  0.00  0.00    +0.000 A 
ATOM     29  C   UNL     1       5.755   4.097  14.065  0.00  0.00    +0.000 A 
ATOM     30  C   UNL     1       5.612   3.332  12.909  0.00  0.00    +0.000 A 
ATOM     31  C   UNL     1       6.536   3.475  11.883  0.00  0.00    +0.000 A 
ATOM     32  C   UNL     1       7.529   4.430  12.036  0.00  0.00    +0.000 A 
ATOM     33  N   UNL     1       7.656   5.233  13.119  0.00  0.00    +0.000 NA
ATOM     34  H   UNL     1       7.605   6.584  15.127  0.00  0.00    +0.000 HD
ENDBRANCH  24  25
ENDBRANCH  23  24
ENDBRANCH   2  23
TORSDOF 9
ENDMDL
MODEL 8
REMARK VINA RESULT:      -7.9      1.347      1.637
REMARK  Name = 
REMARK  10 active torsions:
REMARK  status: ('A' for Active; 'I' for Inactive)
REMARK    1  A    between atoms: C_1  and  C_2
REMARK    2  A    between atoms: C_2  and  C_3
REMARK    3  A    between atoms: C_8  and  N_9
REMARK    4  A    between atoms: N_9  and  C_10
REMARK    5  A    between atoms: C_10  and  C_11
REMARK    6  A    between atoms: N_13  and  C_14
REMARK    7  A    between atoms: C_14  and  C_15
REMARK    8  A    between atoms: C_20  and  C_22
REMARK    9  A    between atoms: C_22  and  C_23
REMARK   10  A    between atoms: C_23  and  C_24
REMARK                            x       y       z     vdW  Elec       q    Type
REMARK                         _______ _______ _______ _____ _____    ______ ____
ROOT
ATOM      1  N   UNL     1       3.648   5.323  19.628  0.00  0.00    +0.000 N 
ATOM      2  C   UNL     1       4.950   4.889  19.321  0.00  0.00    +0.000 C 
ATOM      3  O   UNL     1       5.293   3.706  19.315  0.00  0.00    +0.000 OA
ENDROOT
BRANCH   1   9
ATOM      4  C   UNL     1       1.955   3.653  18.917  0.00  0.00    +0.000 A 
ATOM      5  C   UNL     1       1.188   2.527  19.267  0.00  0.00    +0.000 A 
ATOM      6  C   UNL     1       1.024   2.159  20.605  0.00  0.00    +0.000 A 
ATOM      7  C   UNL     1       1.581   2.949  21.601  0.00  0.00    +0.000 A 
ATOM      8  C   UNL     1       2.376   4.053  21.273  0.00  0.00    +0.000 A 
ATOM      9  C   UNL     1       2.621   4.380  19.928  0.00  0.00    +0.000 A 
BRANCH   4  11
ATOM     10  C   UNL     1       2.980   3.424  16.654  0.00  0.00    +0.000 C 
ATOM     11  C   UNL     1       1.901   4.124  17.487  0.00  0.00    +0.000 C 
ENDBRANCH   4  11
ENDBRANCH   1   9
BRANCH   1  12
ATOM     12  C   UNL     1       3.329   6.758  19.734  0.00  0.00    +0.000 C 
BRANCH  12  13
ATOM     13  C   UNL     1       2.802   7.596  18.564  0.00  0.00    +0.000 C 
ATOM     14  O   UNL     1       3.148   7.366  17.404  0.00  0.00    +0.000 OA
ATOM     15  N   UNL     1       1.826   8.511  18.866  0.00  0.00    +0.000 N 
ATOM     16  H   UNL     1       1.493   8.625  19.815  0.00  0.00    +0.000 HD
BRANCH  15  17
ATOM     17  C   UNL     1       1.234   9.315  17.825  0.00  0.00    +0.000 C 
BRANCH  17  18
ATOM     18  C   UNL     1       0.317  10.308  18.430  0.00  0.00    +0.000 A 
ATOM     19  C   UNL     1      -0.996  10.248  18.849  0.00  0.00    +0.000 A 
ATOM     20  C   UNL     1      -1.318  11.537  19.339  0.00  0.00    +0.000 A 
ATOM     21  C   UNL     1      -0.182  12.298  19.194  0.00  0.00    +0.000 A 
ATOM     22  O   UNL     1       0.815  11.563  18.639  0.00  0.00    +0.000 OA
ENDBRANCH  17  18
ENDBRANCH  15  17
ENDBRANCH  12  13
ENDBRANCH   1  12
BRANCH   2  23
ATOM     23  C   UNL     1       5.981   5.996  19.056  0.00  0.00    +0.000 C 
BRANCH  23  24
ATOM     24  C   UNL     1       7.274   5.522  18.385  0.00  0.00    +0.000 C 
BRANCH  24  25
ATOM     25  C   UNL     1       7.178   5.677  16.870  0.00  0.00    +0.000 C 
ATOM     26  O   UNL     1       7.043   6.776  16.339  0.00  0.00    +0.000 OA
ATOM     27  N   UNL     1       7.235   4.476  16.179  0.00  0.00    +0.000 N 
ATOM     28  C   UNL     1       7.107   4.438  14.779  0.00  0.00    +0.000 A 
ATOM     29  C   UNL     1       7.894   5.242  13.963  0.00  0.00    +0.000 A 
ATOM     30  C   UNL     1       7.700   5.190  12.584  0.00  0.00    +0.000 A 
ATOM     31  C   UNL     1       6.708   4.367  12.070  0.00  0.00    +0.000 A 
ATOM     32  C   UNL     1       5.995   3.581  12.961  0.00  0.00    +0.000 A 
ATOM     33  N   UNL     1       6.203   3.561  14.299  0.00  0.00    +0.000 NA
ATOM     34  H   UNL     1       6.833   3.668  16.633  0.00  0.00    +0.000 HD
ENDBRANCH  24  25
ENDBRANCH  23  24
ENDBRANCH   2  23
TORSDOF 9
ENDMDL
MODEL 9
REMARK VINA RESULT:      -7.8      1.916      7.837
REMARK  Name = 
REMARK  10 active torsions:
REMARK  status: ('A' for Active; 'I' for Inactive)
REMARK    1  A    between atoms: C_1  and  C_2
REMARK    2  A    between atoms: C_2  and  C_3
REMARK    3  A    between atoms: C_8  and  N_9
REMARK    4  A    between atoms: N_9  and  C_10
REMARK    5  A    between atoms: C_10  and  C_11
REMARK    6  A    between atoms: N_13  and  C_14
REMARK    7  A    between atoms: C_14  and  C_15
REMARK    8  A    between atoms: C_20  and  C_22
REMARK    9  A    between atoms: C_22  and  C_23
REMARK   10  A    between atoms: C_23  and  C_24
REMARK                            x       y       z     vdW  Elec       q    Type
REMARK                         _______ _______ _______ _____ _____    ______ ____
ROOT
ATOM      1  N   UNL     1       3.373   5.801  19.262  0.00  0.00    +0.000 N 
ATOM      2  C   UNL     1       2.553   6.516  18.370  0.00  0.00    +0.000 C 
ATOM      3  O   UNL     1       1.445   6.128  17.998  0.00  0.00    +0.000 OA
ENDROOT
BRANCH   1   9
ATOM      4  C   UNL     1       3.351   3.320  19.304  0.00  0.00    +0.000 A 
ATOM      5  C   UNL     1       3.149   2.154  20.064  0.00  0.00    +0.000 A 
ATOM      6  C   UNL     1       2.480   2.203  21.290  0.00  0.00    +0.000 A 
ATOM      7  C   UNL     1       1.963   3.412  21.734  0.00  0.00    +0.000 A 
ATOM      8  C   UNL     1       2.183   4.589  21.010  0.00  0.00    +0.000 A 
ATOM      9  C   UNL     1       2.931   4.565  19.820  0.00  0.00    +0.000 A 
BRANCH   4  11
ATOM     10  C   UNL     1       2.703   3.073  16.908  0.00  0.00    +0.000 C 
ATOM     11  C   UNL     1       3.869   3.162  17.898  0.00  0.00    +0.000 C 
ENDBRANCH   4  11
ENDBRANCH   1   9
BRANCH   1  12
ATOM     12  C   UNL     1       4.737   6.260  19.577  0.00  0.00    +0.000 C 
BRANCH  12  13
ATOM     13  C   UNL     1       6.000   5.639  18.968  0.00  0.00    +0.000 C 
ATOM     14  O   UNL     1       6.699   4.853  19.608  0.00  0.00    +0.000 OA
ATOM     15  N   UNL     1       6.221   5.897  17.639  0.00  0.00    +0.000 N 
ATOM     16  H   UNL     1       5.584   6.477  17.107  0.00  0.00    +0.000 HD
BRANCH  15  17
ATOM     17  C   UNL     1       7.357   5.320  16.964  0.00  0.00    +0.000 C 
BRANCH  17  18
ATOM     18  C   UNL     1       6.945   4.840  15.626  0.00  0.00    +0.000 A 
ATOM     19  C   UNL     1       5.954   3.982  15.194  0.00  0.00    +0.000 A 
ATOM     20  C   UNL     1       6.067   3.918  13.784  0.00  0.00    +0.000 A 
ATOM     21  C   UNL     1       7.112   4.744  13.445  0.00  0.00    +0.000 A 
ATOM     22  O   UNL     1       7.654   5.306  14.556  0.00  0.00    +0.000 OA
ENDBRANCH  17  18
ENDBRANCH  15  17
ENDBRANCH  12  13
ENDBRANCH   1  12
BRANCH   2  23
ATOM     23  C   UNL     1       3.150   7.812  17.802  0.00  0.00    +0.000 C 
BRANCH  23  24
ATOM     24  C   UNL     1       2.119   8.848  17.344  0.00  0.00    +0.000 C 
BRANCH  24  25
ATOM     25  C   UNL     1       1.605   9.652  18.534  0.00  0.00    +0.000 C 
ATOM     26  O   UNL     1       1.889  10.837  18.686  0.00  0.00    +0.000 OA
ATOM     27  N   UNL     1       0.822   8.917  19.411  0.00  0.00    +0.000 N 
ATOM     28  C   UNL     1       0.312   9.495  20.587  0.00  0.00    +0.000 A 
ATOM     29  C   UNL     1      -0.395  10.691  20.552  0.00  0.00    +0.000 A 
ATOM     30  C   UNL     1      -0.846  11.238  21.752  0.00  0.00    +0.000 A 
ATOM     31  C   UNL     1      -0.549  10.592  22.945  0.00  0.00    +0.000 A 
ATOM     32  C   UNL     1       0.136   9.389  22.875  0.00  0.00    +0.000 A 
ATOM     33  N   UNL     1       0.532   8.801  21.722  0.00  0.00    +0.000 NA
ATOM     34  H   UNL     1       1.054   7.939  19.521  0.00  0.00    +0.000 HD
ENDBRANCH  24  25
ENDBRANCH  23  24
ENDBRANCH   2  23
TORSDOF 9
ENDMDL
