MODEL 1
REMARK VINA RESULT:      -6.3      0.000      0.000
REMARK  Name = 
REMARK  6 active torsions:
REMARK  status: ('A' for Active; 'I' for Inactive)
REMARK    1  A    between atoms: C_1  and  N_2
REMARK    2  A    between atoms: N_2  and  C_3
REMARK    3  A    between atoms: N_2  and  C_4
REMARK    4  A    between atoms: C_4  and  C_5
REMARK    5  A    between atoms: C_5  and  C_6
REMARK    6  A    between atoms: C_6  and  N_7
REMARK                            x       y       z     vdW  Elec       q    Type
REMARK                         _______ _______ _______ _____ _____    ______ ____
ROOT
ATOM      1  N   UNL     1       4.179   3.742  18.095  0.00  0.00    +0.000 N 
ATOM      2  C   UNL     1       4.909   3.305  19.176  0.00  0.00    +0.000 A 
ATOM      3  N   UNL     1       4.600   2.201  19.874  0.00  0.00    +0.000 N 
ATOM      4  N   UNL     1       5.927   4.092  19.415  0.00  0.00    +0.000 NA
ATOM      5  C   UNL     1       5.877   5.065  18.448  0.00  0.00    +0.000 A 
ATOM      6  C   UNL     1       6.734   6.154  18.233  0.00  0.00    +0.000 A 
ATOM      7  C   UNL     1       6.481   7.014  17.158  0.00  0.00    +0.000 A 
ATOM      8  C   UNL     1       5.391   6.793  16.311  0.00  0.00    +0.000 A 
ATOM      9  C   UNL     1       4.523   5.716  16.511  0.00  0.00    +0.000 A 
ATOM     10  C   UNL     1       4.793   4.870  17.596  0.00  0.00    +0.000 A 
ATOM     11  H   UNL     1       3.654   1.844  19.913  0.00  0.00    +0.000 HD
ATOM     12  H   UNL     1       5.099   2.103  20.754  0.00  0.00    +0.000 HD
ENDROOT
BRANCH   1  13
ATOM     13  C   UNL     1       2.982   3.131  17.550  0.00  0.00    +0.000 C 
BRANCH  13  14
ATOM     14  C   UNL     1       1.711   3.778  18.099  0.00  0.00    +0.000 C 
BRANCH  14  15
ATOM     15  C   UNL     1       1.034   2.911  19.166  0.00  0.00    +0.000 C 
BRANCH  15  17
ATOM     16  C   UNL     1       1.501   2.734  21.552  0.00  0.00    +0.000 C 
ATOM     17  N   UNL     1       0.932   3.561  20.486  0.00  0.00    +0.000 NA
ATOM     18  C   UNL     1       1.610   4.860  20.459  0.00  0.00    +0.000 C 
ENDBRANCH  15  17
ENDBRANCH  14  15
ENDBRANCH  13  14
ENDBRANCH   1  13
TORSDOF 4
ENDMDL
MODEL 2
REMARK VINA RESULT:      -6.2      1.449      5.208
REMARK  Name = 
REMARK  6 active torsions:
REMARK  status: ('A' for Active; 'I' for Inactive)
REMARK    1  A    between atoms: C_1  and  N_2
REMARK    2  A    between atoms: N_2  and  C_3
REMARK    3  A    between atoms: N_2  and  C_4
REMARK    4  A    between atoms: C_4  and  C_5
REMARK    5  A    between atoms: C_5  and  C_6
REMARK    6  A    between atoms: C_6  and  N_7
REMARK                            x       y       z     vdW  Elec       q    Type
REMARK                         _______ _______ _______ _____ _____    ______ ____
ROOT
ATOM      1  N   UNL     1       3.864   4.097  18.444  0.00  0.00    +0.000 N 
ATOM      2  C   UNL     1       5.025   3.625  19.009  0.00  0.00    +0.000 A 
ATOM      3  N   UNL     1       6.236   3.808  18.460  0.00  0.00    +0.000 N 
ATOM      4  N   UNL     1       4.790   2.998  20.133  0.00  0.00    +0.000 NA
ATOM      5  C   UNL     1       3.433   3.079  20.324  0.00  0.00    +0.000 A 
ATOM      6  C   UNL     1       2.649   2.582  21.376  0.00  0.00    +0.000 A 
ATOM      7  C   UNL     1       1.267   2.805  21.355  0.00  0.00    +0.000 A 
ATOM      8  C   UNL     1       0.675   3.510  20.303  0.00  0.00    +0.000 A 
ATOM      9  C   UNL     1       1.439   4.009  19.243  0.00  0.00    +0.000 A 
ATOM     10  C   UNL     1       2.820   3.771  19.284  0.00  0.00    +0.000 A 
ATOM     11  H   UNL     1       6.353   3.948  17.465  0.00  0.00    +0.000 HD
ATOM     12  H   UNL     1       6.977   3.246  18.872  0.00  0.00    +0.000 HD
ENDROOT
BRANCH   1  13
ATOM     13  C   UNL     1       3.736   4.825  17.196  0.00  0.00    +0.000 C 
BRANCH  13  14
ATOM     14  C   UNL     1       4.032   6.314  17.371  0.00  0.00    +0.000 C 
BRANCH  14  15
ATOM     15  C   UNL     1       5.154   6.795  16.445  0.00  0.00    +0.000 C 
BRANCH  15  17
ATOM     16  C   UNL     1       6.916   5.476  15.398  0.00  0.00    +0.000 C 
ATOM     17  N   UNL     1       6.432   6.086  16.637  0.00  0.00    +0.000 NA
ATOM     18  C   UNL     1       7.445   7.009  17.157  0.00  0.00    +0.000 C 
ENDBRANCH  15  17
ENDBRANCH  14  15
ENDBRANCH  13  14
ENDBRANCH   1  13
TORSDOF 4
ENDMDL
MODEL 3
REMARK VINA RESULT:      -6.0      1.853      5.165
REMARK  Name = 
REMARK  6 active torsions:
REMARK  status: ('A' for Active; 'I' for Inactive)
REMARK    1  A    between atoms: C_1  and  N_2
REMARK    2  A    between atoms: N_2  and  C_3
REMARK    3  A    between atoms: N_2  and  C_4
REMARK    4  A    between atoms: C_4  and  C_5
REMARK    5  A    between atoms: C_5  and  C_6
REMARK    6  A    between atoms: C_6  and  N_7
REMARK                            x       y       z     vdW  Elec       q    Type
REMARK                         _______ _______ _______ _____ _____    ______ ____
ROOT
ATOM      1  N   UNL     1       4.540   5.141  18.371  0.00  0.00    +0.000 N 
ATOM      2  C   UNL     1       5.469   4.511  19.167  0.00  0.00    +0.000 A 
ATOM      3  N   UNL     1       6.694   5.007  19.400  0.00  0.00    +0.000 N 
ATOM      4  N   UNL     1       4.997   3.395  19.659  0.00  0.00    +0.000 NA
ATOM      5  C   UNL     1       3.711   3.298  19.190  0.00  0.00    +0.000 A 
ATOM      6  C   UNL     1       2.750   2.300  19.418  0.00  0.00    +0.000 A 
ATOM      7  C   UNL     1       1.486   2.431  18.833  0.00  0.00    +0.000 A 
ATOM      8  C   UNL     1       1.182   3.535  18.031  0.00  0.00    +0.000 A 
ATOM      9  C   UNL     1       2.127   4.537  17.788  0.00  0.00    +0.000 A 
ATOM     10  C   UNL     1       3.388   4.384  18.382  0.00  0.00    +0.000 A 
ATOM     11  H   UNL     1       7.147   5.632  18.746  0.00  0.00    +0.000 HD
ATOM     12  H   UNL     1       7.338   4.355  19.839  0.00  0.00    +0.000 HD
ENDROOT
BRANCH   1  13
ATOM     13  C   UNL     1       4.714   6.388  17.651  0.00  0.00    +0.000 C 
BRANCH  13  14
ATOM     14  C   UNL     1       5.125   6.155  16.198  0.00  0.00    +0.000 C 
BRANCH  14  15
ATOM     15  C   UNL     1       6.624   5.870  16.057  0.00  0.00    +0.000 C 
BRANCH  15  17
ATOM     16  C   UNL     1       5.884   3.608  15.537  0.00  0.00    +0.000 C 
ATOM     17  N   UNL     1       6.929   4.615  15.348  0.00  0.00    +0.000 NA
ATOM     18  C   UNL     1       7.103   4.878  13.916  0.00  0.00    +0.000 C 
ENDBRANCH  15  17
ENDBRANCH  14  15
ENDBRANCH  13  14
ENDBRANCH   1  13
TORSDOF 4
ENDMDL
MODEL 4
REMARK VINA RESULT:      -6.0      0.942      1.267
REMARK  Name = 
REMARK  6 active torsions:
REMARK  status: ('A' for Active; 'I' for Inactive)
REMARK    1  A    between atoms: C_1  and  N_2
REMARK    2  A    between atoms: N_2  and  C_3
REMARK    3  A    between atoms: N_2  and  C_4
REMARK    4  A    between atoms: C_4  and  C_5
REMARK    5  A    between atoms: C_5  and  C_6
REMARK    6  A    between atoms: C_6  and  N_7
REMARK                            x       y       z     vdW  Elec       q    Type
REMARK                         _______ _______ _______ _____ _____    ______ ____
ROOT
ATOM      1  N   UNL     1       4.291   3.362  17.988  0.00  0.00    +0.000 N 
ATOM      2  C   UNL     1       4.962   3.373  19.188  0.00  0.00    +0.000 A 
ATOM      3  N   UNL     1       4.551   2.689  20.267  0.00  0.00    +0.000 N 
ATOM      4  N   UNL     1       6.037   4.117  19.128  0.00  0.00    +0.000 NA
ATOM      5  C   UNL     1       6.085   4.593  17.841  0.00  0.00    +0.000 A 
ATOM      6  C   UNL     1       7.033   5.430  17.234  0.00  0.00    +0.000 A 
ATOM      7  C   UNL     1       6.872   5.771  15.886  0.00  0.00    +0.000 A 
ATOM      8  C   UNL     1       5.783   5.288  15.155  0.00  0.00    +0.000 A 
ATOM      9  C   UNL     1       4.825   4.457  15.743  0.00  0.00    +0.000 A 
ATOM     10  C   UNL     1       5.005   4.131  17.094  0.00  0.00    +0.000 A 
ATOM     11  H   UNL     1       3.578   2.446  20.403  0.00  0.00    +0.000 HD
ATOM     12  H   UNL     1       5.024   2.938  21.132  0.00  0.00    +0.000 HD
ENDROOT
BRANCH   1  13
ATOM     13  C   UNL     1       3.057   2.660  17.688  0.00  0.00    +0.000 C 
BRANCH  13  14
ATOM     14  C   UNL     1       1.833   3.553  17.880  0.00  0.00    +0.000 C 
BRANCH  14  15
ATOM     15  C   UNL     1       1.052   3.202  19.151  0.00  0.00    +0.000 C 
BRANCH  15  17
ATOM     16  C   UNL     1       1.557   5.022  20.691  0.00  0.00    +0.000 C 
ATOM     17  N   UNL     1       1.733   3.598  20.397  0.00  0.00    +0.000 NA
ATOM     18  C   UNL     1       1.230   2.800  21.519  0.00  0.00    +0.000 C 
ENDBRANCH  15  17
ENDBRANCH  14  15
ENDBRANCH  13  14
ENDBRANCH   1  13
TORSDOF 4
ENDMDL
MODEL 5
REMARK VINA RESULT:      -6.0      2.094      5.532
REMARK  Name = 
REMARK  6 active torsions:
REMARK  status: ('A' for Active; 'I' for Inactive)
REMARK    1  A    between atoms: C_1  and  N_2
REMARK    2  A    between atoms: N_2  and  C_3
REMARK    3  A    between atoms: N_2  and  C_4
REMARK    4  A    between atoms: C_4  and  C_5
REMARK    5  A    between atoms: C_5  and  C_6
REMARK    6  A    between atoms: C_6  and  N_7
REMARK                            x       y       z     vdW  Elec       q    Type
REMARK                         _______ _______ _______ _____ _____    ______ ____
ROOT
ATOM      1  N   UNL     1       2.554   5.960  18.825  0.00  0.00    +0.000 N 
ATOM      2  C   UNL     1       2.074   6.334  20.058  0.00  0.00    +0.000 A 
ATOM      3  N   UNL     1       2.112   7.597  20.510  0.00  0.00    +0.000 N 
ATOM      4  N   UNL     1       1.577   5.312  20.707  0.00  0.00    +0.000 NA
ATOM      5  C   UNL     1       1.716   4.237  19.866  0.00  0.00    +0.000 A 
ATOM      6  C   UNL     1       1.342   2.898  20.058  0.00  0.00    +0.000 A 
ATOM      7  C   UNL     1       1.579   1.974  19.034  0.00  0.00    +0.000 A 
ATOM      8  C   UNL     1       2.180   2.376  17.838  0.00  0.00    +0.000 A 
ATOM      9  C   UNL     1       2.565   3.704  17.628  0.00  0.00    +0.000 A 
ATOM     10  C   UNL     1       2.321   4.611  18.669  0.00  0.00    +0.000 A 
ATOM     11  H   UNL     1       2.802   8.259  20.179  0.00  0.00    +0.000 HD
ATOM     12  H   UNL     1       1.907   7.699  21.501  0.00  0.00    +0.000 HD
ENDROOT
BRANCH   1  13
ATOM     13  C   UNL     1       3.184   6.819  17.840  0.00  0.00    +0.000 C 
BRANCH  13  14
ATOM     14  C   UNL     1       4.687   6.564  17.740  0.00  0.00    +0.000 C 
BRANCH  14  15
ATOM     15  C   UNL     1       5.139   6.314  16.298  0.00  0.00    +0.000 C 
BRANCH  15  17
ATOM     16  C   UNL     1       7.326   6.677  17.308  0.00  0.00    +0.000 C 
ATOM     17  N   UNL     1       6.597   6.166  16.146  0.00  0.00    +0.000 NA
ATOM     18  C   UNL     1       6.940   4.757  15.933  0.00  0.00    +0.000 C 
ENDBRANCH  15  17
ENDBRANCH  14  15
ENDBRANCH  13  14
ENDBRANCH   1  13
TORSDOF 4
ENDMDL
MODEL 6
REMARK VINA RESULT:      -6.0      1.684      2.011
REMARK  Name = 
REMARK  6 active torsions:
REMARK  status: ('A' for Active; 'I' for Inactive)
REMARK    1  A    between atoms: C_1  and  N_2
REMARK    2  A    between atoms: N_2  and  C_3
REMARK    3  A    between atoms: N_2  and  C_4
REMARK    4  A    between atoms: C_4  and  C_5
REMARK    5  A    between atoms: C_5  and  C_6
REMARK    6  A    between atoms: C_6  and  N_7
REMARK                            x       y       z     vdW  Elec       q    Type
REMARK                         _______ _______ _______ _____ _____    ______ ____
ROOT
ATOM      1  N   UNL     1       3.546   5.047  18.135  0.00  0.00    +0.000 N 
ATOM      2  C   UNL     1       3.990   5.513  19.351  0.00  0.00    +0.000 A 
ATOM      3  N   UNL     1       3.166   5.854  20.353  0.00  0.00    +0.000 N 
ATOM      4  N   UNL     1       5.297   5.566  19.394  0.00  0.00    +0.000 NA
ATOM      5  C   UNL     1       5.726   5.100  18.176  0.00  0.00    +0.000 A 
ATOM      6  C   UNL     1       7.033   4.937  17.692  0.00  0.00    +0.000 A 
ATOM      7  C   UNL     1       7.220   4.424  16.404  0.00  0.00    +0.000 A 
ATOM      8  C   UNL     1       6.124   4.080  15.608  0.00  0.00    +0.000 A 
ATOM      9  C   UNL     1       4.813   4.239  16.070  0.00  0.00    +0.000 A 
ATOM     10  C   UNL     1       4.650   4.757  17.362  0.00  0.00    +0.000 A 
ATOM     11  H   UNL     1       2.215   6.154  20.181  0.00  0.00    +0.000 HD
ATOM     12  H   UNL     1       3.611   6.361  21.114  0.00  0.00    +0.000 HD
ENDROOT
BRANCH   1  13
ATOM     13  C   UNL     1       2.167   4.869  17.723  0.00  0.00    +0.000 C 
BRANCH  13  14
ATOM     14  C   UNL     1       1.693   3.431  17.924  0.00  0.00    +0.000 C 
BRANCH  14  15
ATOM     15  C   UNL     1       0.992   3.234  19.273  0.00  0.00    +0.000 C 
BRANCH  15  17
ATOM     16  C   UNL     1       3.060   2.037  19.757  0.00  0.00    +0.000 C 
ATOM     17  N   UNL     1       1.675   2.280  20.166  0.00  0.00    +0.000 NA
ATOM     18  C   UNL     1       1.651   2.778  21.544  0.00  0.00    +0.000 C 
ENDBRANCH  15  17
ENDBRANCH  14  15
ENDBRANCH  13  14
ENDBRANCH   1  13
TORSDOF 4
ENDMDL
MODEL 7
REMARK VINA RESULT:      -6.0      1.918      5.380
REMARK  Name = 
REMARK  6 active torsions:
REMARK  status: ('A' for Active; 'I' for Inactive)
REMARK    1  A    between atoms: C_1  and  N_2
REMARK    2  A    between atoms: N_2  and  C_3
REMARK    3  A    between atoms: N_2  and  C_4
REMARK    4  A    between atoms: C_4  and  C_5
REMARK    5  A    between atoms: C_5  and  C_6
REMARK    6  A    between atoms: C_6  and  N_7
REMARK                            x       y       z     vdW  Elec       q    Type
REMARK                         _______ _______ _______ _____ _____    ______ ____
ROOT
ATOM      1  N   UNL     1       3.565   4.957  17.740  0.00  0.00    +0.000 N 
ATOM      2  C   UNL     1       3.308   6.241  18.159  0.00  0.00    +0.000 A 
ATOM      3  N   UNL     1       3.857   7.325  17.588  0.00  0.00    +0.000 N 
ATOM      4  N   UNL     1       2.467   6.258  19.161  0.00  0.00    +0.000 NA
ATOM      5  C   UNL     1       2.144   4.944  19.394  0.00  0.00    +0.000 A 
ATOM      6  C   UNL     1       1.276   4.394  20.349  0.00  0.00    +0.000 A 
ATOM      7  C   UNL     1       1.097   3.006  20.383  0.00  0.00    +0.000 A 
ATOM      8  C   UNL     1       1.773   2.179  19.482  0.00  0.00    +0.000 A 
ATOM      9  C   UNL     1       2.646   2.707  18.526  0.00  0.00    +0.000 A 
ATOM     10  C   UNL     1       2.812   4.099  18.512  0.00  0.00    +0.000 A 
ATOM     11  H   UNL     1       4.743   7.277  17.101  0.00  0.00    +0.000 HD
ATOM     12  H   UNL     1       3.738   8.187  18.114  0.00  0.00    +0.000 HD
ENDROOT
BRANCH   1  13
ATOM     13  C   UNL     1       4.455   4.553  16.668  0.00  0.00    +0.000 C 
BRANCH  13  14
ATOM     14  C   UNL     1       5.874   4.292  17.172  0.00  0.00    +0.000 C 
BRANCH  14  15
ATOM     15  C   UNL     1       6.819   5.462  16.878  0.00  0.00    +0.000 C 
BRANCH  15  17
ATOM     16  C   UNL     1       7.732   5.827  19.107  0.00  0.00    +0.000 C 
ATOM     17  N   UNL     1       6.968   6.405  18.000  0.00  0.00    +0.000 NA
ATOM     18  C   UNL     1       7.623   7.633  17.541  0.00  0.00    +0.000 C 
ENDBRANCH  15  17
ENDBRANCH  14  15
ENDBRANCH  13  14
ENDBRANCH   1  13
TORSDOF 4
ENDMDL
MODEL 8
REMARK VINA RESULT:      -5.9      1.723      2.034
REMARK  Name = 
REMARK  6 active torsions:
REMARK  status: ('A' for Active; 'I' for Inactive)
REMARK    1  A    between atoms: C_1  and  N_2
REMARK    2  A    between atoms: N_2  and  C_3
REMARK    3  A    between atoms: N_2  and  C_4
REMARK    4  A    between atoms: C_4  and  C_5
REMARK    5  A    between atoms: C_5  and  C_6
REMARK    6  A    between atoms: C_6  and  N_7
REMARK                            x       y       z     vdW  Elec       q    Type
REMARK                         _______ _______ _______ _____ _____    ______ ____
ROOT
ATOM      1  N   UNL     1       3.707   4.808  17.847  0.00  0.00    +0.000 N 
ATOM      2  C   UNL     1       4.163   5.518  18.933  0.00  0.00    +0.000 A 
ATOM      3  N   UNL     1       3.396   5.808  19.995  0.00  0.00    +0.000 N 
ATOM      4  N   UNL     1       5.419   5.854  18.791  0.00  0.00    +0.000 NA
ATOM      5  C   UNL     1       5.808   5.329  17.584  0.00  0.00    +0.000 A 
ATOM      6  C   UNL     1       7.058   5.385  16.948  0.00  0.00    +0.000 A 
ATOM      7  C   UNL     1       7.216   4.753  15.709  0.00  0.00    +0.000 A 
ATOM      8  C   UNL     1       6.147   4.078  15.112  0.00  0.00    +0.000 A 
ATOM      9  C   UNL     1       4.893   4.015  15.728  0.00  0.00    +0.000 A 
ATOM     10  C   UNL     1       4.757   4.657  16.967  0.00  0.00    +0.000 A 
ATOM     11  H   UNL     1       2.389   5.872  19.922  0.00  0.00    +0.000 HD
ATOM     12  H   UNL     1       3.793   6.497  20.629  0.00  0.00    +0.000 HD
ENDROOT
BRANCH   1  13
ATOM     13  C   UNL     1       2.369   4.285  17.648  0.00  0.00    +0.000 C 
BRANCH  13  14
ATOM     14  C   UNL     1       2.305   2.777  17.883  0.00  0.00    +0.000 C 
BRANCH  14  15
ATOM     15  C   UNL     1       1.597   2.424  19.196  0.00  0.00    +0.000 C 
BRANCH  15  17
ATOM     16  C   UNL     1       1.527   2.659  21.621  0.00  0.00    +0.000 C 
ATOM     17  N   UNL     1       2.294   2.912  20.399  0.00  0.00    +0.000 NA
ATOM     18  C   UNL     1       3.612   2.280  20.508  0.00  0.00    +0.000 C 
ENDBRANCH  15  17
ENDBRANCH  14  15
ENDBRANCH  13  14
ENDBRANCH   1  13
TORSDOF 4
ENDMDL
MODEL 9
REMARK VINA RESULT:      -5.9      1.662      2.410
REMARK  Name = 
REMARK  6 active torsions:
REMARK  status: ('A' for Active; 'I' for Inactive)
REMARK    1  A    between atoms: C_1  and  N_2
REMARK    2  A    between atoms: N_2  and  C_3
REMARK    3  A    between atoms: N_2  and  C_4
REMARK    4  A    between atoms: C_4  and  C_5
REMARK    5  A    between atoms: C_5  and  C_6
REMARK    6  A    between atoms: C_6  and  N_7
REMARK                            x       y       z     vdW  Elec       q    Type
REMARK                         _______ _______ _______ _____ _____    ______ ____
ROOT
ATOM      1  N   UNL     1       4.440   4.242  18.320  0.00  0.00    +0.000 N 
ATOM      2  C   UNL     1       4.075   5.494  18.758  0.00  0.00    +0.000 A 
ATOM      3  N   UNL     1       3.546   5.723  19.970  0.00  0.00    +0.000 N 
ATOM      4  N   UNL     1       4.320   6.407  17.853  0.00  0.00    +0.000 NA
ATOM      5  C   UNL     1       4.883   5.737  16.796  0.00  0.00    +0.000 A 
ATOM      6  C   UNL     1       5.343   6.235  15.567  0.00  0.00    +0.000 A 
ATOM      7  C   UNL     1       5.898   5.345  14.640  0.00  0.00    +0.000 A 
ATOM      8  C   UNL     1       5.992   3.981  14.931  0.00  0.00    +0.000 A 
ATOM      9  C   UNL     1       5.535   3.464  16.147  0.00  0.00    +0.000 A 
ATOM     10  C   UNL     1       4.980   4.374  17.059  0.00  0.00    +0.000 A 
ATOM     11  H   UNL     1       3.040   5.006  20.473  0.00  0.00    +0.000 HD
ATOM     12  H   UNL     1       3.146   6.651  20.089  0.00  0.00    +0.000 HD
ENDROOT
BRANCH   1  13
ATOM     13  C   UNL     1       4.304   2.993  19.045  0.00  0.00    +0.000 C 
BRANCH  13  14
ATOM     14  C   UNL     1       3.185   2.122  18.475  0.00  0.00    +0.000 C 
BRANCH  14  15
ATOM     15  C   UNL     1       2.023   1.952  19.460  0.00  0.00    +0.000 C 
BRANCH  15  17
ATOM     16  C   UNL     1       0.705   3.916  20.049  0.00  0.00    +0.000 C 
ATOM     17  N   UNL     1       1.860   3.084  20.391  0.00  0.00    +0.000 NA
ATOM     18  C   UNL     1       1.718   2.589  21.763  0.00  0.00    +0.000 C 
ENDBRANCH  15  17
ENDBRANCH  14  15
ENDBRANCH  13  14
ENDBRANCH   1  13
TORSDOF 4
ENDMDL
