MODEL 1
REMARK VINA RESULT:      -8.1      0.000      0.000
REMARK  Name = 
REMARK  6 active torsions:
REMARK  status: ('A' for Active; 'I' for Inactive)
REMARK    1  A    between atoms: C_2  and  C_3
REMARK    2  A    between atoms: C_3  and  N_4
REMARK    3  A    between atoms: C_6  and  C_7
REMARK    4  A    between atoms: N_9  and  C_10
REMARK    5  A    between atoms: N_9  and  C_11
REMARK    6  A    between atoms: C_17  and  N_18
REMARK                            x       y       z     vdW  Elec       q    Type
REMARK                         _______ _______ _______ _____ _____    ______ ____
ROOT
ATOM      1  C   UNL     1      -2.281  12.996  20.738  0.00  0.00    +0.000 C 
ATOM      2  O   UNL     1      -2.297  14.101  21.293  0.00  0.00    +0.000 OA
ATOM      3  N   UNL     1      -1.096  12.210  20.820  0.00  0.00    +0.000 N 
ATOM      4  C   UNL     1       0.086  12.809  21.435  0.00  0.00    +0.000 C 
ENDROOT
BRANCH   3   5
ATOM      5  C   UNL     1      -0.971  10.841  20.313  0.00  0.00    +0.000 C 
ATOM      6  C   UNL     1      -0.331   9.960  21.397  0.00  0.00    +0.000 C 
ATOM      7  C   UNL     1       1.175   9.999  21.278  0.00  0.00    +0.000 C 
ATOM      8  N   UNL     1       1.559   9.451  19.993  0.00  0.00    +0.000 N 
ATOM      9  C   UNL     1       1.743   8.069  19.938  0.00  0.00    +0.000 A 
ATOM     10  C   UNL     1       2.535   7.557  18.941  0.00  0.00    +0.000 A 
ATOM     11  C   UNL     1       2.738   6.193  18.924  0.00  0.00    +0.000 A 
ATOM     12  N   UNL     1       2.196   5.352  19.831  0.00  0.00    +0.000 NA
ATOM     13  C   UNL     1       1.468   5.949  20.782  0.00  0.00    +0.000 A 
ATOM     14  N   UNL     1       1.217   7.265  20.879  0.00  0.00    +0.000 NA
ATOM     15  C   UNL     1       1.054  10.145  18.808  0.00  0.00    +0.000 C 
ATOM     16  C   UNL     1      -0.423  10.508  18.915  0.00  0.00    +0.000 C 
BRANCH  11  17
ATOM     17  N   UNL     1       3.566   5.682  17.891  0.00  0.00    +0.000 N 
ATOM     18  C   UNL     1       4.483   6.396  17.142  0.00  0.00    +0.000 A 
ATOM     19  C   UNL     1       5.054   5.508  16.263  0.00  0.00    +0.000 A 
ATOM     20  C   UNL     1       4.418   4.282  16.528  0.00  0.00    +0.000 A 
ATOM     21  N   UNL     1       3.538   4.368  17.522  0.00  0.00    +0.000 NA
ENDBRANCH  11  17
ENDBRANCH   3   5
BRANCH   1  24
ATOM     22  N   UNL     1      -4.765  11.618  18.055  0.00  0.00    +0.000 N 
ATOM     23  C   UNL     1      -3.658  12.149  18.711  0.00  0.00    +0.000 A 
ATOM     24  C   UNL     1      -3.586  12.515  20.012  0.00  0.00    +0.000 A 
ATOM     25  C   UNL     1      -4.851  12.449  20.716  0.00  0.00    +0.000 A 
ATOM     26  C   UNL     1      -5.279  12.831  22.007  0.00  0.00    +0.000 A 
ATOM     27  C   UNL     1      -6.633  12.563  22.082  0.00  0.00    +0.000 A 
ATOM     28  N   UNL     1      -7.040  12.031  20.888  0.00  0.00    +0.000 N 
ATOM     29  C   UNL     1      -5.971  11.966  20.047  0.00  0.00    +0.000 A 
ATOM     30  C   UNL     1      -6.000  11.496  18.684  0.00  0.00    +0.000 A 
ATOM     31  O   UNL     1      -7.008  11.046  18.148  0.00  0.00    +0.000 OA
ATOM     32  H   UNL     1      -7.983  11.750  20.644  0.00  0.00    +0.000 HD
BRANCH  22  33
ATOM     33  C   UNL     1      -4.582  11.180  16.671  0.00  0.00    +0.000 C 
BRANCH  33  35
ATOM     34  C   UNL     1      -2.801   9.812  15.493  0.00  0.00    +0.000 C 
ATOM     35  C   UNL     1      -3.249  10.484  16.564  0.00  0.00    +0.000 C 
ENDBRANCH  33  35
ENDBRANCH  22  33
ENDBRANCH   1  24
TORSDOF 5
ENDMDL
MODEL 2
REMARK VINA RESULT:      -8.0      2.010      4.497
REMARK  Name = 
REMARK  6 active torsions:
REMARK  status: ('A' for Active; 'I' for Inactive)
REMARK    1  A    between atoms: C_2  and  C_3
REMARK    2  A    between atoms: C_3  and  N_4
REMARK    3  A    between atoms: C_6  and  C_7
REMARK    4  A    between atoms: N_9  and  C_10
REMARK    5  A    between atoms: N_9  and  C_11
REMARK    6  A    between atoms: C_17  and  N_18
REMARK                            x       y       z     vdW  Elec       q    Type
REMARK                         _______ _______ _______ _____ _____    ______ ____
ROOT
ATOM      1  C   UNL     1      -6.042  12.573  18.149  0.00  0.00    +0.000 C 
ATOM      2  O   UNL     1      -6.638  13.413  17.464  0.00  0.00    +0.000 OA
ATOM      3  N   UNL     1      -4.955  11.864  17.563  0.00  0.00    +0.000 N 
ATOM      4  C   UNL     1      -4.689  12.065  16.140  0.00  0.00    +0.000 C 
ENDROOT
BRANCH   3   5
ATOM      5  C   UNL     1      -4.089  10.928  18.284  0.00  0.00    +0.000 C 
ATOM      6  C   UNL     1      -3.036  11.723  19.072  0.00  0.00    +0.000 C 
ATOM      7  C   UNL     1      -1.820  11.975  18.210  0.00  0.00    +0.000 C 
ATOM      8  N   UNL     1      -1.225  10.703  17.855  0.00  0.00    +0.000 N 
ATOM      9  C   UNL     1      -0.292  10.182  18.752  0.00  0.00    +0.000 A 
ATOM     10  C   UNL     1       0.626   9.276  18.283  0.00  0.00    +0.000 A 
ATOM     11  C   UNL     1       1.565   8.800  19.175  0.00  0.00    +0.000 A 
ATOM     12  N   UNL     1       1.618   9.181  20.469  0.00  0.00    +0.000 NA
ATOM     13  C   UNL     1       0.703  10.091  20.822  0.00  0.00    +0.000 A 
ATOM     14  N   UNL     1      -0.247  10.611  20.027  0.00  0.00    +0.000 NA
ATOM     15  C   UNL     1      -2.063   9.778  17.090  0.00  0.00    +0.000 C 
ATOM     16  C   UNL     1      -3.483   9.672  17.636  0.00  0.00    +0.000 C 
BRANCH  11  17
ATOM     17  N   UNL     1       2.511   7.871  18.672  0.00  0.00    +0.000 N 
ATOM     18  C   UNL     1       2.805   6.627  19.200  0.00  0.00    +0.000 A 
ATOM     19  C   UNL     1       3.776   6.076  18.399  0.00  0.00    +0.000 A 
ATOM     20  C   UNL     1       4.030   7.052  17.420  0.00  0.00    +0.000 A 
ATOM     21  N   UNL     1       3.259   8.126  17.558  0.00  0.00    +0.000 NA
ENDBRANCH  11  17
ENDBRANCH   3   5
BRANCH   1  24
ATOM     22  N   UNL     1      -6.926  13.223  21.898  0.00  0.00    +0.000 N 
ATOM     23  C   UNL     1      -6.436  13.321  20.599  0.00  0.00    +0.000 A 
ATOM     24  C   UNL     1      -6.501  12.373  19.635  0.00  0.00    +0.000 A 
ATOM     25  C   UNL     1      -7.027  11.101  20.091  0.00  0.00    +0.000 A 
ATOM     26  C   UNL     1      -7.168   9.828  19.498  0.00  0.00    +0.000 A 
ATOM     27  C   UNL     1      -7.696   8.988  20.461  0.00  0.00    +0.000 A 
ATOM     28  N   UNL     1      -7.882   9.706  21.612  0.00  0.00    +0.000 N 
ATOM     29  C   UNL     1      -7.471  10.987  21.403  0.00  0.00    +0.000 A 
ATOM     30  C   UNL     1      -7.474  12.041  22.387  0.00  0.00    +0.000 A 
ATOM     31  O   UNL     1      -7.909  11.899  23.526  0.00  0.00    +0.000 OA
ATOM     32  H   UNL     1      -8.243   9.351  22.491  0.00  0.00    +0.000 HD
BRANCH  22  33
ATOM     33  C   UNL     1      -6.854  14.420  22.738  0.00  0.00    +0.000 C 
BRANCH  33  35
ATOM     34  C   UNL     1      -4.482  15.135  23.276  0.00  0.00    +0.000 C 
ATOM     35  C   UNL     1      -5.547  15.117  22.461  0.00  0.00    +0.000 C 
ENDBRANCH  33  35
ENDBRANCH  22  33
ENDBRANCH   1  24
TORSDOF 5
ENDMDL
MODEL 3
REMARK VINA RESULT:      -7.7      0.891      2.962
REMARK  Name = 
REMARK  6 active torsions:
REMARK  status: ('A' for Active; 'I' for Inactive)
REMARK    1  A    between atoms: C_2  and  C_3
REMARK    2  A    between atoms: C_3  and  N_4
REMARK    3  A    between atoms: C_6  and  C_7
REMARK    4  A    between atoms: N_9  and  C_10
REMARK    5  A    between atoms: N_9  and  C_11
REMARK    6  A    between atoms: C_17  and  N_18
REMARK                            x       y       z     vdW  Elec       q    Type
REMARK                         _______ _______ _______ _____ _____    ______ ____
ROOT
ATOM      1  C   UNL     1      -1.936  12.826  19.881  0.00  0.00    +0.000 C 
ATOM      2  O   UNL     1      -1.876  14.007  20.243  0.00  0.00    +0.000 OA
ATOM      3  N   UNL     1      -0.751  12.037  19.935  0.00  0.00    +0.000 N 
ATOM      4  C   UNL     1       0.504  12.702  20.280  0.00  0.00    +0.000 C 
ENDROOT
BRANCH   3   5
ATOM      5  C   UNL     1      -0.696  10.601  19.650  0.00  0.00    +0.000 C 
ATOM      6  C   UNL     1      -0.087   9.872  20.857  0.00  0.00    +0.000 C 
ATOM      7  C   UNL     1       1.418   9.818  20.728  0.00  0.00    +0.000 C 
ATOM      8  N   UNL     1       1.762   9.057  19.544  0.00  0.00    +0.000 N 
ATOM      9  C   UNL     1       1.880   7.677  19.707  0.00  0.00    +0.000 A 
ATOM     10  C   UNL     1       2.635   6.977  18.800  0.00  0.00    +0.000 A 
ATOM     11  C   UNL     1       2.773   5.618  18.998  0.00  0.00    +0.000 A 
ATOM     12  N   UNL     1       2.202   4.958  20.028  0.00  0.00    +0.000 NA
ATOM     13  C   UNL     1       1.514   5.731  20.875  0.00  0.00    +0.000 A 
ATOM     14  N   UNL     1       1.327   7.057  20.765  0.00  0.00    +0.000 NA
ATOM     15  C   UNL     1       1.276   9.580  18.266  0.00  0.00    +0.000 C 
ATOM     16  C   UNL     1      -0.180  10.026  18.319  0.00  0.00    +0.000 C 
BRANCH  11  17
ATOM     17  N   UNL     1       3.564   4.912  18.056  0.00  0.00    +0.000 N 
ATOM     18  C   UNL     1       4.390   5.465  17.095  0.00  0.00    +0.000 A 
ATOM     19  C   UNL     1       4.957   4.418  16.409  0.00  0.00    +0.000 A 
ATOM     20  C   UNL     1       4.411   3.265  17.000  0.00  0.00    +0.000 A 
ATOM     21  N   UNL     1       3.591   3.548  18.007  0.00  0.00    +0.000 NA
ENDBRANCH  11  17
ENDBRANCH   3   5
BRANCH   1  24
ATOM     22  N   UNL     1      -5.696  11.770  19.830  0.00  0.00    +0.000 N 
ATOM     23  C   UNL     1      -4.418  12.162  20.218  0.00  0.00    +0.000 A 
ATOM     24  C   UNL     1      -3.326  12.264  19.425  0.00  0.00    +0.000 A 
ATOM     25  C   UNL     1      -3.530  11.780  18.073  0.00  0.00    +0.000 A 
ATOM     26  C   UNL     1      -2.682  11.582  16.963  0.00  0.00    +0.000 A 
ATOM     27  C   UNL     1      -3.455  11.039  15.953  0.00  0.00    +0.000 A 
ATOM     28  N   UNL     1      -4.738  10.903  16.410  0.00  0.00    +0.000 N 
ATOM     29  C   UNL     1      -4.795  11.341  17.698  0.00  0.00    +0.000 A 
ATOM     30  C   UNL     1      -5.967  11.328  18.540  0.00  0.00    +0.000 A 
ATOM     31  O   UNL     1      -7.071  10.961  18.151  0.00  0.00    +0.000 OA
ATOM     32  H   UNL     1      -5.523  10.520  15.896  0.00  0.00    +0.000 HD
BRANCH  22  33
ATOM     33  C   UNL     1      -6.759  11.848  20.834  0.00  0.00    +0.000 C 
BRANCH  33  35
ATOM     34  C   UNL     1      -6.842  12.743  23.205  0.00  0.00    +0.000 C 
ATOM     35  C   UNL     1      -6.249  12.647  22.006  0.00  0.00    +0.000 C 
ENDBRANCH  33  35
ENDBRANCH  22  33
ENDBRANCH   1  24
TORSDOF 5
ENDMDL
MODEL 4
REMARK VINA RESULT:      -7.7      1.778      2.412
REMARK  Name = 
REMARK  6 active torsions:
REMARK  status: ('A' for Active; 'I' for Inactive)
REMARK    1  A    between atoms: C_2  and  C_3
REMARK    2  A    between atoms: C_3  and  N_4
REMARK    3  A    between atoms: C_6  and  C_7
REMARK    4  A    between atoms: N_9  and  C_10
REMARK    5  A    between atoms: N_9  and  C_11
REMARK    6  A    between atoms: C_17  and  N_18
REMARK                            x       y       z     vdW  Elec       q    Type
REMARK                         _______ _______ _______ _____ _____    ______ ____
ROOT
ATOM      1  C   UNL     1      -2.459  14.262  20.421  0.00  0.00    +0.000 C 
ATOM      2  O   UNL     1      -2.334  15.488  20.525  0.00  0.00    +0.000 OA
ATOM      3  N   UNL     1      -1.377  13.511  19.878  0.00  0.00    +0.000 N 
ATOM      4  C   UNL     1      -0.233  14.243  19.341  0.00  0.00    +0.000 C 
ENDROOT
BRANCH   3   5
ATOM      5  C   UNL     1      -1.338  12.048  19.801  0.00  0.00    +0.000 C 
ATOM      6  C   UNL     1      -0.593  11.501  21.028  0.00  0.00    +0.000 C 
ATOM      7  C   UNL     1       0.890  11.422  20.745  0.00  0.00    +0.000 C 
ATOM      8  N   UNL     1       1.111  10.494  19.656  0.00  0.00    +0.000 N 
ATOM      9  C   UNL     1       1.262   9.152  20.005  0.00  0.00    +0.000 A 
ATOM     10  C   UNL     1       1.922   8.323  19.133  0.00  0.00    +0.000 A 
ATOM     11  C   UNL     1       2.096   7.007  19.511  0.00  0.00    +0.000 A 
ATOM     12  N   UNL     1       1.648   6.508  20.684  0.00  0.00    +0.000 NA
ATOM     13  C   UNL     1       1.047   7.401  21.478  0.00  0.00    +0.000 A 
ATOM     14  N   UNL     1       0.834   8.696  21.196  0.00  0.00    +0.000 NA
ATOM     15  C   UNL     1       0.484  10.825  18.375  0.00  0.00    +0.000 C 
ATOM     16  C   UNL     1      -0.963  11.282  18.521  0.00  0.00    +0.000 C 
BRANCH  11  17
ATOM     17  N   UNL     1       2.788   6.167  18.603  0.00  0.00    +0.000 N 
ATOM     18  C   UNL     1       4.014   6.422  18.015  0.00  0.00    +0.000 A 
ATOM     19  C   UNL     1       4.300   5.345  17.211  0.00  0.00    +0.000 A 
ATOM     20  C   UNL     1       3.193   4.490  17.350  0.00  0.00    +0.000 A 
ATOM     21  N   UNL     1       2.288   4.961  18.203  0.00  0.00    +0.000 NA
ENDBRANCH  11  17
ENDBRANCH   3   5
BRANCH   1  24
ATOM     22  N   UNL     1      -6.023  12.668  20.550  0.00  0.00    +0.000 N 
ATOM     23  C   UNL     1      -4.867  13.339  20.162  0.00  0.00    +0.000 A 
ATOM     24  C   UNL     1      -3.789  13.609  20.934  0.00  0.00    +0.000 A 
ATOM     25  C   UNL     1      -3.960  13.259  22.331  0.00  0.00    +0.000 A 
ATOM     26  C   UNL     1      -3.184  13.454  23.494  0.00  0.00    +0.000 A 
ATOM     27  C   UNL     1      -3.906  12.939  24.554  0.00  0.00    +0.000 A 
ATOM     28  N   UNL     1      -5.087  12.436  24.076  0.00  0.00    +0.000 N 
ATOM     29  C   UNL     1      -5.136  12.633  22.730  0.00  0.00    +0.000 A 
ATOM     30  C   UNL     1      -6.234  12.274  21.867  0.00  0.00    +0.000 A 
ATOM     31  O   UNL     1      -7.239  11.690  22.263  0.00  0.00    +0.000 OA
ATOM     32  H   UNL     1      -5.824  12.008  24.624  0.00  0.00    +0.000 HD
BRANCH  22  33
ATOM     33  C   UNL     1      -7.016  12.379  19.513  0.00  0.00    +0.000 C 
BRANCH  33  35
ATOM     34  C   UNL     1      -6.938   9.864  19.198  0.00  0.00    +0.000 C 
ATOM     35  C   UNL     1      -6.615  11.107  18.811  0.00  0.00    +0.000 C 
ENDBRANCH  33  35
ENDBRANCH  22  33
ENDBRANCH   1  24
TORSDOF 5
ENDMDL
MODEL 5
REMARK VINA RESULT:      -7.6      1.514      2.040
REMARK  Name = 
REMARK  6 active torsions:
REMARK  status: ('A' for Active; 'I' for Inactive)
REMARK    1  A    between atoms: C_2  and  C_3
REMARK    2  A    between atoms: C_3  and  N_4
REMARK    3  A    between atoms: C_6  and  C_7
REMARK    4  A    between atoms: N_9  and  C_10
REMARK    5  A    between atoms: N_9  and  C_11
REMARK    6  A    between atoms: C_17  and  N_18
REMARK                            x       y       z     vdW  Elec       q    Type
REMARK                         _______ _______ _______ _____ _____    ______ ____
ROOT
ATOM      1  C   UNL     1      -2.378  13.828  20.353  0.00  0.00    +0.000 C 
ATOM      2  O   UNL     1      -2.277  15.042  20.568  0.00  0.00    +0.000 OA
ATOM      3  N   UNL     1      -1.215  13.109  19.956  0.00  0.00    +0.000 N 
ATOM      4  C   UNL     1       0.005  13.866  19.687  0.00  0.00    +0.000 C 
ENDROOT
BRANCH   3   5
ATOM      5  C   UNL     1      -1.158  11.655  19.780  0.00  0.00    +0.000 C 
ATOM      6  C   UNL     1      -0.462  11.028  20.998  0.00  0.00    +0.000 C 
ATOM      7  C   UNL     1       1.032  10.979  20.776  0.00  0.00    +0.000 C 
ATOM      8  N   UNL     1       1.310  10.130  19.635  0.00  0.00    +0.000 N 
ATOM      9  C   UNL     1       1.458   8.768  19.896  0.00  0.00    +0.000 A 
ATOM     10  C   UNL     1       2.163   8.007  18.998  0.00  0.00    +0.000 A 
ATOM     11  C   UNL     1       2.333   6.669  19.291  0.00  0.00    +0.000 A 
ATOM     12  N   UNL     1       1.840   6.086  20.405  0.00  0.00    +0.000 NA
ATOM     13  C   UNL     1       1.196   6.917  21.233  0.00  0.00    +0.000 A 
ATOM     14  N   UNL     1       0.983   8.228  21.033  0.00  0.00    +0.000 NA
ATOM     15  C   UNL     1       0.736  10.547  18.354  0.00  0.00    +0.000 C 
ATOM     16  C   UNL     1      -0.721  10.983  18.468  0.00  0.00    +0.000 C 
BRANCH  11  17
ATOM     17  N   UNL     1       3.072   5.898  18.358  0.00  0.00    +0.000 N 
ATOM     18  C   UNL     1       2.848   4.575  18.022  0.00  0.00    +0.000 A 
ATOM     19  C   UNL     1       3.796   4.239  17.086  0.00  0.00    +0.000 A 
ATOM     20  C   UNL     1       4.566   5.403  16.921  0.00  0.00    +0.000 A 
ATOM     21  N   UNL     1       4.127   6.415  17.662  0.00  0.00    +0.000 NA
ENDBRANCH  11  17
ENDBRANCH   3   5
BRANCH   1  24
ATOM     22  N   UNL     1      -5.760  11.971  19.742  0.00  0.00    +0.000 N 
ATOM     23  C   UNL     1      -4.566  12.669  19.586  0.00  0.00    +0.000 A 
ATOM     24  C   UNL     1      -3.777  13.154  20.573  0.00  0.00    +0.000 A 
ATOM     25  C   UNL     1      -4.341  13.020  21.902  0.00  0.00    +0.000 A 
ATOM     26  C   UNL     1      -3.954  13.468  23.184  0.00  0.00    +0.000 A 
ATOM     27  C   UNL     1      -4.940  13.069  24.068  0.00  0.00    +0.000 A 
ATOM     28  N   UNL     1      -5.905  12.395  23.370  0.00  0.00    +0.000 N 
ATOM     29  C   UNL     1      -5.559  12.367  22.054  0.00  0.00    +0.000 A 
ATOM     30  C   UNL     1      -6.338  11.778  20.992  0.00  0.00    +0.000 A 
ATOM     31  O   UNL     1      -7.393  11.181  21.182  0.00  0.00    +0.000 OA
ATOM     32  H   UNL     1      -6.757  11.998  23.752  0.00  0.00    +0.000 HD
BRANCH  22  33
ATOM     33  C   UNL     1      -6.389  11.433  18.534  0.00  0.00    +0.000 C 
BRANCH  33  35
ATOM     34  C   UNL     1      -6.917  13.348  16.959  0.00  0.00    +0.000 C 
ATOM     35  C   UNL     1      -7.268  12.502  17.939  0.00  0.00    +0.000 C 
ENDBRANCH  33  35
ENDBRANCH  22  33
ENDBRANCH   1  24
TORSDOF 5
ENDMDL
MODEL 6
REMARK VINA RESULT:      -7.5      2.141      3.851
REMARK  Name = 
REMARK  6 active torsions:
REMARK  status: ('A' for Active; 'I' for Inactive)
REMARK    1  A    between atoms: C_2  and  C_3
REMARK    2  A    between atoms: C_3  and  N_4
REMARK    3  A    between atoms: C_6  and  C_7
REMARK    4  A    between atoms: N_9  and  C_10
REMARK    5  A    between atoms: N_9  and  C_11
REMARK    6  A    between atoms: C_17  and  N_18
REMARK                            x       y       z     vdW  Elec       q    Type
REMARK                         _______ _______ _______ _____ _____    ______ ____
ROOT
ATOM      1  C   UNL     1      -1.995  14.185  20.332  0.00  0.00    +0.000 C 
ATOM      2  O   UNL     1      -1.843  15.410  20.250  0.00  0.00    +0.000 OA
ATOM      3  N   UNL     1      -1.182  13.343  19.520  0.00  0.00    +0.000 N 
ATOM      4  C   UNL     1      -0.311  13.973  18.531  0.00  0.00    +0.000 C 
ENDROOT
BRANCH   3   5
ATOM      5  C   UNL     1      -1.169  11.880  19.593  0.00  0.00    +0.000 C 
ATOM      6  C   UNL     1      -0.279  11.443  20.767  0.00  0.00    +0.000 C 
ATOM      7  C   UNL     1       1.154  11.299  20.309  0.00  0.00    +0.000 C 
ATOM      8  N   UNL     1       1.222  10.258  19.303  0.00  0.00    +0.000 N 
ATOM      9  C   UNL     1       1.401   8.955  19.770  0.00  0.00    +0.000 A 
ATOM     10  C   UNL     1       1.934   8.025  18.914  0.00  0.00    +0.000 A 
ATOM     11  C   UNL     1       2.139   6.751  19.403  0.00  0.00    +0.000 A 
ATOM     12  N   UNL     1       1.840   6.387  20.668  0.00  0.00    +0.000 NA
ATOM     13  C   UNL     1       1.357   7.371  21.435  0.00  0.00    +0.000 A 
ATOM     14  N   UNL     1       1.124   8.636  21.047  0.00  0.00    +0.000 NA
ATOM     15  C   UNL     1       0.440  10.472  18.085  0.00  0.00    +0.000 C 
ATOM     16  C   UNL     1      -0.971  10.977  18.364  0.00  0.00    +0.000 C 
BRANCH  11  17
ATOM     17  N   UNL     1       2.699   5.805  18.507  0.00  0.00    +0.000 N 
ATOM     18  C   UNL     1       2.151   4.586  18.149  0.00  0.00    +0.000 A 
ATOM     19  C   UNL     1       3.027   4.002  17.266  0.00  0.00    +0.000 A 
ATOM     20  C   UNL     1       4.088   4.918  17.156  0.00  0.00    +0.000 A 
ATOM     21  N   UNL     1       3.892   6.016  17.878  0.00  0.00    +0.000 NA
ENDBRANCH  11  17
ENDBRANCH   3   5
BRANCH   1  24
ATOM     22  N   UNL     1      -3.869  13.325  23.649  0.00  0.00    +0.000 N 
ATOM     23  C   UNL     1      -2.918  13.699  22.704  0.00  0.00    +0.000 A 
ATOM     24  C   UNL     1      -3.047  13.639  21.358  0.00  0.00    +0.000 A 
ATOM     25  C   UNL     1      -4.264  12.992  20.909  0.00  0.00    +0.000 A 
ATOM     26  C   UNL     1      -4.762  12.606  19.645  0.00  0.00    +0.000 A 
ATOM     27  C   UNL     1      -5.972  11.973  19.862  0.00  0.00    +0.000 A 
ATOM     28  N   UNL     1      -6.226  11.965  21.207  0.00  0.00    +0.000 N 
ATOM     29  C   UNL     1      -5.193  12.572  21.854  0.00  0.00    +0.000 A 
ATOM     30  C   UNL     1      -5.072  12.730  23.282  0.00  0.00    +0.000 A 
ATOM     31  O   UNL     1      -5.937  12.371  24.076  0.00  0.00    +0.000 OA
ATOM     32  H   UNL     1      -7.034  11.557  21.665  0.00  0.00    +0.000 HD
BRANCH  22  33
ATOM     33  C   UNL     1      -3.562  13.589  25.056  0.00  0.00    +0.000 C 
BRANCH  33  35
ATOM     34  C   UNL     1      -1.943  15.401  25.782  0.00  0.00    +0.000 C 
ATOM     35  C   UNL     1      -3.076  15.010  25.179  0.00  0.00    +0.000 C 
ENDBRANCH  33  35
ENDBRANCH  22  33
ENDBRANCH   1  24
TORSDOF 5
ENDMDL
MODEL 7
REMARK VINA RESULT:      -7.5      2.023      2.797
REMARK  Name = 
REMARK  6 active torsions:
REMARK  status: ('A' for Active; 'I' for Inactive)
REMARK    1  A    between atoms: C_2  and  C_3
REMARK    2  A    between atoms: C_3  and  N_4
REMARK    3  A    between atoms: C_6  and  C_7
REMARK    4  A    between atoms: N_9  and  C_10
REMARK    5  A    between atoms: N_9  and  C_11
REMARK    6  A    between atoms: C_17  and  N_18
REMARK                            x       y       z     vdW  Elec       q    Type
REMARK                         _______ _______ _______ _____ _____    ______ ____
ROOT
ATOM      1  C   UNL     1      -2.944  14.650  20.804  0.00  0.00    +0.000 C 
ATOM      2  O   UNL     1      -2.879  15.869  21.001  0.00  0.00    +0.000 OA
ATOM      3  N   UNL     1      -1.818  13.993  20.229  0.00  0.00    +0.000 N 
ATOM      4  C   UNL     1      -0.700  14.816  19.772  0.00  0.00    +0.000 C 
ENDROOT
BRANCH   3   5
ATOM      5  C   UNL     1      -1.706  12.544  20.046  0.00  0.00    +0.000 C 
ATOM      6  C   UNL     1      -1.012  11.933  21.273  0.00  0.00    +0.000 C 
ATOM      7  C   UNL     1       0.487  11.938  21.080  0.00  0.00    +0.000 C 
ATOM      8  N   UNL     1       0.816  11.107  19.940  0.00  0.00    +0.000 N 
ATOM      9  C   UNL     1       1.006   9.749  20.196  0.00  0.00    +0.000 A 
ATOM     10  C   UNL     1       1.755   9.019  19.308  0.00  0.00    +0.000 A 
ATOM     11  C   UNL     1       1.966   7.686  19.597  0.00  0.00    +0.000 A 
ATOM     12  N   UNL     1       1.472   7.079  20.697  0.00  0.00    +0.000 NA
ATOM     13  C   UNL     1       0.784   7.882  21.517  0.00  0.00    +0.000 A 
ATOM     14  N   UNL     1       0.529   9.185  21.320  0.00  0.00    +0.000 NA
ATOM     15  C   UNL     1       0.253  11.511  18.651  0.00  0.00    +0.000 C 
ATOM     16  C   UNL     1      -1.220  11.896  18.738  0.00  0.00    +0.000 C 
BRANCH  11  17
ATOM     17  N   UNL     1       2.750   6.948  18.673  0.00  0.00    +0.000 N 
ATOM     18  C   UNL     1       2.773   5.572  18.528  0.00  0.00    +0.000 A 
ATOM     19  C   UNL     1       3.669   5.296  17.524  0.00  0.00    +0.000 A 
ATOM     20  C   UNL     1       4.160   6.551  17.125  0.00  0.00    +0.000 A 
ATOM     21  N   UNL     1       3.597   7.554  17.791  0.00  0.00    +0.000 NA
ENDBRANCH  11  17
ENDBRANCH   3   5
BRANCH   1  24
ATOM     22  N   UNL     1      -6.486  13.004  20.771  0.00  0.00    +0.000 N 
ATOM     23  C   UNL     1      -5.350  13.749  20.467  0.00  0.00    +0.000 A 
ATOM     24  C   UNL     1      -4.249  13.900  21.240  0.00  0.00    +0.000 A 
ATOM     25  C   UNL     1      -4.369  13.313  22.560  0.00  0.00    +0.000 A 
ATOM     26  C   UNL     1      -3.557  13.319  23.715  0.00  0.00    +0.000 A 
ATOM     27  C   UNL     1      -4.238  12.618  24.694  0.00  0.00    +0.000 A 
ATOM     28  N   UNL     1      -5.429  12.188  24.174  0.00  0.00    +0.000 N 
ATOM     29  C   UNL     1      -5.525  12.611  22.884  0.00  0.00    +0.000 A 
ATOM     30  C   UNL     1      -6.649  12.388  22.007  0.00  0.00    +0.000 A 
ATOM     31  O   UNL     1      -7.634  11.730  22.329  0.00  0.00    +0.000 OA
ATOM     32  H   UNL     1      -6.144  11.661  24.664  0.00  0.00    +0.000 HD
BRANCH  22  33
ATOM     33  C   UNL     1      -7.510  12.882  19.732  0.00  0.00    +0.000 C 
BRANCH  33  35
ATOM     34  C   UNL     1      -6.973  12.799  17.255  0.00  0.00    +0.000 C 
ATOM     35  C   UNL     1      -6.947  13.423  18.442  0.00  0.00    +0.000 C 
ENDBRANCH  33  35
ENDBRANCH  22  33
ENDBRANCH   1  24
TORSDOF 5
ENDMDL
MODEL 8
REMARK VINA RESULT:      -7.5      1.282      3.095
REMARK  Name = 
REMARK  6 active torsions:
REMARK  status: ('A' for Active; 'I' for Inactive)
REMARK    1  A    between atoms: C_2  and  C_3
REMARK    2  A    between atoms: C_3  and  N_4
REMARK    3  A    between atoms: C_6  and  C_7
REMARK    4  A    between atoms: N_9  and  C_10
REMARK    5  A    between atoms: N_9  and  C_11
REMARK    6  A    between atoms: C_17  and  N_18
REMARK                            x       y       z     vdW  Elec       q    Type
REMARK                         _______ _______ _______ _____ _____    ______ ____
ROOT
ATOM      1  C   UNL     1      -1.526  13.265  19.633  0.00  0.00    +0.000 C 
ATOM      2  O   UNL     1      -1.316  14.477  19.767  0.00  0.00    +0.000 OA
ATOM      3  N   UNL     1      -0.425  12.414  19.326  0.00  0.00    +0.000 N 
ATOM      4  C   UNL     1       0.867  13.035  19.046  0.00  0.00    +0.000 C 
ENDROOT
BRANCH   3   5
ATOM      5  C   UNL     1      -0.501  10.953  19.253  0.00  0.00    +0.000 C 
ATOM      6  C   UNL     1       0.102  10.354  20.533  0.00  0.00    +0.000 C 
ATOM      7  C   UNL     1       1.590  10.151  20.364  0.00  0.00    +0.000 C 
ATOM      8  N   UNL     1       1.815   9.201  19.294  0.00  0.00    +0.000 N 
ATOM      9  C   UNL     1       1.828   7.853  19.653  0.00  0.00    +0.000 A 
ATOM     10  C   UNL     1       2.481   6.967  18.835  0.00  0.00    +0.000 A 
ATOM     11  C   UNL     1       2.516   5.644  19.225  0.00  0.00    +0.000 A 
ATOM     12  N   UNL     1       1.942   5.191  20.360  0.00  0.00    +0.000 NA
ATOM     13  C   UNL     1       1.358   6.135  21.107  0.00  0.00    +0.000 A 
ATOM     14  N   UNL     1       1.275   7.442  20.809  0.00  0.00    +0.000 NA
ATOM     15  C   UNL     1       1.316   9.575  17.970  0.00  0.00    +0.000 C 
ATOM     16  C   UNL     1      -0.095  10.150  18.005  0.00  0.00    +0.000 C 
BRANCH  11  17
ATOM     17  N   UNL     1       3.204   4.744  18.371  0.00  0.00    +0.000 N 
ATOM     18  C   UNL     1       4.028   5.079  17.312  0.00  0.00    +0.000 A 
ATOM     19  C   UNL     1       4.475   3.899  16.769  0.00  0.00    +0.000 A 
ATOM     20  C   UNL     1       3.864   2.895  17.541  0.00  0.00    +0.000 A 
ATOM     21  N   UNL     1       3.117   3.390  18.523  0.00  0.00    +0.000 NA
ENDBRANCH  11  17
ENDBRANCH   3   5
BRANCH   1  24
ATOM     22  N   UNL     1      -5.012  12.492  21.217  0.00  0.00    +0.000 N 
ATOM     23  C   UNL     1      -3.682  12.847  21.009  0.00  0.00    +0.000 A 
ATOM     24  C   UNL     1      -2.987  12.740  19.853  0.00  0.00    +0.000 A 
ATOM     25  C   UNL     1      -3.705  12.063  18.791  0.00  0.00    +0.000 A 
ATOM     26  C   UNL     1      -3.360  11.628  17.493  0.00  0.00    +0.000 A 
ATOM     27  C   UNL     1      -4.468  10.988  16.971  0.00  0.00    +0.000 A 
ATOM     28  N   UNL     1      -5.471  11.022  17.902  0.00  0.00    +0.000 N 
ATOM     29  C   UNL     1      -5.018  11.662  19.014  0.00  0.00    +0.000 A 
ATOM     30  C   UNL     1      -5.767  11.870  20.229  0.00  0.00    +0.000 A 
ATOM     31  O   UNL     1      -6.938  11.527  20.366  0.00  0.00    +0.000 OA
ATOM     32  H   UNL     1      -6.397  10.619  17.804  0.00  0.00    +0.000 HD
BRANCH  22  33
ATOM     33  C   UNL     1      -5.597  12.807  22.522  0.00  0.00    +0.000 C 
BRANCH  33  35
ATOM     34  C   UNL     1      -4.393  12.420  24.720  0.00  0.00    +0.000 C 
ATOM     35  C   UNL     1      -4.478  12.999  23.513  0.00  0.00    +0.000 C 
ENDBRANCH  33  35
ENDBRANCH  22  33
ENDBRANCH   1  24
TORSDOF 5
ENDMDL
MODEL 9
REMARK VINA RESULT:      -7.5      2.040      4.473
REMARK  Name = 
REMARK  6 active torsions:
REMARK  status: ('A' for Active; 'I' for Inactive)
REMARK    1  A    between atoms: C_2  and  C_3
REMARK    2  A    between atoms: C_3  and  N_4
REMARK    3  A    between atoms: C_6  and  C_7
REMARK    4  A    between atoms: N_9  and  C_10
REMARK    5  A    between atoms: N_9  and  C_11
REMARK    6  A    between atoms: C_17  and  N_18
REMARK                            x       y       z     vdW  Elec       q    Type
REMARK                         _______ _______ _______ _____ _____    ______ ____
ROOT
ATOM      1  C   UNL     1      -5.779  12.813  18.012  0.00  0.00    +0.000 C 
ATOM      2  O   UNL     1      -6.337  13.650  17.291  0.00  0.00    +0.000 OA
ATOM      3  N   UNL     1      -4.877  11.890  17.410  0.00  0.00    +0.000 N 
ATOM      4  C   UNL     1      -4.765  11.887  15.953  0.00  0.00    +0.000 C 
ENDROOT
BRANCH   3   5
ATOM      5  C   UNL     1      -4.061  10.924  18.150  0.00  0.00    +0.000 C 
ATOM      6  C   UNL     1      -3.039  11.683  19.009  0.00  0.00    +0.000 C 
ATOM      7  C   UNL     1      -1.778  11.938  18.216  0.00  0.00    +0.000 C 
ATOM      8  N   UNL     1      -1.183  10.666  17.859  0.00  0.00    +0.000 N 
ATOM      9  C   UNL     1      -0.303  10.110  18.788  0.00  0.00    +0.000 A 
ATOM     10  C   UNL     1       0.624   9.202  18.344  0.00  0.00    +0.000 A 
ATOM     11  C   UNL     1       1.511   8.691  19.268  0.00  0.00    +0.000 A 
ATOM     12  N   UNL     1       1.503   9.039  20.573  0.00  0.00    +0.000 NA
ATOM     13  C   UNL     1       0.585   9.954  20.902  0.00  0.00    +0.000 A 
ATOM     14  N   UNL     1      -0.316  10.506  20.074  0.00  0.00    +0.000 NA
ATOM     15  C   UNL     1      -1.994   9.773  17.030  0.00  0.00    +0.000 C 
ATOM     16  C   UNL     1      -3.441   9.674  17.501  0.00  0.00    +0.000 C 
BRANCH  11  17
ATOM     17  N   UNL     1       2.468   7.760  18.790  0.00  0.00    +0.000 N 
ATOM     18  C   UNL     1       3.221   7.872  17.635  0.00  0.00    +0.000 A 
ATOM     19  C   UNL     1       4.010   6.750  17.566  0.00  0.00    +0.000 A 
ATOM     20  C   UNL     1       3.666   5.998  18.703  0.00  0.00    +0.000 A 
ATOM     21  N   UNL     1       2.757   6.605  19.460  0.00  0.00    +0.000 NA
ENDBRANCH  11  17
ENDBRANCH   3   5
BRANCH   1  24
ATOM     22  N   UNL     1      -6.019  13.974  21.734  0.00  0.00    +0.000 N 
ATOM     23  C   UNL     1      -5.691  13.846  20.387  0.00  0.00    +0.000 A 
ATOM     24  C   UNL     1      -6.073  12.852  19.552  0.00  0.00    +0.000 A 
ATOM     25  C   UNL     1      -6.786  11.772  20.204  0.00  0.00    +0.000 A 
ATOM     26  C   UNL     1      -7.261  10.511  19.781  0.00  0.00    +0.000 A 
ATOM     27  C   UNL     1      -7.822   9.897  20.885  0.00  0.00    +0.000 A 
ATOM     28  N   UNL     1      -7.706  10.738  21.959  0.00  0.00    +0.000 N 
ATOM     29  C   UNL     1      -7.071  11.875  21.561  0.00  0.00    +0.000 A 
ATOM     30  C   UNL     1      -6.730  12.989  22.412  0.00  0.00    +0.000 A 
ATOM     31  O   UNL     1      -7.035  13.048  23.599  0.00  0.00    +0.000 OA
ATOM     32  H   UNL     1      -8.015  10.551  22.907  0.00  0.00    +0.000 HD
BRANCH  22  33
ATOM     33  C   UNL     1      -5.594  15.197  22.418  0.00  0.00    +0.000 C 
BRANCH  33  35
ATOM     34  C   UNL     1      -7.882  16.189  21.958  0.00  0.00    +0.000 C 
ATOM     35  C   UNL     1      -6.549  16.304  22.051  0.00  0.00    +0.000 C 
ENDBRANCH  33  35
ENDBRANCH  22  33
ENDBRANCH   1  24
TORSDOF 5
ENDMDL
