MODEL 1
REMARK VINA RESULT:      -8.3      0.000      0.000
REMARK  Name = 
REMARK  6 active torsions:
REMARK  status: ('A' for Active; 'I' for Inactive)
REMARK    1  A    between atoms: C_2  and  O_3
REMARK    2  A    between atoms: C_2  and  C_4
REMARK    3  A    between atoms: C_4  and  C_5
REMARK    4  A    between atoms: N_7  and  C_8
REMARK    5  A    between atoms: C_8  and  C_9
REMARK    6  A    between atoms: C_13  and  C_14
REMARK                            x       y       z     vdW  Elec       q    Type
REMARK                         _______ _______ _______ _____ _____    ______ ____
ROOT
ATOM      1  C   UNL     1      -2.334  10.532  17.970  0.00  0.00    +0.000 A 
ATOM      2  N   UNL     1      -1.088  10.199  18.175  0.00  0.00    +0.000 NA
ATOM      3  N   UNL     1      -0.402  10.831  19.199  0.00  0.00    +0.000 N 
ATOM      4  C   UNL     1      -0.915  11.964  19.840  0.00  0.00    +0.000 A 
ATOM      5  O   UNL     1      -0.240  12.769  20.474  0.00  0.00    +0.000 OA
ATOM      6  C   UNL     1      -2.394  12.147  19.739  0.00  0.00    +0.000 A 
ATOM      7  C   UNL     1      -3.098  11.488  18.813  0.00  0.00    +0.000 A 
ATOM      8  C   UNL     1      -4.586  11.664  18.653  0.00  0.00    +0.000 C 
ATOM      9  C   UNL     1      -5.246  12.357  19.846  0.00  0.00    +0.000 C 
ATOM     10  C   UNL     1      -4.423  13.552  20.306  0.00  0.00    +0.000 C 
ATOM     11  C   UNL     1      -3.019  13.108  20.719  0.00  0.00    +0.000 C 
ENDROOT
BRANCH   1  12
ATOM     12  C   UNL     1      -3.026   9.832  16.806  0.00  0.00    +0.000 C 
BRANCH  12  14
ATOM     13  O   UNL     1      -3.455  10.189  14.445  0.00  0.00    +0.000 OA
ATOM     14  C   UNL     1      -2.957  10.562  15.495  0.00  0.00    +0.000 C 
BRANCH  14  15
ATOM     15  O   UNL     1      -2.239  11.711  15.576  0.00  0.00    +0.000 OA
ATOM     16  H   UNL     1      -1.301  11.592  15.818  0.00  0.00    +0.000 HD
ENDBRANCH  14  15
ENDBRANCH  12  14
ENDBRANCH   1  12
BRANCH   3  17
ATOM     17  C   UNL     1       1.048  10.609  19.274  0.00  0.00    +0.000 C 
BRANCH  17  18
ATOM     18  C   UNL     1       1.490   9.170  19.168  0.00  0.00    +0.000 A 
ATOM     19  N   UNL     1       1.370   8.317  20.170  0.00  0.00    +0.000 NA
ATOM     20  C   UNL     1       1.882   7.084  19.834  0.00  0.00    +0.000 A 
ATOM     21  C   UNL     1       1.845   5.938  20.650  0.00  0.00    +0.000 A 
ATOM     22  C   UNL     1       2.299   4.699  20.166  0.00  0.00    +0.000 A 
ATOM     23  C   UNL     1       2.866   4.638  18.888  0.00  0.00    +0.000 A 
ATOM     24  C   UNL     1       2.971   5.779  18.077  0.00  0.00    +0.000 A 
ATOM     25  C   UNL     1       2.444   6.994  18.566  0.00  0.00    +0.000 A 
ATOM     26  S   UNL     1       2.349   8.548  17.808  0.00  0.00    +0.000 S 
BRANCH  22  27
ATOM     27  C   UNL     1       2.101   3.452  20.999  0.00  0.00    +0.000 C 
ATOM     28  F   UNL     1       2.320   3.644  22.324  0.00  0.00    +0.000 F 
ATOM     29  F   UNL     1       0.837   2.960  20.895  0.00  0.00    +0.000 F 
ATOM     30  F   UNL     1       2.933   2.440  20.627  0.00  0.00    +0.000 F 
ENDBRANCH  22  27
ENDBRANCH  17  18
ENDBRANCH   3  17
TORSDOF 6
ENDMDL
MODEL 2
REMARK VINA RESULT:      -8.0      1.009      1.446
REMARK  Name = 
REMARK  6 active torsions:
REMARK  status: ('A' for Active; 'I' for Inactive)
REMARK    1  A    between atoms: C_2  and  O_3
REMARK    2  A    between atoms: C_2  and  C_4
REMARK    3  A    between atoms: C_4  and  C_5
REMARK    4  A    between atoms: N_7  and  C_8
REMARK    5  A    between atoms: C_8  and  C_9
REMARK    6  A    between atoms: C_13  and  C_14
REMARK                            x       y       z     vdW  Elec       q    Type
REMARK                         _______ _______ _______ _____ _____    ______ ____
ROOT
ATOM      1  C   UNL     1      -3.048  10.662  17.809  0.00  0.00    +0.000 A 
ATOM      2  N   UNL     1      -1.838  10.547  18.286  0.00  0.00    +0.000 NA
ATOM      3  N   UNL     1      -1.499  11.302  19.397  0.00  0.00    +0.000 N 
ATOM      4  C   UNL     1      -2.313  12.342  19.858  0.00  0.00    +0.000 A 
ATOM      5  O   UNL     1      -1.929  13.260  20.576  0.00  0.00    +0.000 OA
ATOM      6  C   UNL     1      -3.746  12.272  19.441  0.00  0.00    +0.000 A 
ATOM      7  C   UNL     1      -4.119  11.489  18.423  0.00  0.00    +0.000 A 
ATOM      8  C   UNL     1      -5.546  11.409  17.947  0.00  0.00    +0.000 C 
ATOM      9  C   UNL     1      -6.549  11.999  18.939  0.00  0.00    +0.000 C 
ATOM     10  C   UNL     1      -6.049  13.323  19.499  0.00  0.00    +0.000 C 
ATOM     11  C   UNL     1      -4.713  13.129  20.218  0.00  0.00    +0.000 C 
ENDROOT
BRANCH   1  12
ATOM     12  C   UNL     1      -3.352   9.837  16.564  0.00  0.00    +0.000 C 
BRANCH  12  14
ATOM     13  O   UNL     1      -3.164  10.020  14.153  0.00  0.00    +0.000 OA
ATOM     14  C   UNL     1      -2.978  10.489  15.264  0.00  0.00    +0.000 C 
BRANCH  14  15
ATOM     15  O   UNL     1      -2.363  11.686  15.439  0.00  0.00    +0.000 OA
ATOM     16  H   UNL     1      -2.946  12.405  15.749  0.00  0.00    +0.000 HD
ENDBRANCH  14  15
ENDBRANCH  12  14
ENDBRANCH   1  12
BRANCH   3  17
ATOM     17  C   UNL     1      -0.082  11.330  19.785  0.00  0.00    +0.000 C 
BRANCH  17  18
ATOM     18  C   UNL     1       0.692  10.066  19.499  0.00  0.00    +0.000 A 
ATOM     19  N   UNL     1       0.729   9.051  20.344  0.00  0.00    +0.000 NA
ATOM     20  C   UNL     1       1.533   8.040  19.869  0.00  0.00    +0.000 A 
ATOM     21  C   UNL     1       1.728   6.794  20.493  0.00  0.00    +0.000 A 
ATOM     22  C   UNL     1       2.486   5.789  19.867  0.00  0.00    +0.000 A 
ATOM     23  C   UNL     1       3.114   6.075  18.649  0.00  0.00    +0.000 A 
ATOM     24  C   UNL     1       2.986   7.331  18.035  0.00  0.00    +0.000 A 
ATOM     25  C   UNL     1       2.162   8.295  18.657  0.00  0.00    +0.000 A 
ATOM     26  S   UNL     1       1.740   9.893  18.140  0.00  0.00    +0.000 S 
BRANCH  22  27
ATOM     27  C   UNL     1       2.548   4.408  20.479  0.00  0.00    +0.000 C 
ATOM     28  F   UNL     1       1.553   3.584  20.062  0.00  0.00    +0.000 F 
ATOM     29  F   UNL     1       3.712   3.768  20.187  0.00  0.00    +0.000 F 
ATOM     30  F   UNL     1       2.463   4.436  21.838  0.00  0.00    +0.000 F 
ENDBRANCH  22  27
ENDBRANCH  17  18
ENDBRANCH   3  17
TORSDOF 6
ENDMDL
MODEL 3
REMARK VINA RESULT:      -7.7      0.989      1.070
REMARK  Name = 
REMARK  6 active torsions:
REMARK  status: ('A' for Active; 'I' for Inactive)
REMARK    1  A    between atoms: C_2  and  O_3
REMARK    2  A    between atoms: C_2  and  C_4
REMARK    3  A    between atoms: C_4  and  C_5
REMARK    4  A    between atoms: N_7  and  C_8
REMARK    5  A    between atoms: C_8  and  C_9
REMARK    6  A    between atoms: C_13  and  C_14
REMARK                            x       y       z     vdW  Elec       q    Type
REMARK                         _______ _______ _______ _____ _____    ______ ____
ROOT
ATOM      1  C   UNL     1      -2.089  11.549  18.421  0.00  0.00    +0.000 A 
ATOM      2  N   UNL     1      -0.876  11.064  18.415  0.00  0.00    +0.000 NA
ATOM      3  N   UNL     1      -0.153  11.100  19.596  0.00  0.00    +0.000 N 
ATOM      4  C   UNL     1      -0.579  11.847  20.699  0.00  0.00    +0.000 A 
ATOM      5  O   UNL     1       0.152  12.217  21.613  0.00  0.00    +0.000 OA
ATOM      6  C   UNL     1      -2.037  12.171  20.734  0.00  0.00    +0.000 A 
ATOM      7  C   UNL     1      -2.782  12.067  19.629  0.00  0.00    +0.000 A 
ATOM      8  C   UNL     1      -4.248  12.412  19.608  0.00  0.00    +0.000 C 
ATOM      9  C   UNL     1      -4.863  12.528  21.003  0.00  0.00    +0.000 C 
ATOM     10  C   UNL     1      -3.951  13.310  21.938  0.00  0.00    +0.000 C 
ATOM     11  C   UNL     1      -2.592  12.619  22.063  0.00  0.00    +0.000 C 
ENDROOT
BRANCH   1  12
ATOM     12  C   UNL     1      -2.822  11.518  17.085  0.00  0.00    +0.000 C 
BRANCH  12  14
ATOM     13  O   UNL     1      -3.395   9.836  15.434  0.00  0.00    +0.000 OA
ATOM     14  C   UNL     1      -3.195  10.148  16.596  0.00  0.00    +0.000 C 
BRANCH  14  15
ATOM     15  O   UNL     1      -3.323   9.251  17.607  0.00  0.00    +0.000 OA
ATOM     16  H   UNL     1      -2.489   8.834  17.895  0.00  0.00    +0.000 HD
ENDBRANCH  14  15
ENDBRANCH  12  14
ENDBRANCH   1  12
BRANCH   3  17
ATOM     17  C   UNL     1       1.274  10.757  19.521  0.00  0.00    +0.000 C 
BRANCH  17  18
ATOM     18  C   UNL     1       1.579   9.292  19.325  0.00  0.00    +0.000 A 
ATOM     19  N   UNL     1       1.524   8.419  20.314  0.00  0.00    +0.000 NA
ATOM     20  C   UNL     1       1.884   7.161  19.885  0.00  0.00    +0.000 A 
ATOM     21  C   UNL     1       1.862   5.995  20.672  0.00  0.00    +0.000 A 
ATOM     22  C   UNL     1       2.146   4.741  20.104  0.00  0.00    +0.000 A 
ATOM     23  C   UNL     1       2.532   4.678  18.760  0.00  0.00    +0.000 A 
ATOM     24  C   UNL     1       2.621   5.834  17.969  0.00  0.00    +0.000 A 
ATOM     25  C   UNL     1       2.264   7.069  18.552  0.00  0.00    +0.000 A 
ATOM     26  S   UNL     1       2.197   8.651  17.848  0.00  0.00    +0.000 S 
BRANCH  22  27
ATOM     27  C   UNL     1       1.958   3.487  20.928  0.00  0.00    +0.000 C 
ATOM     28  F   UNL     1       2.293   3.639  22.234  0.00  0.00    +0.000 F 
ATOM     29  F   UNL     1       0.668   3.054  20.919  0.00  0.00    +0.000 F 
ATOM     30  F   UNL     1       2.708   2.446  20.470  0.00  0.00    +0.000 F 
ENDBRANCH  22  27
ENDBRANCH  17  18
ENDBRANCH   3  17
TORSDOF 6
ENDMDL
MODEL 4
REMARK VINA RESULT:      -7.7      1.704      2.363
REMARK  Name = 
REMARK  6 active torsions:
REMARK  status: ('A' for Active; 'I' for Inactive)
REMARK    1  A    between atoms: C_2  and  O_3
REMARK    2  A    between atoms: C_2  and  C_4
REMARK    3  A    between atoms: C_4  and  C_5
REMARK    4  A    between atoms: N_7  and  C_8
REMARK    5  A    between atoms: C_8  and  C_9
REMARK    6  A    between atoms: C_13  and  C_14
REMARK                            x       y       z     vdW  Elec       q    Type
REMARK                         _______ _______ _______ _____ _____    ______ ____
ROOT
ATOM      1  C   UNL     1      -1.785  10.538  18.218  0.00  0.00    +0.000 A 
ATOM      2  N   UNL     1      -0.682   9.882  17.974  0.00  0.00    +0.000 NA
ATOM      3  N   UNL     1       0.490  10.334  18.557  0.00  0.00    +0.000 N 
ATOM      4  C   UNL     1       0.569  11.585  19.180  0.00  0.00    +0.000 A 
ATOM      5  O   UNL     1       1.614  12.194  19.387  0.00  0.00    +0.000 OA
ATOM      6  C   UNL     1      -0.733  12.164  19.630  0.00  0.00    +0.000 A 
ATOM      7  C   UNL     1      -1.888  11.694  19.147  0.00  0.00    +0.000 A 
ATOM      8  C   UNL     1      -3.223  12.266  19.546  0.00  0.00    +0.000 C 
ATOM      9  C   UNL     1      -3.154  13.151  20.791  0.00  0.00    +0.000 C 
ATOM     10  C   UNL     1      -1.957  14.089  20.729  0.00  0.00    +0.000 C 
ATOM     11  C   UNL     1      -0.656  13.290  20.629  0.00  0.00    +0.000 C 
ENDROOT
BRANCH   1  12
ATOM     12  C   UNL     1      -3.036  10.018  17.519  0.00  0.00    +0.000 C 
BRANCH  12  14
ATOM     13  O   UNL     1      -4.331  11.566  16.175  0.00  0.00    +0.000 OA
ATOM     14  C   UNL     1      -3.420  10.760  16.272  0.00  0.00    +0.000 C 
BRANCH  14  15
ATOM     15  O   UNL     1      -2.651  10.423  15.206  0.00  0.00    +0.000 OA
ATOM     16  H   UNL     1      -3.082   9.832  14.559  0.00  0.00    +0.000 HD
ENDBRANCH  14  15
ENDBRANCH  12  14
ENDBRANCH   1  12
BRANCH   3  17
ATOM     17  C   UNL     1       1.747   9.726  18.100  0.00  0.00    +0.000 C 
BRANCH  17  18
ATOM     18  C   UNL     1       1.997   8.318  18.581  0.00  0.00    +0.000 A 
ATOM     19  N   UNL     1       2.264   7.324  17.753  0.00  0.00    +0.000 NA
ATOM     20  C   UNL     1       2.410   6.137  18.435  0.00  0.00    +0.000 A 
ATOM     21  C   UNL     1       2.768   4.905  17.858  0.00  0.00    +0.000 A 
ATOM     22  C   UNL     1       2.998   3.775  18.663  0.00  0.00    +0.000 A 
ATOM     23  C   UNL     1       2.784   3.872  20.042  0.00  0.00    +0.000 A 
ATOM     24  C   UNL     1       2.367   5.074  20.637  0.00  0.00    +0.000 A 
ATOM     25  C   UNL     1       2.211   6.207  19.809  0.00  0.00    +0.000 A 
ATOM     26  S   UNL     1       1.783   7.833  20.222  0.00  0.00    +0.000 S 
BRANCH  22  27
ATOM     27  C   UNL     1       3.537   2.508  18.037  0.00  0.00    +0.000 C 
ATOM     28  F   UNL     1       4.519   2.727  17.127  0.00  0.00    +0.000 F 
ATOM     29  F   UNL     1       4.066   1.663  18.964  0.00  0.00    +0.000 F 
ATOM     30  F   UNL     1       2.575   1.799  17.385  0.00  0.00    +0.000 F 
ENDBRANCH  22  27
ENDBRANCH  17  18
ENDBRANCH   3  17
TORSDOF 6
ENDMDL
MODEL 5
REMARK VINA RESULT:      -7.7      1.312      1.677
REMARK  Name = 
REMARK  6 active torsions:
REMARK  status: ('A' for Active; 'I' for Inactive)
REMARK    1  A    between atoms: C_2  and  O_3
REMARK    2  A    between atoms: C_2  and  C_4
REMARK    3  A    between atoms: C_4  and  C_5
REMARK    4  A    between atoms: N_7  and  C_8
REMARK    5  A    between atoms: C_8  and  C_9
REMARK    6  A    between atoms: C_13  and  C_14
REMARK                            x       y       z     vdW  Elec       q    Type
REMARK                         _______ _______ _______ _____ _____    ______ ____
ROOT
ATOM      1  C   UNL     1      -1.343  10.437  18.213  0.00  0.00    +0.000 A 
ATOM      2  N   UNL     1      -0.228   9.869  17.842  0.00  0.00    +0.000 NA
ATOM      3  N   UNL     1       0.950  10.288  18.438  0.00  0.00    +0.000 N 
ATOM      4  C   UNL     1       1.008  11.445  19.222  0.00  0.00    +0.000 A 
ATOM      5  O   UNL     1       2.037  12.065  19.472  0.00  0.00    +0.000 OA
ATOM      6  C   UNL     1      -0.295  11.903  19.793  0.00  0.00    +0.000 A 
ATOM      7  C   UNL     1      -1.451  11.453  19.293  0.00  0.00    +0.000 A 
ATOM      8  C   UNL     1      -2.788  11.909  19.815  0.00  0.00    +0.000 C 
ATOM      9  C   UNL     1      -2.700  12.621  21.165  0.00  0.00    +0.000 C 
ATOM     10  C   UNL     1      -1.543  13.609  21.187  0.00  0.00    +0.000 C 
ATOM     11  C   UNL     1      -0.218  12.887  20.933  0.00  0.00    +0.000 C 
ENDROOT
BRANCH   1  12
ATOM     12  C   UNL     1      -2.602   9.963  17.496  0.00  0.00    +0.000 C 
BRANCH  12  14
ATOM     13  O   UNL     1      -2.610  10.431  15.116  0.00  0.00    +0.000 OA
ATOM     14  C   UNL     1      -2.949  10.727  16.250  0.00  0.00    +0.000 C 
BRANCH  14  15
ATOM     15  O   UNL     1      -3.681  11.840  16.508  0.00  0.00    +0.000 OA
ATOM     16  H   UNL     1      -4.469  11.953  15.943  0.00  0.00    +0.000 HD
ENDBRANCH  14  15
ENDBRANCH  12  14
ENDBRANCH   1  12
BRANCH   3  17
ATOM     17  C   UNL     1       2.208   9.801  17.857  0.00  0.00    +0.000 C 
BRANCH  17  18
ATOM     18  C   UNL     1       2.534   8.355  18.139  0.00  0.00    +0.000 A 
ATOM     19  N   UNL     1       1.991   7.688  19.141  0.00  0.00    +0.000 NA
ATOM     20  C   UNL     1       2.482   6.404  19.207  0.00  0.00    +0.000 A 
ATOM     21  C   UNL     1       2.057   5.415  20.113  0.00  0.00    +0.000 A 
ATOM     22  C   UNL     1       2.548   4.101  20.023  0.00  0.00    +0.000 A 
ATOM     23  C   UNL     1       3.530   3.809  19.069  0.00  0.00    +0.000 A 
ATOM     24  C   UNL     1       4.016   4.792  18.193  0.00  0.00    +0.000 A 
ATOM     25  C   UNL     1       3.453   6.085  18.265  0.00  0.00    +0.000 A 
ATOM     26  S   UNL     1       3.769   7.489  17.301  0.00  0.00    +0.000 S 
BRANCH  22  27
ATOM     27  C   UNL     1       1.959   3.020  20.901  0.00  0.00    +0.000 C 
ATOM     28  F   UNL     1       2.714   2.734  21.991  0.00  0.00    +0.000 F 
ATOM     29  F   UNL     1       0.728   3.356  21.374  0.00  0.00    +0.000 F 
ATOM     30  F   UNL     1       1.799   1.841  20.238  0.00  0.00    +0.000 F 
ENDBRANCH  22  27
ENDBRANCH  17  18
ENDBRANCH   3  17
TORSDOF 6
ENDMDL
MODEL 6
REMARK VINA RESULT:      -7.7      2.285      2.963
REMARK  Name = 
REMARK  6 active torsions:
REMARK  status: ('A' for Active; 'I' for Inactive)
REMARK    1  A    between atoms: C_2  and  O_3
REMARK    2  A    between atoms: C_2  and  C_4
REMARK    3  A    between atoms: C_4  and  C_5
REMARK    4  A    between atoms: N_7  and  C_8
REMARK    5  A    between atoms: C_8  and  C_9
REMARK    6  A    between atoms: C_13  and  C_14
REMARK                            x       y       z     vdW  Elec       q    Type
REMARK                         _______ _______ _______ _____ _____    ______ ____
ROOT
ATOM      1  C   UNL     1      -3.656  11.677  18.264  0.00  0.00    +0.000 A 
ATOM      2  N   UNL     1      -2.356  11.557  18.263  0.00  0.00    +0.000 NA
ATOM      3  N   UNL     1      -1.659  11.981  19.383  0.00  0.00    +0.000 N 
ATOM      4  C   UNL     1      -2.268  12.744  20.385  0.00  0.00    +0.000 A 
ATOM      5  O   UNL     1      -1.663  13.444  21.191  0.00  0.00    +0.000 OA
ATOM      6  C   UNL     1      -3.758  12.646  20.454  0.00  0.00    +0.000 A 
ATOM      7  C   UNL     1      -4.455  12.164  19.419  0.00  0.00    +0.000 A 
ATOM      8  C   UNL     1      -5.958  12.076  19.430  0.00  0.00    +0.000 C 
ATOM      9  C   UNL     1      -6.564  12.234  20.825  0.00  0.00    +0.000 C 
ATOM     10  C   UNL     1      -5.904  13.378  21.580  0.00  0.00    +0.000 C 
ATOM     11  C   UNL     1      -4.403  13.126  21.730  0.00  0.00    +0.000 C 
ENDROOT
BRANCH   1  12
ATOM     12  C   UNL     1      -4.366  11.230  16.991  0.00  0.00    +0.000 C 
BRANCH  12  14
ATOM     13  O   UNL     1      -3.294  11.098  14.820  0.00  0.00    +0.000 OA
ATOM     14  C   UNL     1      -3.471  10.643  15.938  0.00  0.00    +0.000 C 
BRANCH  14  15
ATOM     15  O   UNL     1      -2.870   9.497  16.344  0.00  0.00    +0.000 OA
ATOM     16  H   UNL     1      -3.055   8.716  15.788  0.00  0.00    +0.000 HD
ENDBRANCH  14  15
ENDBRANCH  12  14
ENDBRANCH   1  12
BRANCH   3  17
ATOM     17  C   UNL     1      -0.195  12.046  19.279  0.00  0.00    +0.000 C 
BRANCH  17  18
ATOM     18  C   UNL     1       0.518  10.718  19.348  0.00  0.00    +0.000 A 
ATOM     19  N   UNL     1       1.208  10.231  18.332  0.00  0.00    +0.000 NA
ATOM     20  C   UNL     1       1.725   8.991  18.633  0.00  0.00    +0.000 A 
ATOM     21  C   UNL     1       2.566   8.235  17.796  0.00  0.00    +0.000 A 
ATOM     22  C   UNL     1       3.127   7.027  18.246  0.00  0.00    +0.000 A 
ATOM     23  C   UNL     1       2.772   6.545  19.511  0.00  0.00    +0.000 A 
ATOM     24  C   UNL     1       1.887   7.250  20.342  0.00  0.00    +0.000 A 
ATOM     25  C   UNL     1       1.394   8.493  19.887  0.00  0.00    +0.000 A 
ATOM     26  S   UNL     1       0.355   9.632  20.678  0.00  0.00    +0.000 S 
BRANCH  22  27
ATOM     27  C   UNL     1       4.153   6.315  17.393  0.00  0.00    +0.000 C 
ATOM     28  F   UNL     1       4.495   6.998  16.271  0.00  0.00    +0.000 F 
ATOM     29  F   UNL     1       5.315   6.091  18.065  0.00  0.00    +0.000 F 
ATOM     30  F   UNL     1       3.721   5.095  16.970  0.00  0.00    +0.000 F 
ENDBRANCH  22  27
ENDBRANCH  17  18
ENDBRANCH   3  17
TORSDOF 6
ENDMDL
MODEL 7
REMARK VINA RESULT:      -7.6      1.865      2.393
REMARK  Name = 
REMARK  6 active torsions:
REMARK  status: ('A' for Active; 'I' for Inactive)
REMARK    1  A    between atoms: C_2  and  O_3
REMARK    2  A    between atoms: C_2  and  C_4
REMARK    3  A    between atoms: C_4  and  C_5
REMARK    4  A    between atoms: N_7  and  C_8
REMARK    5  A    between atoms: C_8  and  C_9
REMARK    6  A    between atoms: C_13  and  C_14
REMARK                            x       y       z     vdW  Elec       q    Type
REMARK                         _______ _______ _______ _____ _____    ______ ____
ROOT
ATOM      1  C   UNL     1      -2.328  10.283  17.421  0.00  0.00    +0.000 A 
ATOM      2  N   UNL     1      -1.060  10.070  17.651  0.00  0.00    +0.000 NA
ATOM      3  N   UNL     1      -0.470  10.729  18.717  0.00  0.00    +0.000 N 
ATOM      4  C   UNL     1      -1.112  11.779  19.382  0.00  0.00    +0.000 A 
ATOM      5  O   UNL     1      -0.541  12.623  20.064  0.00  0.00    +0.000 OA
ATOM      6  C   UNL     1      -2.600  11.815  19.243  0.00  0.00    +0.000 A 
ATOM      7  C   UNL     1      -3.208  11.124  18.273  0.00  0.00    +0.000 A 
ATOM      8  C   UNL     1      -4.700  11.155  18.074  0.00  0.00    +0.000 C 
ATOM      9  C   UNL     1      -5.459  11.731  19.270  0.00  0.00    +0.000 C 
ATOM     10  C   UNL     1      -4.776  12.984  19.798  0.00  0.00    +0.000 C 
ATOM     11  C   UNL     1      -3.345  12.670  20.237  0.00  0.00    +0.000 C 
ENDROOT
BRANCH   1  12
ATOM     12  C   UNL     1      -2.914   9.562  16.212  0.00  0.00    +0.000 C 
BRANCH  12  14
ATOM     13  O   UNL     1      -3.583  11.489  14.900  0.00  0.00    +0.000 OA
ATOM     14  C   UNL     1      -3.038  10.400  14.972  0.00  0.00    +0.000 C 
BRANCH  14  15
ATOM     15  O   UNL     1      -2.493   9.802  13.882  0.00  0.00    +0.000 OA
ATOM     16  H   UNL     1      -2.498  10.345  13.071  0.00  0.00    +0.000 HD
ENDBRANCH  14  15
ENDBRANCH  12  14
ENDBRANCH   1  12
BRANCH   3  17
ATOM     17  C   UNL     1       0.993  10.653  18.828  0.00  0.00    +0.000 C 
BRANCH  17  18
ATOM     18  C   UNL     1       1.558   9.264  18.997  0.00  0.00    +0.000 A 
ATOM     19  N   UNL     1       2.138   8.609  18.007  0.00  0.00    +0.000 NA
ATOM     20  C   UNL     1       2.530   7.351  18.407  0.00  0.00    +0.000 A 
ATOM     21  C   UNL     1       3.238   6.429  17.614  0.00  0.00    +0.000 A 
ATOM     22  C   UNL     1       3.686   5.212  18.158  0.00  0.00    +0.000 A 
ATOM     23  C   UNL     1       3.345   4.894  19.477  0.00  0.00    +0.000 A 
ATOM     24  C   UNL     1       2.587   5.769  20.270  0.00  0.00    +0.000 A 
ATOM     25  C   UNL     1       2.211   7.013  19.716  0.00  0.00    +0.000 A 
ATOM     26  S   UNL     1       1.346   8.332  20.432  0.00  0.00    +0.000 S 
BRANCH  22  27
ATOM     27  C   UNL     1       4.581   4.311  17.337  0.00  0.00    +0.000 C 
ATOM     28  F   UNL     1       4.072   3.068  17.144  0.00  0.00    +0.000 F 
ATOM     29  F   UNL     1       4.821   4.816  16.097  0.00  0.00    +0.000 F 
ATOM     30  F   UNL     1       5.802   4.128  17.912  0.00  0.00    +0.000 F 
ENDBRANCH  22  27
ENDBRANCH  17  18
ENDBRANCH   3  17
TORSDOF 6
ENDMDL
MODEL 8
REMARK VINA RESULT:      -7.6      1.951      2.646
REMARK  Name = 
REMARK  6 active torsions:
REMARK  status: ('A' for Active; 'I' for Inactive)
REMARK    1  A    between atoms: C_2  and  O_3
REMARK    2  A    between atoms: C_2  and  C_4
REMARK    3  A    between atoms: C_4  and  C_5
REMARK    4  A    between atoms: N_7  and  C_8
REMARK    5  A    between atoms: C_8  and  C_9
REMARK    6  A    between atoms: C_13  and  C_14
REMARK                            x       y       z     vdW  Elec       q    Type
REMARK                         _______ _______ _______ _____ _____    ______ ____
ROOT
ATOM      1  C   UNL     1      -1.693  11.510  18.783  0.00  0.00    +0.000 A 
ATOM      2  N   UNL     1      -0.645  10.829  18.407  0.00  0.00    +0.000 NA
ATOM      3  N   UNL     1       0.395  10.678  19.309  0.00  0.00    +0.000 N 
ATOM      4  C   UNL     1       0.462  11.425  20.489  0.00  0.00    +0.000 A 
ATOM      5  O   UNL     1       1.488  11.616  21.135  0.00  0.00    +0.000 OA
ATOM      6  C   UNL     1      -0.837  11.987  20.970  0.00  0.00    +0.000 A 
ATOM      7  C   UNL     1      -1.887  12.071  20.146  0.00  0.00    +0.000 A 
ATOM      8  C   UNL     1      -3.205  12.658  20.576  0.00  0.00    +0.000 C 
ATOM      9  C   UNL     1      -3.339  12.800  22.093  0.00  0.00    +0.000 C 
ATOM     10  C   UNL     1      -2.065  13.366  22.703  0.00  0.00    +0.000 C 
ATOM     11  C   UNL     1      -0.876  12.450  22.405  0.00  0.00    +0.000 C 
ENDROOT
BRANCH   1  12
ATOM     12  C   UNL     1      -2.789  11.676  17.737  0.00  0.00    +0.000 C 
BRANCH  12  14
ATOM     13  O   UNL     1      -5.051  10.807  17.853  0.00  0.00    +0.000 OA
ATOM     14  C   UNL     1      -3.850  10.613  17.755  0.00  0.00    +0.000 C 
BRANCH  14  15
ATOM     15  O   UNL     1      -3.335   9.361  17.677  0.00  0.00    +0.000 OA
ATOM     16  H   UNL     1      -3.330   8.973  16.781  0.00  0.00    +0.000 HD
ENDBRANCH  14  15
ENDBRANCH  12  14
ENDBRANCH   1  12
BRANCH   3  17
ATOM     17  C   UNL     1       1.649  10.104  18.800  0.00  0.00    +0.000 C 
BRANCH  17  18
ATOM     18  C   UNL     1       1.858   8.640  19.095  0.00  0.00    +0.000 A 
ATOM     19  N   UNL     1       2.173   7.765  18.156  0.00  0.00    +0.000 NA
ATOM     20  C   UNL     1       2.266   6.494  18.675  0.00  0.00    +0.000 A 
ATOM     21  C   UNL     1       2.654   5.348  17.957  0.00  0.00    +0.000 A 
ATOM     22  C   UNL     1       2.822   4.114  18.610  0.00  0.00    +0.000 A 
ATOM     23  C   UNL     1       2.519   4.023  19.973  0.00  0.00    +0.000 A 
ATOM     24  C   UNL     1       2.071   5.137  20.700  0.00  0.00    +0.000 A 
ATOM     25  C   UNL     1       1.978   6.376  20.030  0.00  0.00    +0.000 A 
ATOM     26  S   UNL     1       1.533   7.937  20.636  0.00  0.00    +0.000 S 
BRANCH  22  27
ATOM     27  C   UNL     1       3.394   2.938  17.851  0.00  0.00    +0.000 C 
ATOM     28  F   UNL     1       4.293   3.291  16.898  0.00  0.00    +0.000 F 
ATOM     29  F   UNL     1       4.039   2.062  18.670  0.00  0.00    +0.000 F 
ATOM     30  F   UNL     1       2.434   2.216  17.209  0.00  0.00    +0.000 F 
ENDBRANCH  22  27
ENDBRANCH  17  18
ENDBRANCH   3  17
TORSDOF 6
ENDMDL
MODEL 9
REMARK VINA RESULT:      -7.5      1.199      1.646
REMARK  Name = 
REMARK  6 active torsions:
REMARK  status: ('A' for Active; 'I' for Inactive)
REMARK    1  A    between atoms: C_2  and  O_3
REMARK    2  A    between atoms: C_2  and  C_4
REMARK    3  A    between atoms: C_4  and  C_5
REMARK    4  A    between atoms: N_7  and  C_8
REMARK    5  A    between atoms: C_8  and  C_9
REMARK    6  A    between atoms: C_13  and  C_14
REMARK                            x       y       z     vdW  Elec       q    Type
REMARK                         _______ _______ _______ _____ _____    ______ ____
ROOT
ATOM      1  C   UNL     1      -1.764  11.587  18.763  0.00  0.00    +0.000 A 
ATOM      2  N   UNL     1      -0.627  11.034  18.438  0.00  0.00    +0.000 NA
ATOM      3  N   UNL     1       0.367  10.969  19.401  0.00  0.00    +0.000 N 
ATOM      4  C   UNL     1       0.280  11.685  20.600  0.00  0.00    +0.000 A 
ATOM      5  O   UNL     1       1.237  11.965  21.314  0.00  0.00    +0.000 OA
ATOM      6  C   UNL     1      -1.100  12.089  21.010  0.00  0.00    +0.000 A 
ATOM      7  C   UNL     1      -2.100  12.084  20.123  0.00  0.00    +0.000 A 
ATOM      8  C   UNL     1      -3.498  12.514  20.481  0.00  0.00    +0.000 C 
ATOM      9  C   UNL     1      -3.739  12.596  21.989  0.00  0.00    +0.000 C 
ATOM     10  C   UNL     1      -2.574  13.276  22.691  0.00  0.00    +0.000 C 
ATOM     11  C   UNL     1      -1.277  12.503  22.449  0.00  0.00    +0.000 C 
ENDROOT
BRANCH   1  12
ATOM     12  C   UNL     1      -2.806  11.666  17.653  0.00  0.00    +0.000 C 
BRANCH  12  14
ATOM     13  O   UNL     1      -3.256  10.176  15.793  0.00  0.00    +0.000 OA
ATOM     14  C   UNL     1      -3.130  10.356  16.993  0.00  0.00    +0.000 C 
BRANCH  14  15
ATOM     15  O   UNL     1      -3.307   9.351  17.887  0.00  0.00    +0.000 OA
ATOM     16  H   UNL     1      -4.151   8.869  17.802  0.00  0.00    +0.000 HD
ENDBRANCH  14  15
ENDBRANCH  12  14
ENDBRANCH   1  12
BRANCH   3  17
ATOM     17  C   UNL     1       1.704  10.549  18.960  0.00  0.00    +0.000 C 
BRANCH  17  18
ATOM     18  C   UNL     1       1.932   9.058  18.917  0.00  0.00    +0.000 A 
ATOM     19  N   UNL     1       1.754   8.283  19.972  0.00  0.00    +0.000 NA
ATOM     20  C   UNL     1       2.067   6.974  19.683  0.00  0.00    +0.000 A 
ATOM     21  C   UNL     1       1.919   5.888  20.565  0.00  0.00    +0.000 A 
ATOM     22  C   UNL     1       2.165   4.573  20.133  0.00  0.00    +0.000 A 
ATOM     23  C   UNL     1       2.642   4.367  18.833  0.00  0.00    +0.000 A 
ATOM     24  C   UNL     1       2.857   5.438  17.952  0.00  0.00    +0.000 A 
ATOM     25  C   UNL     1       2.535   6.739  18.396  0.00  0.00    +0.000 A 
ATOM     26  S   UNL     1       2.614   8.251  17.553  0.00  0.00    +0.000 S 
BRANCH  22  27
ATOM     27  C   UNL     1       1.844   3.412  21.047  0.00  0.00    +0.000 C 
ATOM     28  F   UNL     1       0.521   3.120  21.109  0.00  0.00    +0.000 F 
ATOM     29  F   UNL     1       2.465   2.265  20.658  0.00  0.00    +0.000 F 
ATOM     30  F   UNL     1       2.237   3.637  22.331  0.00  0.00    +0.000 F 
ENDBRANCH  22  27
ENDBRANCH  17  18
ENDBRANCH   3  17
TORSDOF 6
ENDMDL
