MODEL 1
REMARK VINA RESULT:      -7.8      0.000      0.000
REMARK  Name = 
REMARK  9 active torsions:
REMARK  status: ('A' for Active; 'I' for Inactive)
REMARK    1  A    between atoms: C_1  and  O_2
REMARK    2  A    between atoms: O_2  and  C_3
REMARK    3  A    between atoms: C_5  and  S_6
REMARK    4  A    between atoms: S_6  and  C_7
REMARK    5  A    between atoms: C_10  and  C_11
REMARK    6  A    between atoms: N_13  and  C_14
REMARK    7  A    between atoms: N_13  and  C_15
REMARK    8  A    between atoms: C_15  and  C_16
REMARK    9  A    between atoms: N_18  and  C_19
REMARK                            x       y       z     vdW  Elec       q    Type
REMARK                         _______ _______ _______ _____ _____    ______ ____
ROOT
ATOM      1  C   UNL     1       2.577   4.502  21.273  0.00  0.00    +0.000 C 
ENDROOT
BRANCH   1   4
ATOM      2  C   UNL     1       2.962   2.490  19.767  0.00  0.00    +0.000 C 
ATOM      3  O   UNL     1       2.737   1.298  19.518  0.00  0.00    +0.000 OA
ATOM      4  N   UNL     1       2.331   3.120  20.859  0.00  0.00    +0.000 N 
ATOM      5  C   UNL     1       1.480   2.308  21.724  0.00  0.00    +0.000 C 
BRANCH   2  11
ATOM      6  C   UNL     1       3.520   3.517  17.428  0.00  0.00    +0.000 A 
ATOM      7  C   UNL     1       4.491   4.115  16.608  0.00  0.00    +0.000 A 
ATOM      8  C   UNL     1       5.718   4.565  17.104  0.00  0.00    +0.000 A 
ATOM      9  C   UNL     1       5.974   4.396  18.459  0.00  0.00    +0.000 A 
ATOM     10  C   UNL     1       5.053   3.710  19.269  0.00  0.00    +0.000 A 
ATOM     11  C   UNL     1       3.833   3.211  18.762  0.00  0.00    +0.000 A 
BRANCH   6  13
ATOM     12  C   UNL     1       1.186   4.089  17.452  0.00  0.00    +0.000 C 
ATOM     13  O   UNL     1       2.257   3.282  16.973  0.00  0.00    +0.000 OA
ENDBRANCH   6  13
BRANCH   8  14
ATOM     14  S   UNL     1       6.789   5.323  15.891  0.00  0.00    +0.000 S 
ATOM     15  C   UNL     1       6.417   4.442  14.361  0.00  0.00    +0.000 C 
ENDBRANCH   8  14
ENDBRANCH   2  11
ENDBRANCH   1   4
BRANCH   1  16
ATOM     16  C   UNL     1       1.780   5.663  20.685  0.00  0.00    +0.000 C 
ATOM     17  O   UNL     1       0.585   5.521  20.418  0.00  0.00    +0.000 OA
ATOM     18  N   UNL     1       2.510   6.820  20.447  0.00  0.00    +0.000 N 
ATOM     19  H   UNL     1       3.471   6.646  20.188  0.00  0.00    +0.000 HD
BRANCH  18  20
ATOM     20  C   UNL     1       1.837   7.892  19.804  0.00  0.00    +0.000 A 
ATOM     21  C   UNL     1       2.112   8.126  18.446  0.00  0.00    +0.000 A 
ATOM     22  C   UNL     1       1.656   9.279  17.822  0.00  0.00    +0.000 A 
ATOM     23  C   UNL     1       0.979  10.235  18.571  0.00  0.00    +0.000 A 
ATOM     24  C   UNL     1       0.707  10.028  19.934  0.00  0.00    +0.000 A 
ATOM     25  C   UNL     1       0.139  11.056  20.700  0.00  0.00    +0.000 A 
ATOM     26  C   UNL     1      -0.139  10.873  22.053  0.00  0.00    +0.000 A 
ATOM     27  C   UNL     1       0.091   9.639  22.647  0.00  0.00    +0.000 A 
ATOM     28  C   UNL     1       0.679   8.613  21.906  0.00  0.00    +0.000 A 
ATOM     29  C   UNL     1       1.054   8.803  20.555  0.00  0.00    +0.000 A 
ENDBRANCH  18  20
ENDBRANCH   1  16
TORSDOF 6
ENDMDL
MODEL 2
REMARK VINA RESULT:      -7.4      2.734      4.094
REMARK  Name = 
REMARK  9 active torsions:
REMARK  status: ('A' for Active; 'I' for Inactive)
REMARK    1  A    between atoms: C_1  and  O_2
REMARK    2  A    between atoms: O_2  and  C_3
REMARK    3  A    between atoms: C_5  and  S_6
REMARK    4  A    between atoms: S_6  and  C_7
REMARK    5  A    between atoms: C_10  and  C_11
REMARK    6  A    between atoms: N_13  and  C_14
REMARK    7  A    between atoms: N_13  and  C_15
REMARK    8  A    between atoms: C_15  and  C_16
REMARK    9  A    between atoms: N_18  and  C_19
REMARK                            x       y       z     vdW  Elec       q    Type
REMARK                         _______ _______ _______ _____ _____    ______ ____
ROOT
ATOM      1  C   UNL     1       2.433   8.100  17.893  0.00  0.00    +0.000 C 
ENDROOT
BRANCH   1   4
ATOM      2  C   UNL     1       3.543   6.097  18.997  0.00  0.00    +0.000 C 
ATOM      3  O   UNL     1       3.679   5.384  20.000  0.00  0.00    +0.000 OA
ATOM      4  N   UNL     1       2.622   7.164  19.002  0.00  0.00    +0.000 N 
ATOM      5  C   UNL     1       1.904   7.448  20.242  0.00  0.00    +0.000 C 
BRANCH   2  11
ATOM      6  C   UNL     1       4.075   4.543  16.963  0.00  0.00    +0.000 A 
ATOM      7  C   UNL     1       4.962   4.236  15.918  0.00  0.00    +0.000 A 
ATOM      8  C   UNL     1       6.010   5.085  15.551  0.00  0.00    +0.000 A 
ATOM      9  C   UNL     1       6.171   6.267  16.262  0.00  0.00    +0.000 A 
ATOM     10  C   UNL     1       5.352   6.537  17.373  0.00  0.00    +0.000 A 
ATOM     11  C   UNL     1       4.323   5.659  17.777  0.00  0.00    +0.000 A 
BRANCH   6  13
ATOM     12  C   UNL     1       3.034   2.551  17.815  0.00  0.00    +0.000 C 
ATOM     13  O   UNL     1       2.941   3.814  17.165  0.00  0.00    +0.000 OA
ENDBRANCH   6  13
BRANCH   8  14
ATOM     14  S   UNL     1       6.996   4.514  14.174  0.00  0.00    +0.000 S 
ATOM     15  C   UNL     1       5.817   3.647  13.117  0.00  0.00    +0.000 C 
ENDBRANCH   8  14
ENDBRANCH   2  11
ENDBRANCH   1   4
BRANCH   1  16
ATOM     16  C   UNL     1       1.565   9.347  18.043  0.00  0.00    +0.000 C 
ATOM     17  O   UNL     1       2.006  10.450  17.716  0.00  0.00    +0.000 OA
ATOM     18  N   UNL     1       0.312   9.130  18.602  0.00  0.00    +0.000 N 
ATOM     19  H   UNL     1       0.296   8.382  19.281  0.00  0.00    +0.000 HD
BRANCH  18  20
ATOM     20  C   UNL     1      -0.491  10.273  18.857  0.00  0.00    +0.000 A 
ATOM     21  C   UNL     1      -0.243  11.006  20.030  0.00  0.00    +0.000 A 
ATOM     22  C   UNL     1      -1.123  11.996  20.443  0.00  0.00    +0.000 A 
ATOM     23  C   UNL     1      -2.291  12.212  19.720  0.00  0.00    +0.000 A 
ATOM     24  C   UNL     1      -2.566  11.480  18.553  0.00  0.00    +0.000 A 
ATOM     25  C   UNL     1      -3.805  11.620  17.911  0.00  0.00    +0.000 A 
ATOM     26  C   UNL     1      -4.099  10.903  16.753  0.00  0.00    +0.000 A 
ATOM     27  C   UNL     1      -3.137  10.080  16.185  0.00  0.00    +0.000 A 
ATOM     28  C   UNL     1      -1.908   9.908  16.823  0.00  0.00    +0.000 A 
ATOM     29  C   UNL     1      -1.619  10.555  18.048  0.00  0.00    +0.000 A 
ENDBRANCH  18  20
ENDBRANCH   1  16
TORSDOF 6
ENDMDL
MODEL 3
REMARK VINA RESULT:      -7.4      4.783      8.927
REMARK  Name = 
REMARK  9 active torsions:
REMARK  status: ('A' for Active; 'I' for Inactive)
REMARK    1  A    between atoms: C_1  and  O_2
REMARK    2  A    between atoms: O_2  and  C_3
REMARK    3  A    between atoms: C_5  and  S_6
REMARK    4  A    between atoms: S_6  and  C_7
REMARK    5  A    between atoms: C_10  and  C_11
REMARK    6  A    between atoms: N_13  and  C_14
REMARK    7  A    between atoms: N_13  and  C_15
REMARK    8  A    between atoms: C_15  and  C_16
REMARK    9  A    between atoms: N_18  and  C_19
REMARK                            x       y       z     vdW  Elec       q    Type
REMARK                         _______ _______ _______ _____ _____    ______ ____
ROOT
ATOM      1  C   UNL     1       0.172  10.217  19.149  0.00  0.00    +0.000 C 
ENDROOT
BRANCH   1   4
ATOM      2  C   UNL     1      -0.697  12.553  18.648  0.00  0.00    +0.000 C 
ATOM      3  O   UNL     1      -0.453  13.747  18.429  0.00  0.00    +0.000 OA
ATOM      4  N   UNL     1       0.355  11.632  18.825  0.00  0.00    +0.000 N 
ATOM      5  C   UNL     1       1.724  12.142  18.823  0.00  0.00    +0.000 C 
BRANCH   2  11
ATOM      6  C   UNL     1      -2.807  11.461  17.555  0.00  0.00    +0.000 A 
ATOM      7  C   UNL     1      -4.196  11.267  17.619  0.00  0.00    +0.000 A 
ATOM      8  C   UNL     1      -4.952  11.614  18.743  0.00  0.00    +0.000 A 
ATOM      9  C   UNL     1      -4.288  12.180  19.825  0.00  0.00    +0.000 A 
ATOM     10  C   UNL     1      -2.915  12.470  19.734  0.00  0.00    +0.000 A 
ATOM     11  C   UNL     1      -2.158  12.165  18.582  0.00  0.00    +0.000 A 
BRANCH   6  13
ATOM     12  C   UNL     1      -2.726  10.341  15.431  0.00  0.00    +0.000 C 
ATOM     13  O   UNL     1      -2.063  10.925  16.547  0.00  0.00    +0.000 OA
ENDBRANCH   6  13
BRANCH   8  14
ATOM     14  S   UNL     1      -6.697  11.250  18.621  0.00  0.00    +0.000 S 
ATOM     15  C   UNL     1      -6.851   9.588  19.308  0.00  0.00    +0.000 C 
ENDBRANCH   8  14
ENDBRANCH   2  11
ENDBRANCH   1   4
BRANCH   1  16
ATOM     16  C   UNL     1       1.041   9.135  18.514  0.00  0.00    +0.000 C 
ATOM     17  O   UNL     1       0.980   8.925  17.302  0.00  0.00    +0.000 OA
ATOM     18  N   UNL     1       1.830   8.415  19.402  0.00  0.00    +0.000 N 
ATOM     19  H   UNL     1       1.409   8.297  20.313  0.00  0.00    +0.000 HD
BRANCH  18  20
ATOM     20  C   UNL     1       2.577   7.330  18.873  0.00  0.00    +0.000 A 
ATOM     21  C   UNL     1       3.466   7.592  17.818  0.00  0.00    +0.000 A 
ATOM     22  C   UNL     1       4.060   6.550  17.120  0.00  0.00    +0.000 A 
ATOM     23  C   UNL     1       3.715   5.239  17.432  0.00  0.00    +0.000 A 
ATOM     24  C   UNL     1       2.817   4.956  18.474  0.00  0.00    +0.000 A 
ATOM     25  C   UNL     1       2.384   3.639  18.688  0.00  0.00    +0.000 A 
ATOM     26  C   UNL     1       1.492   3.335  19.715  0.00  0.00    +0.000 A 
ATOM     27  C   UNL     1       1.067   4.333  20.581  0.00  0.00    +0.000 A 
ATOM     28  C   UNL     1       1.467   5.652  20.368  0.00  0.00    +0.000 A 
ATOM     29  C   UNL     1       2.299   6.001  19.278  0.00  0.00    +0.000 A 
ENDBRANCH  18  20
ENDBRANCH   1  16
TORSDOF 6
ENDMDL
MODEL 4
REMARK VINA RESULT:      -7.4      1.842      2.808
REMARK  Name = 
REMARK  9 active torsions:
REMARK  status: ('A' for Active; 'I' for Inactive)
REMARK    1  A    between atoms: C_1  and  O_2
REMARK    2  A    between atoms: O_2  and  C_3
REMARK    3  A    between atoms: C_5  and  S_6
REMARK    4  A    between atoms: S_6  and  C_7
REMARK    5  A    between atoms: C_10  and  C_11
REMARK    6  A    between atoms: N_13  and  C_14
REMARK    7  A    between atoms: N_13  and  C_15
REMARK    8  A    between atoms: C_15  and  C_16
REMARK    9  A    between atoms: N_18  and  C_19
REMARK                            x       y       z     vdW  Elec       q    Type
REMARK                         _______ _______ _______ _____ _____    ______ ____
ROOT
ATOM      1  C   UNL     1       3.656   6.625  19.103  0.00  0.00    +0.000 C 
ENDROOT
BRANCH   1   4
ATOM      2  C   UNL     1       4.218   4.154  18.899  0.00  0.00    +0.000 C 
ATOM      3  O   UNL     1       4.075   2.999  19.322  0.00  0.00    +0.000 OA
ATOM      4  N   UNL     1       3.509   5.220  19.487  0.00  0.00    +0.000 N 
ATOM      5  C   UNL     1       2.675   4.933  20.651  0.00  0.00    +0.000 C 
BRANCH   2  11
ATOM      6  C   UNL     1       6.460   4.562  17.616  0.00  0.00    +0.000 A 
ATOM      7  C   UNL     1       7.086   4.747  16.372  0.00  0.00    +0.000 A 
ATOM      8  C   UNL     1       6.426   4.522  15.159  0.00  0.00    +0.000 A 
ATOM      9  C   UNL     1       5.100   4.111  15.206  0.00  0.00    +0.000 A 
ATOM     10  C   UNL     1       4.434   4.020  16.441  0.00  0.00    +0.000 A 
ATOM     11  C   UNL     1       5.083   4.292  17.665  0.00  0.00    +0.000 A 
BRANCH   6  13
ATOM     12  C   UNL     1       7.713   5.809  19.242  0.00  0.00    +0.000 C 
ATOM     13  O   UNL     1       7.174   4.578  18.776  0.00  0.00    +0.000 OA
ENDBRANCH   6  13
BRANCH   8  14
ATOM     14  S   UNL     1       7.422   4.788  13.699  0.00  0.00    +0.000 S 
ATOM     15  C   UNL     1       6.666   3.725  12.451  0.00  0.00    +0.000 C 
ENDBRANCH   8  14
ENDBRANCH   2  11
ENDBRANCH   1   4
BRANCH   1  16
ATOM     16  C   UNL     1       2.440   7.520  18.878  0.00  0.00    +0.000 C 
ATOM     17  O   UNL     1       1.926   7.595  17.761  0.00  0.00    +0.000 OA
ATOM     18  N   UNL     1       2.025   8.241  19.989  0.00  0.00    +0.000 N 
ATOM     19  H   UNL     1       2.782   8.510  20.603  0.00  0.00    +0.000 HD
BRANCH  18  20
ATOM     20  C   UNL     1       0.964   9.166  19.804  0.00  0.00    +0.000 A 
ATOM     21  C   UNL     1       0.821   9.762  18.539  0.00  0.00    +0.000 A 
ATOM     22  C   UNL     1      -0.053  10.824  18.355  0.00  0.00    +0.000 A 
ATOM     23  C   UNL     1      -0.739  11.339  19.450  0.00  0.00    +0.000 A 
ATOM     24  C   UNL     1      -0.598  10.767  20.726  0.00  0.00    +0.000 A 
ATOM     25  C   UNL     1      -1.195  11.378  21.838  0.00  0.00    +0.000 A 
ATOM     26  C   UNL     1      -1.068  10.830  23.113  0.00  0.00    +0.000 A 
ATOM     27  C   UNL     1      -0.393   9.629  23.286  0.00  0.00    +0.000 A 
ATOM     28  C   UNL     1       0.229   9.020  22.195  0.00  0.00    +0.000 A 
ATOM     29  C   UNL     1       0.192   9.605  20.907  0.00  0.00    +0.000 A 
ENDBRANCH  18  20
ENDBRANCH   1  16
TORSDOF 6
ENDMDL
MODEL 5
REMARK VINA RESULT:      -7.3      4.118      8.320
REMARK  Name = 
REMARK  9 active torsions:
REMARK  status: ('A' for Active; 'I' for Inactive)
REMARK    1  A    between atoms: C_1  and  O_2
REMARK    2  A    between atoms: O_2  and  C_3
REMARK    3  A    between atoms: C_5  and  S_6
REMARK    4  A    between atoms: S_6  and  C_7
REMARK    5  A    between atoms: C_10  and  C_11
REMARK    6  A    between atoms: N_13  and  C_14
REMARK    7  A    between atoms: N_13  and  C_15
REMARK    8  A    between atoms: C_15  and  C_16
REMARK    9  A    between atoms: N_18  and  C_19
REMARK                            x       y       z     vdW  Elec       q    Type
REMARK                         _______ _______ _______ _____ _____    ______ ____
ROOT
ATOM      1  C   UNL     1       1.064   9.822  19.552  0.00  0.00    +0.000 C 
ENDROOT
BRANCH   1   4
ATOM      2  C   UNL     1       0.196  12.031  18.643  0.00  0.00    +0.000 C 
ATOM      3  O   UNL     1      -0.698  12.654  18.054  0.00  0.00    +0.000 OA
ATOM      4  N   UNL     1       0.043  10.658  18.920  0.00  0.00    +0.000 N 
ATOM      5  C   UNL     1      -1.153   9.984  18.422  0.00  0.00    +0.000 C 
BRANCH   2  11
ATOM      6  C   UNL     1       1.620  13.273  20.450  0.00  0.00    +0.000 A 
ATOM      7  C   UNL     1       2.702  14.130  20.709  0.00  0.00    +0.000 A 
ATOM      8  C   UNL     1       3.632  14.483  19.727  0.00  0.00    +0.000 A 
ATOM      9  C   UNL     1       3.458  13.964  18.449  0.00  0.00    +0.000 A 
ATOM     10  C   UNL     1       2.324  13.188  18.154  0.00  0.00    +0.000 A 
ATOM     11  C   UNL     1       1.357  12.869  19.132  0.00  0.00    +0.000 A 
BRANCH   6  13
ATOM     12  C   UNL     1      -0.137  13.605  22.055  0.00  0.00    +0.000 C 
ATOM     13  O   UNL     1       0.855  12.775  21.461  0.00  0.00    +0.000 OA
ENDBRANCH   6  13
BRANCH   8  14
ATOM     14  S   UNL     1       4.947  15.558  20.283  0.00  0.00    +0.000 S 
ATOM     15  C   UNL     1       5.701  16.159  18.757  0.00  0.00    +0.000 C 
ENDBRANCH   8  14
ENDBRANCH   2  11
ENDBRANCH   1   4
BRANCH   1  16
ATOM     16  C   UNL     1       1.791   8.728  18.775  0.00  0.00    +0.000 C 
ATOM     17  O   UNL     1       1.893   8.804  17.550  0.00  0.00    +0.000 OA
ATOM     18  N   UNL     1       2.257   7.669  19.543  0.00  0.00    +0.000 N 
ATOM     19  H   UNL     1       1.674   7.461  20.342  0.00  0.00    +0.000 HD
BRANCH  18  20
ATOM     20  C   UNL     1       2.847   6.577  18.853  0.00  0.00    +0.000 A 
ATOM     21  C   UNL     1       3.807   6.860  17.867  0.00  0.00    +0.000 A 
ATOM     22  C   UNL     1       4.259   5.862  17.015  0.00  0.00    +0.000 A 
ATOM     23  C   UNL     1       3.704   4.590  17.103  0.00  0.00    +0.000 A 
ATOM     24  C   UNL     1       2.732   4.290  18.072  0.00  0.00    +0.000 A 
ATOM     25  C   UNL     1       2.092   3.042  18.062  0.00  0.00    +0.000 A 
ATOM     26  C   UNL     1       1.125   2.723  19.013  0.00  0.00    +0.000 A 
ATOM     27  C   UNL     1       0.826   3.625  20.025  0.00  0.00    +0.000 A 
ATOM     28  C   UNL     1       1.433   4.881  20.037  0.00  0.00    +0.000 A 
ATOM     29  C   UNL     1       2.351   5.263  19.030  0.00  0.00    +0.000 A 
ENDBRANCH  18  20
ENDBRANCH   1  16
TORSDOF 6
ENDMDL
MODEL 6
REMARK VINA RESULT:      -7.3      1.123      1.265
REMARK  Name = 
REMARK  9 active torsions:
REMARK  status: ('A' for Active; 'I' for Inactive)
REMARK    1  A    between atoms: C_1  and  O_2
REMARK    2  A    between atoms: O_2  and  C_3
REMARK    3  A    between atoms: C_5  and  S_6
REMARK    4  A    between atoms: S_6  and  C_7
REMARK    5  A    between atoms: C_10  and  C_11
REMARK    6  A    between atoms: N_13  and  C_14
REMARK    7  A    between atoms: N_13  and  C_15
REMARK    8  A    between atoms: C_15  and  C_16
REMARK    9  A    between atoms: N_18  and  C_19
REMARK                            x       y       z     vdW  Elec       q    Type
REMARK                         _______ _______ _______ _____ _____    ______ ____
ROOT
ATOM      1  C   UNL     1       2.489   4.792  21.366  0.00  0.00    +0.000 C 
ENDROOT
BRANCH   1   4
ATOM      2  C   UNL     1       3.311   3.069  19.688  0.00  0.00    +0.000 C 
ATOM      3  O   UNL     1       3.289   1.902  19.274  0.00  0.00    +0.000 OA
ATOM      4  N   UNL     1       2.490   3.458  20.766  0.00  0.00    +0.000 N 
ATOM      5  C   UNL     1       1.686   2.432  21.424  0.00  0.00    +0.000 C 
BRANCH   2  11
ATOM      6  C   UNL     1       3.720   4.996  17.968  0.00  0.00    +0.000 A 
ATOM      7  C   UNL     1       4.661   5.741  17.240  0.00  0.00    +0.000 A 
ATOM      8  C   UNL     1       6.034   5.670  17.495  0.00  0.00    +0.000 A 
ATOM      9  C   UNL     1       6.466   4.818  18.504  0.00  0.00    +0.000 A 
ATOM     10  C   UNL     1       5.543   3.994  19.171  0.00  0.00    +0.000 A 
ATOM     11  C   UNL     1       4.161   4.027  18.884  0.00  0.00    +0.000 A 
BRANCH   6  13
ATOM     12  C   UNL     1       1.530   4.199  17.381  0.00  0.00    +0.000 C 
ATOM     13  O   UNL     1       2.384   5.237  17.851  0.00  0.00    +0.000 OA
ENDBRANCH   6  13
BRANCH   8  14
ATOM     14  S   UNL     1       7.047   6.728  16.471  0.00  0.00    +0.000 S 
ATOM     15  C   UNL     1       7.718   7.946  17.621  0.00  0.00    +0.000 C 
ENDBRANCH   8  14
ENDBRANCH   2  11
ENDBRANCH   1   4
BRANCH   1  16
ATOM     16  C   UNL     1       1.625   5.917  20.805  0.00  0.00    +0.000 C 
ATOM     17  O   UNL     1       0.449   5.703  20.505  0.00  0.00    +0.000 OA
ATOM     18  N   UNL     1       2.275   7.131  20.630  0.00  0.00    +0.000 N 
ATOM     19  H   UNL     1       3.252   7.036  20.388  0.00  0.00    +0.000 HD
BRANCH  18  20
ATOM     20  C   UNL     1       1.542   8.179  20.014  0.00  0.00    +0.000 A 
ATOM     21  C   UNL     1       1.783   8.444  18.655  0.00  0.00    +0.000 A 
ATOM     22  C   UNL     1       1.262   9.582  18.055  0.00  0.00    +0.000 A 
ATOM     23  C   UNL     1       0.554  10.495  18.828  0.00  0.00    +0.000 A 
ATOM     24  C   UNL     1       0.314  10.256  20.192  0.00  0.00    +0.000 A 
ATOM     25  C   UNL     1      -0.288  11.246  20.982  0.00  0.00    +0.000 A 
ATOM     26  C   UNL     1      -0.534  11.032  22.337  0.00  0.00    +0.000 A 
ATOM     27  C   UNL     1      -0.237   9.802  22.909  0.00  0.00    +0.000 A 
ATOM     28  C   UNL     1       0.386   8.815  22.145  0.00  0.00    +0.000 A 
ATOM     29  C   UNL     1       0.730   9.041  20.790  0.00  0.00    +0.000 A 
ENDBRANCH  18  20
ENDBRANCH   1  16
TORSDOF 6
ENDMDL
MODEL 7
REMARK VINA RESULT:      -7.3      1.602      3.019
REMARK  Name = 
REMARK  9 active torsions:
REMARK  status: ('A' for Active; 'I' for Inactive)
REMARK    1  A    between atoms: C_1  and  O_2
REMARK    2  A    between atoms: O_2  and  C_3
REMARK    3  A    between atoms: C_5  and  S_6
REMARK    4  A    between atoms: S_6  and  C_7
REMARK    5  A    between atoms: C_10  and  C_11
REMARK    6  A    between atoms: N_13  and  C_14
REMARK    7  A    between atoms: N_13  and  C_15
REMARK    8  A    between atoms: C_15  and  C_16
REMARK    9  A    between atoms: N_18  and  C_19
REMARK                            x       y       z     vdW  Elec       q    Type
REMARK                         _______ _______ _______ _____ _____    ______ ____
ROOT
ATOM      1  C   UNL     1       2.602   5.772  19.623  0.00  0.00    +0.000 C 
ENDROOT
BRANCH   1   4
ATOM      2  C   UNL     1       4.002   3.651  19.681  0.00  0.00    +0.000 C 
ATOM      3  O   UNL     1       4.266   2.573  20.231  0.00  0.00    +0.000 OA
ATOM      4  N   UNL     1       2.951   4.457  20.163  0.00  0.00    +0.000 N 
ATOM      5  C   UNL     1       2.249   4.025  21.368  0.00  0.00    +0.000 C 
BRANCH   2  11
ATOM      6  C   UNL     1       6.056   4.539  18.330  0.00  0.00    +0.000 A 
ATOM      7  C   UNL     1       6.598   4.823  17.065  0.00  0.00    +0.000 A 
ATOM      8  C   UNL     1       5.992   4.402  15.878  0.00  0.00    +0.000 A 
ATOM      9  C   UNL     1       4.805   3.685  15.971  0.00  0.00    +0.000 A 
ATOM     10  C   UNL     1       4.203   3.482  17.224  0.00  0.00    +0.000 A 
ATOM     11  C   UNL     1       4.786   3.947  18.422  0.00  0.00    +0.000 A 
BRANCH   6  13
ATOM     12  C   UNL     1       7.775   5.772  19.471  0.00  0.00    +0.000 C 
ATOM     13  O   UNL     1       6.765   4.769  19.471  0.00  0.00    +0.000 OA
ENDBRANCH   6  13
BRANCH   8  14
ATOM     14  S   UNL     1       6.870   4.845  14.385  0.00  0.00    +0.000 S 
ATOM     15  C   UNL     1       6.208   3.723  13.135  0.00  0.00    +0.000 C 
ENDBRANCH   8  14
ENDBRANCH   2  11
ENDBRANCH   1   4
BRANCH   1  16
ATOM     16  C   UNL     1       1.695   6.732  20.389  0.00  0.00    +0.000 C 
ATOM     17  O   UNL     1       0.603   6.347  20.810  0.00  0.00    +0.000 OA
ATOM     18  N   UNL     1       2.179   8.027  20.514  0.00  0.00    +0.000 N 
ATOM     19  H   UNL     1       2.735   8.330  19.726  0.00  0.00    +0.000 HD
BRANCH  18  20
ATOM     20  C   UNL     1       1.326   8.982  21.127  0.00  0.00    +0.000 A 
ATOM     21  C   UNL     1       1.175   8.933  22.523  0.00  0.00    +0.000 A 
ATOM     22  C   UNL     1       0.199   9.692  23.155  0.00  0.00    +0.000 A 
ATOM     23  C   UNL     1      -0.674  10.453  22.385  0.00  0.00    +0.000 A 
ATOM     24  C   UNL     1      -0.550  10.504  20.986  0.00  0.00    +0.000 A 
ATOM     25  C   UNL     1      -1.516  11.171  20.220  0.00  0.00    +0.000 A 
ATOM     26  C   UNL     1      -1.414  11.234  18.831  0.00  0.00    +0.000 A 
ATOM     27  C   UNL     1      -0.311  10.682  18.193  0.00  0.00    +0.000 A 
ATOM     28  C   UNL     1       0.647   9.992  18.937  0.00  0.00    +0.000 A 
ATOM     29  C   UNL     1       0.518   9.836  20.337  0.00  0.00    +0.000 A 
ENDBRANCH  18  20
ENDBRANCH   1  16
TORSDOF 6
ENDMDL
MODEL 8
REMARK VINA RESULT:      -7.1      2.383      3.688
REMARK  Name = 
REMARK  9 active torsions:
REMARK  status: ('A' for Active; 'I' for Inactive)
REMARK    1  A    between atoms: C_1  and  O_2
REMARK    2  A    between atoms: O_2  and  C_3
REMARK    3  A    between atoms: C_5  and  S_6
REMARK    4  A    between atoms: S_6  and  C_7
REMARK    5  A    between atoms: C_10  and  C_11
REMARK    6  A    between atoms: N_13  and  C_14
REMARK    7  A    between atoms: N_13  and  C_15
REMARK    8  A    between atoms: C_15  and  C_16
REMARK    9  A    between atoms: N_18  and  C_19
REMARK                            x       y       z     vdW  Elec       q    Type
REMARK                         _______ _______ _______ _____ _____    ______ ____
ROOT
ATOM      1  C   UNL     1       2.447   7.311  18.956  0.00  0.00    +0.000 C 
ENDROOT
BRANCH   1   4
ATOM      2  C   UNL     1       3.321   4.993  19.529  0.00  0.00    +0.000 C 
ATOM      3  O   UNL     1       3.268   3.994  20.258  0.00  0.00    +0.000 OA
ATOM      4  N   UNL     1       2.424   6.063  19.721  0.00  0.00    +0.000 N 
ATOM      5  C   UNL     1       1.497   5.990  20.847  0.00  0.00    +0.000 C 
BRANCH   2  11
ATOM      6  C   UNL     1       5.673   5.221  18.410  0.00  0.00    +0.000 A 
ATOM      7  C   UNL     1       6.420   5.171  17.221  0.00  0.00    +0.000 A 
ATOM      8  C   UNL     1       5.893   4.673  16.025  0.00  0.00    +0.000 A 
ATOM      9  C   UNL     1       4.578   4.225  16.029  0.00  0.00    +0.000 A 
ATOM     10  C   UNL     1       3.791   4.362  17.186  0.00  0.00    +0.000 A 
ATOM     11  C   UNL     1       4.305   4.909  18.383  0.00  0.00    +0.000 A 
BRANCH   6  13
ATOM     12  C   UNL     1       7.672   5.709  19.651  0.00  0.00    +0.000 C 
ATOM     13  O   UNL     1       6.264   5.507  19.604  0.00  0.00    +0.000 OA
ENDBRANCH   6  13
BRANCH   8  14
ATOM     14  S   UNL     1       7.027   4.672  14.644  0.00  0.00    +0.000 S 
ATOM     15  C   UNL     1       6.142   3.784  13.346  0.00  0.00    +0.000 C 
ENDBRANCH   8  14
ENDBRANCH   2  11
ENDBRANCH   1   4
BRANCH   1  16
ATOM     16  C   UNL     1       1.666   8.539  19.413  0.00  0.00    +0.000 C 
ATOM     17  O   UNL     1       1.312   8.645  20.589  0.00  0.00    +0.000 OA
ATOM     18  N   UNL     1       1.368   9.455  18.413  0.00  0.00    +0.000 N 
ATOM     19  H   UNL     1       1.217   9.032  17.508  0.00  0.00    +0.000 HD
BRANCH  18  20
ATOM     20  C   UNL     1       0.555  10.563  18.768  0.00  0.00    +0.000 A 
ATOM     21  C   UNL     1       1.055  11.474  19.714  0.00  0.00    +0.000 A 
ATOM     22  C   UNL     1       0.231  12.448  20.260  0.00  0.00    +0.000 A 
ATOM     23  C   UNL     1      -1.115  12.474  19.911  0.00  0.00    +0.000 A 
ATOM     24  C   UNL     1      -1.639  11.563  18.979  0.00  0.00    +0.000 A 
ATOM     25  C   UNL     1      -3.020  11.521  18.738  0.00  0.00    +0.000 A 
ATOM     26  C   UNL     1      -3.561  10.625  17.818  0.00  0.00    +0.000 A 
ATOM     27  C   UNL     1      -2.724   9.799  17.081  0.00  0.00    +0.000 A 
ATOM     28  C   UNL     1      -1.350   9.808  17.325  0.00  0.00    +0.000 A 
ATOM     29  C   UNL     1      -0.786  10.644  18.318  0.00  0.00    +0.000 A 
ENDBRANCH  18  20
ENDBRANCH   1  16
TORSDOF 6
ENDMDL
MODEL 9
REMARK VINA RESULT:      -7.1      4.661      9.094
REMARK  Name = 
REMARK  9 active torsions:
REMARK  status: ('A' for Active; 'I' for Inactive)
REMARK    1  A    between atoms: C_1  and  O_2
REMARK    2  A    between atoms: O_2  and  C_3
REMARK    3  A    between atoms: C_5  and  S_6
REMARK    4  A    between atoms: S_6  and  C_7
REMARK    5  A    between atoms: C_10  and  C_11
REMARK    6  A    between atoms: N_13  and  C_14
REMARK    7  A    between atoms: N_13  and  C_15
REMARK    8  A    between atoms: C_15  and  C_16
REMARK    9  A    between atoms: N_18  and  C_19
REMARK                            x       y       z     vdW  Elec       q    Type
REMARK                         _______ _______ _______ _____ _____    ______ ____
ROOT
ATOM      1  C   UNL     1       0.574  10.183  19.091  0.00  0.00    +0.000 C 
ENDROOT
BRANCH   1   4
ATOM      2  C   UNL     1      -0.238  12.541  18.596  0.00  0.00    +0.000 C 
ATOM      3  O   UNL     1       0.035  13.722  18.343  0.00  0.00    +0.000 OA
ATOM      4  N   UNL     1       0.790  11.586  18.732  0.00  0.00    +0.000 N 
ATOM      5  C   UNL     1       2.173  12.047  18.650  0.00  0.00    +0.000 C 
BRANCH   2  11
ATOM      6  C   UNL     1      -2.636  12.476  19.636  0.00  0.00    +0.000 A 
ATOM      7  C   UNL     1      -3.955  12.009  19.521  0.00  0.00    +0.000 A 
ATOM      8  C   UNL     1      -4.440  11.409  18.354  0.00  0.00    +0.000 A 
ATOM      9  C   UNL     1      -3.566  11.270  17.283  0.00  0.00    +0.000 A 
ATOM     10  C   UNL     1      -2.218  11.643  17.421  0.00  0.00    +0.000 A 
ATOM     11  C   UNL     1      -1.713  12.205  18.614  0.00  0.00    +0.000 A 
BRANCH   6  13
ATOM     12  C   UNL     1      -1.884  12.610  21.914  0.00  0.00    +0.000 C 
ATOM     13  O   UNL     1      -2.248  13.244  20.693  0.00  0.00    +0.000 OA
ENDBRANCH   6  13
BRANCH   8  14
ATOM     14  S   UNL     1      -6.157  10.918  18.415  0.00  0.00    +0.000 S 
ATOM     15  C   UNL     1      -7.043  12.320  17.704  0.00  0.00    +0.000 C 
ENDBRANCH   8  14
ENDBRANCH   2  11
ENDBRANCH   1   4
BRANCH   1  16
ATOM     16  C   UNL     1       1.412   9.066  18.474  0.00  0.00    +0.000 C 
ATOM     17  O   UNL     1       1.489   8.956  17.250  0.00  0.00    +0.000 OA
ATOM     18  N   UNL     1       2.006   8.203  19.385  0.00  0.00    +0.000 N 
ATOM     19  H   UNL     1       1.462   8.062  20.224  0.00  0.00    +0.000 HD
BRANCH  18  20
ATOM     20  C   UNL     1       2.709   7.088  18.858  0.00  0.00    +0.000 A 
ATOM     21  C   UNL     1       3.636   7.317  17.827  0.00  0.00    +0.000 A 
ATOM     22  C   UNL     1       4.192   6.255  17.128  0.00  0.00    +0.000 A 
ATOM     23  C   UNL     1       3.773   4.960  17.413  0.00  0.00    +0.000 A 
ATOM     24  C   UNL     1       2.836   4.710  18.430  0.00  0.00    +0.000 A 
ATOM     25  C   UNL     1       2.330   3.414  18.615  0.00  0.00    +0.000 A 
ATOM     26  C   UNL     1       1.400   3.143  19.616  0.00  0.00    +0.000 A 
ATOM     27  C   UNL     1       1.006   4.151  20.487  0.00  0.00    +0.000 A 
ATOM     28  C   UNL     1       1.479   5.450  20.302  0.00  0.00    +0.000 A 
ATOM     29  C   UNL     1       2.354   5.770  19.237  0.00  0.00    +0.000 A 
ENDBRANCH  18  20
ENDBRANCH   1  16
TORSDOF 6
ENDMDL
