MODEL 1
REMARK VINA RESULT:      -8.3      0.000      0.000
REMARK  Name = 
REMARK  7 active torsions:
REMARK  status: ('A' for Active; 'I' for Inactive)
REMARK    1  A    between atoms: C_1  and  O_2
REMARK    2  A    between atoms: O_2  and  C_3
REMARK    3  A    between atoms: C_8  and  C_9
REMARK    4  A    between atoms: N_11  and  C_12
REMARK    5  A    between atoms: N_11  and  S_19
REMARK    6  A    between atoms: C_15  and  C_16
REMARK    7  A    between atoms: S_19  and  C_22
REMARK                            x       y       z     vdW  Elec       q    Type
REMARK                         _______ _______ _______ _____ _____    ______ ____
ROOT
ATOM      1  C   UNL     1       4.477   3.814  19.135  0.00  0.00    +0.000 C 
ATOM      2  O   UNL     1       5.326   2.925  19.088  0.00  0.00    +0.000 OA
ATOM      3  N   UNL     1       4.830   5.161  18.790  0.00  0.00    +0.000 N 
ENDROOT
BRANCH   3   4
ATOM      4  C   UNL     1       3.844   6.181  18.612  0.00  0.00    +0.000 A 
ATOM      5  C   UNL     1       2.962   6.475  19.657  0.00  0.00    +0.000 A 
ATOM      6  C   UNL     1       2.134   7.596  19.583  0.00  0.00    +0.000 A 
ATOM      7  C   UNL     1       2.155   8.413  18.448  0.00  0.00    +0.000 A 
ATOM      8  C   UNL     1       1.406   9.715  18.431  0.00  0.00    +0.000 C 
ATOM      9  C   UNL     1       2.947   8.038  17.352  0.00  0.00    +0.000 A 
ATOM     10  C   UNL     1       3.794   6.926  17.433  0.00  0.00    +0.000 A 
ENDBRANCH   3   4
BRANCH   1  16
ATOM     11  C   UNL     1       1.930   3.194  19.146  0.00  0.00    +0.000 A 
ATOM     12  C   UNL     1       0.803   2.881  19.935  0.00  0.00    +0.000 A 
ATOM     13  C   UNL     1       0.923   2.600  21.287  0.00  0.00    +0.000 A 
ATOM     14  C   UNL     1       2.176   2.646  21.883  0.00  0.00    +0.000 A 
ATOM     15  C   UNL     1       3.276   3.073  21.136  0.00  0.00    +0.000 A 
ATOM     16  C   UNL     1       3.171   3.404  19.767  0.00  0.00    +0.000 A 
BRANCH  11  18
ATOM     17  C   UNL     1       1.204   4.277  17.143  0.00  0.00    +0.000 C 
ATOM     18  O   UNL     1       1.865   3.189  17.782  0.00  0.00    +0.000 OA
ENDBRANCH  11  18
ENDBRANCH   1  16
BRANCH   3  19
ATOM     19  S   UNL     1       6.375   5.530  18.163  0.00  0.00    +0.000 S 
ATOM     20  O   UNL     1       6.582   6.966  18.115  0.00  0.00    +0.000 OA
ATOM     21  O   UNL     1       7.382   4.686  18.774  0.00  0.00    +0.000 OA
BRANCH  19  22
ATOM     22  C   UNL     1       6.246   4.956  16.462  0.00  0.00    +0.000 A 
ATOM     23  C   UNL     1       5.140   4.205  16.046  0.00  0.00    +0.000 A 
ATOM     24  C   UNL     1       5.091   3.712  14.737  0.00  0.00    +0.000 A 
ATOM     25  C   UNL     1       6.127   3.996  13.848  0.00  0.00    +0.000 A 
ATOM     26 CL   UNL     1       6.111   3.313  12.268  0.00  0.00    +0.000 Cl
ATOM     27  C   UNL     1       7.188   4.815  14.235  0.00  0.00    +0.000 A 
ATOM     28  C   UNL     1       7.243   5.307  15.543  0.00  0.00    +0.000 A 
ENDBRANCH  19  22
ENDBRANCH   3  19
TORSDOF 5
ENDMDL
MODEL 2
REMARK VINA RESULT:      -8.0      0.294      1.326
REMARK  Name = 
REMARK  7 active torsions:
REMARK  status: ('A' for Active; 'I' for Inactive)
REMARK    1  A    between atoms: C_1  and  O_2
REMARK    2  A    between atoms: O_2  and  C_3
REMARK    3  A    between atoms: C_8  and  C_9
REMARK    4  A    between atoms: N_11  and  C_12
REMARK    5  A    between atoms: N_11  and  S_19
REMARK    6  A    between atoms: C_15  and  C_16
REMARK    7  A    between atoms: S_19  and  C_22
REMARK                            x       y       z     vdW  Elec       q    Type
REMARK                         _______ _______ _______ _____ _____    ______ ____
ROOT
ATOM      1  C   UNL     1       4.572   3.785  19.041  0.00  0.00    +0.000 C 
ATOM      2  O   UNL     1       5.344   2.834  18.930  0.00  0.00    +0.000 OA
ATOM      3  N   UNL     1       5.027   5.115  18.750  0.00  0.00    +0.000 N 
ENDROOT
BRANCH   3   4
ATOM      4  C   UNL     1       4.124   6.219  18.647  0.00  0.00    +0.000 A 
ATOM      5  C   UNL     1       4.092   6.973  17.470  0.00  0.00    +0.000 A 
ATOM      6  C   UNL     1       3.085   7.918  17.267  0.00  0.00    +0.000 A 
ATOM      7  C   UNL     1       2.120   8.141  18.255  0.00  0.00    +0.000 A 
ATOM      8  C   UNL     1       0.933   9.019  17.978  0.00  0.00    +0.000 C 
ATOM      9  C   UNL     1       2.236   7.473  19.484  0.00  0.00    +0.000 A 
ATOM     10  C   UNL     1       3.233   6.511  19.681  0.00  0.00    +0.000 A 
ENDBRANCH   3   4
BRANCH   1  16
ATOM     11  C   UNL     1       1.988   3.350  19.088  0.00  0.00    +0.000 A 
ATOM     12  C   UNL     1       0.856   3.096  19.891  0.00  0.00    +0.000 A 
ATOM     13  C   UNL     1       0.981   2.768  21.233  0.00  0.00    +0.000 A 
ATOM     14  C   UNL     1       2.245   2.707  21.803  0.00  0.00    +0.000 A 
ATOM     15  C   UNL     1       3.358   3.075  21.045  0.00  0.00    +0.000 A 
ATOM     16  C   UNL     1       3.252   3.452  19.688  0.00  0.00    +0.000 A 
BRANCH  11  18
ATOM     17  C   UNL     1       1.259   4.517  17.133  0.00  0.00    +0.000 C 
ATOM     18  O   UNL     1       1.897   3.389  17.725  0.00  0.00    +0.000 OA
ENDBRANCH  11  18
ENDBRANCH   1  16
BRANCH   3  19
ATOM     19  S   UNL     1       6.581   5.387  18.098  0.00  0.00    +0.000 S 
ATOM     20  O   UNL     1       6.868   6.808  18.030  0.00  0.00    +0.000 OA
ATOM     21  O   UNL     1       7.547   4.495  18.708  0.00  0.00    +0.000 OA
BRANCH  19  22
ATOM     22  C   UNL     1       6.398   4.801  16.407  0.00  0.00    +0.000 A 
ATOM     23  C   UNL     1       7.347   5.134  15.432  0.00  0.00    +0.000 A 
ATOM     24  C   UNL     1       7.151   4.724  14.109  0.00  0.00    +0.000 A 
ATOM     25  C   UNL     1       6.031   3.963  13.774  0.00  0.00    +0.000 A 
ATOM     26 CL   UNL     1       5.742   3.539  12.131  0.00  0.00    +0.000 Cl
ATOM     27  C   UNL     1       5.129   3.559  14.759  0.00  0.00    +0.000 A 
ATOM     28  C   UNL     1       5.318   3.969  16.083  0.00  0.00    +0.000 A 
ENDBRANCH  19  22
ENDBRANCH   3  19
TORSDOF 5
ENDMDL
MODEL 3
REMARK VINA RESULT:      -7.4      2.636      3.265
REMARK  Name = 
REMARK  7 active torsions:
REMARK  status: ('A' for Active; 'I' for Inactive)
REMARK    1  A    between atoms: C_1  and  O_2
REMARK    2  A    between atoms: O_2  and  C_3
REMARK    3  A    between atoms: C_8  and  C_9
REMARK    4  A    between atoms: N_11  and  C_12
REMARK    5  A    between atoms: N_11  and  S_19
REMARK    6  A    between atoms: C_15  and  C_16
REMARK    7  A    between atoms: S_19  and  C_22
REMARK                            x       y       z     vdW  Elec       q    Type
REMARK                         _______ _______ _______ _____ _____    ______ ____
ROOT
ATOM      1  C   UNL     1       4.043   3.517  18.118  0.00  0.00    +0.000 C 
ATOM      2  O   UNL     1       4.559   2.518  17.620  0.00  0.00    +0.000 OA
ATOM      3  N   UNL     1       4.558   4.820  17.807  0.00  0.00    +0.000 N 
ENDROOT
BRANCH   3   4
ATOM      4  C   UNL     1       3.865   6.016  18.175  0.00  0.00    +0.000 A 
ATOM      5  C   UNL     1       3.645   7.006  17.213  0.00  0.00    +0.000 A 
ATOM      6  C   UNL     1       2.799   8.081  17.492  0.00  0.00    +0.000 A 
ATOM      7  C   UNL     1       2.194   8.193  18.747  0.00  0.00    +0.000 A 
ATOM      8  C   UNL     1       1.146   9.240  18.999  0.00  0.00    +0.000 C 
ATOM      9  C   UNL     1       2.522   7.266  19.748  0.00  0.00    +0.000 A 
ATOM     10  C   UNL     1       3.354   6.176  19.464  0.00  0.00    +0.000 A 
ENDBRANCH   3   4
BRANCH   1  16
ATOM     11  C   UNL     1       1.628   3.187  19.081  0.00  0.00    +0.000 A 
ATOM     12  C   UNL     1       0.844   2.970  20.234  0.00  0.00    +0.000 A 
ATOM     13  C   UNL     1       1.423   2.622  21.445  0.00  0.00    +0.000 A 
ATOM     14  C   UNL     1       2.803   2.502  21.530  0.00  0.00    +0.000 A 
ATOM     15  C   UNL     1       3.590   2.834  20.426  0.00  0.00    +0.000 A 
ATOM     16  C   UNL     1       3.025   3.230  19.193  0.00  0.00    +0.000 A 
BRANCH  11  18
ATOM     17  C   UNL     1       0.903   4.528  17.239  0.00  0.00    +0.000 C 
ATOM     18  O   UNL     1       1.061   3.246  17.839  0.00  0.00    +0.000 OA
ENDBRANCH  11  18
ENDBRANCH   1  16
BRANCH   3  19
ATOM     19  S   UNL     1       5.778   5.023  16.631  0.00  0.00    +0.000 S 
ATOM     20  O   UNL     1       6.577   3.817  16.506  0.00  0.00    +0.000 OA
ATOM     21  O   UNL     1       5.234   5.641  15.439  0.00  0.00    +0.000 OA
BRANCH  19  22
ATOM     22  C   UNL     1       6.829   6.279  17.378  0.00  0.00    +0.000 A 
ATOM     23  C   UNL     1       7.595   5.984  18.512  0.00  0.00    +0.000 A 
ATOM     24  C   UNL     1       8.353   6.992  19.116  0.00  0.00    +0.000 A 
ATOM     25  C   UNL     1       8.365   8.275  18.570  0.00  0.00    +0.000 A 
ATOM     26 CL   UNL     1       9.223   9.538  19.366  0.00  0.00    +0.000 Cl
ATOM     27  C   UNL     1       7.670   8.550  17.392  0.00  0.00    +0.000 A 
ATOM     28  C   UNL     1       6.908   7.546  16.786  0.00  0.00    +0.000 A 
ENDBRANCH  19  22
ENDBRANCH   3  19
TORSDOF 5
ENDMDL
MODEL 4
REMARK VINA RESULT:      -7.4      6.765     10.780
REMARK  Name = 
REMARK  7 active torsions:
REMARK  status: ('A' for Active; 'I' for Inactive)
REMARK    1  A    between atoms: C_1  and  O_2
REMARK    2  A    between atoms: O_2  and  C_3
REMARK    3  A    between atoms: C_8  and  C_9
REMARK    4  A    between atoms: N_11  and  C_12
REMARK    5  A    between atoms: N_11  and  S_19
REMARK    6  A    between atoms: C_15  and  C_16
REMARK    7  A    between atoms: S_19  and  C_22
REMARK                            x       y       z     vdW  Elec       q    Type
REMARK                         _______ _______ _______ _____ _____    ______ ____
ROOT
ATOM      1  C   UNL     1       0.111  12.928  18.574  0.00  0.00    +0.000 C 
ATOM      2  O   UNL     1      -0.633  13.810  18.149  0.00  0.00    +0.000 OA
ATOM      3  N   UNL     1      -0.372  11.583  18.703  0.00  0.00    +0.000 N 
ENDROOT
BRANCH   3   4
ATOM      4  C   UNL     1       0.503  10.486  18.976  0.00  0.00    +0.000 A 
ATOM      5  C   UNL     1       0.529   9.929  20.258  0.00  0.00    +0.000 A 
ATOM      6  C   UNL     1       1.216   8.737  20.493  0.00  0.00    +0.000 A 
ATOM      7  C   UNL     1       1.913   8.110  19.455  0.00  0.00    +0.000 A 
ATOM      8  C   UNL     1       2.502   6.742  19.649  0.00  0.00    +0.000 C 
ATOM      9  C   UNL     1       1.990   8.743  18.205  0.00  0.00    +0.000 A 
ATOM     10  C   UNL     1       1.285   9.928  17.962  0.00  0.00    +0.000 A 
ENDBRANCH   3   4
BRANCH   1  16
ATOM     11  C   UNL     1       1.796  13.622  20.459  0.00  0.00    +0.000 A 
ATOM     12  C   UNL     1       3.063  14.166  20.757  0.00  0.00    +0.000 A 
ATOM     13  C   UNL     1       4.022  14.344  19.771  0.00  0.00    +0.000 A 
ATOM     14  C   UNL     1       3.723  13.998  18.461  0.00  0.00    +0.000 A 
ATOM     15  C   UNL     1       2.433  13.574  18.140  0.00  0.00    +0.000 A 
ATOM     16  C   UNL     1       1.427  13.423  19.120  0.00  0.00    +0.000 A 
BRANCH  11  18
ATOM     17  C   UNL     1       0.186  14.150  22.145  0.00  0.00    +0.000 C 
ATOM     18  O   UNL     1       0.963  13.181  21.448  0.00  0.00    +0.000 OA
ENDBRANCH  11  18
ENDBRANCH   1  16
BRANCH   3  19
ATOM     19  S   UNL     1      -1.919  11.149  18.127  0.00  0.00    +0.000 S 
ATOM     20  O   UNL     1      -2.203  11.809  16.865  0.00  0.00    +0.000 OA
ATOM     21  O   UNL     1      -2.117   9.718  18.240  0.00  0.00    +0.000 OA
BRANCH  19  22
ATOM     22  C   UNL     1      -3.008  11.876  19.362  0.00  0.00    +0.000 A 
ATOM     23  C   UNL     1      -2.507  12.268  20.610  0.00  0.00    +0.000 A 
ATOM     24  C   UNL     1      -3.383  12.769  21.579  0.00  0.00    +0.000 A 
ATOM     25  C   UNL     1      -4.740  12.903  21.288  0.00  0.00    +0.000 A 
ATOM     26 CL   UNL     1      -5.830  13.431  22.511  0.00  0.00    +0.000 Cl
ATOM     27  C   UNL     1      -5.226  12.593  20.018  0.00  0.00    +0.000 A 
ATOM     28  C   UNL     1      -4.356  12.088  19.046  0.00  0.00    +0.000 A 
ENDBRANCH  19  22
ENDBRANCH   3  19
TORSDOF 5
ENDMDL
MODEL 5
REMARK VINA RESULT:      -7.3      2.783      3.721
REMARK  Name = 
REMARK  7 active torsions:
REMARK  status: ('A' for Active; 'I' for Inactive)
REMARK    1  A    between atoms: C_1  and  O_2
REMARK    2  A    between atoms: O_2  and  C_3
REMARK    3  A    between atoms: C_8  and  C_9
REMARK    4  A    between atoms: N_11  and  C_12
REMARK    5  A    between atoms: N_11  and  S_19
REMARK    6  A    between atoms: C_15  and  C_16
REMARK    7  A    between atoms: S_19  and  C_22
REMARK                            x       y       z     vdW  Elec       q    Type
REMARK                         _______ _______ _______ _____ _____    ______ ____
ROOT
ATOM      1  C   UNL     1       3.964   3.597  17.573  0.00  0.00    +0.000 C 
ATOM      2  O   UNL     1       4.475   2.650  16.977  0.00  0.00    +0.000 OA
ATOM      3  N   UNL     1       4.537   4.909  17.458  0.00  0.00    +0.000 N 
ENDROOT
BRANCH   3   4
ATOM      4  C   UNL     1       3.863   6.074  17.941  0.00  0.00    +0.000 A 
ATOM      5  C   UNL     1       3.512   7.086  17.043  0.00  0.00    +0.000 A 
ATOM      6  C   UNL     1       2.678   8.130  17.450  0.00  0.00    +0.000 A 
ATOM      7  C   UNL     1       2.218   8.188  18.770  0.00  0.00    +0.000 A 
ATOM      8  C   UNL     1       1.182   9.198  19.172  0.00  0.00    +0.000 C 
ATOM      9  C   UNL     1       2.681   7.241  19.696  0.00  0.00    +0.000 A 
ATOM     10  C   UNL     1       3.500   6.183  19.284  0.00  0.00    +0.000 A 
ENDBRANCH   3   4
BRANCH   1  16
ATOM     11  C   UNL     1       3.013   2.789  19.877  0.00  0.00    +0.000 A 
ATOM     12  C   UNL     1       1.865   2.408  20.604  0.00  0.00    +0.000 A 
ATOM     13  C   UNL     1       0.590   2.614  20.098  0.00  0.00    +0.000 A 
ATOM     14  C   UNL     1       0.440   3.190  18.844  0.00  0.00    +0.000 A 
ATOM     15  C   UNL     1       1.571   3.456  18.071  0.00  0.00    +0.000 A 
ATOM     16  C   UNL     1       2.880   3.217  18.548  0.00  0.00    +0.000 A 
BRANCH  11  18
ATOM     17  C   UNL     1       4.959   1.638  20.655  0.00  0.00    +0.000 C 
ATOM     18  O   UNL     1       4.240   2.855  20.474  0.00  0.00    +0.000 OA
ENDBRANCH  11  18
ENDBRANCH   1  16
BRANCH   3  19
ATOM     19  S   UNL     1       5.827   5.211  16.382  0.00  0.00    +0.000 S 
ATOM     20  O   UNL     1       6.683   4.045  16.264  0.00  0.00    +0.000 OA
ATOM     21  O   UNL     1       5.340   5.859  15.180  0.00  0.00    +0.000 OA
BRANCH  19  22
ATOM     22  C   UNL     1       6.768   6.474  17.253  0.00  0.00    +0.000 A 
ATOM     23  C   UNL     1       6.691   7.816  16.859  0.00  0.00    +0.000 A 
ATOM     24  C   UNL     1       7.481   8.772  17.507  0.00  0.00    +0.000 A 
ATOM     25  C   UNL     1       8.315   8.390  18.557  0.00  0.00    +0.000 A 
ATOM     26 CL   UNL     1       9.355   9.549  19.291  0.00  0.00    +0.000 Cl
ATOM     27  C   UNL     1       8.329   7.069  19.006  0.00  0.00    +0.000 A 
ATOM     28  C   UNL     1       7.544   6.109  18.360  0.00  0.00    +0.000 A 
ENDBRANCH  19  22
ENDBRANCH   3  19
TORSDOF 5
ENDMDL
MODEL 6
REMARK VINA RESULT:      -7.3      1.123      1.853
REMARK  Name = 
REMARK  7 active torsions:
REMARK  status: ('A' for Active; 'I' for Inactive)
REMARK    1  A    between atoms: C_1  and  O_2
REMARK    2  A    between atoms: O_2  and  C_3
REMARK    3  A    between atoms: C_8  and  C_9
REMARK    4  A    between atoms: N_11  and  C_12
REMARK    5  A    between atoms: N_11  and  S_19
REMARK    6  A    between atoms: C_15  and  C_16
REMARK    7  A    between atoms: S_19  and  C_22
REMARK                            x       y       z     vdW  Elec       q    Type
REMARK                         _______ _______ _______ _____ _____    ______ ____
ROOT
ATOM      1  C   UNL     1       4.310   4.124  18.120  0.00  0.00    +0.000 C 
ATOM      2  O   UNL     1       5.183   3.337  17.758  0.00  0.00    +0.000 OA
ATOM      3  N   UNL     1       4.589   5.530  18.173  0.00  0.00    +0.000 N 
ENDROOT
BRANCH   3   4
ATOM      4  C   UNL     1       3.557   6.501  18.368  0.00  0.00    +0.000 A 
ATOM      5  C   UNL     1       2.925   6.592  19.612  0.00  0.00    +0.000 A 
ATOM      6  C   UNL     1       2.067   7.658  19.888  0.00  0.00    +0.000 A 
ATOM      7  C   UNL     1       1.807   8.623  18.911  0.00  0.00    +0.000 A 
ATOM      8  C   UNL     1       1.034   9.865  19.252  0.00  0.00    +0.000 C 
ATOM      9  C   UNL     1       2.343   8.454  17.625  0.00  0.00    +0.000 A 
ATOM     10  C   UNL     1       3.219   7.396  17.352  0.00  0.00    +0.000 A 
ENDBRANCH   3   4
BRANCH   1  16
ATOM     11  C   UNL     1       2.922   2.764  19.880  0.00  0.00    +0.000 A 
ATOM     12  C   UNL     1       1.682   2.167  20.188  0.00  0.00    +0.000 A 
ATOM     13  C   UNL     1       0.553   2.412  19.420  0.00  0.00    +0.000 A 
ATOM     14  C   UNL     1       0.649   3.246  18.315  0.00  0.00    +0.000 A 
ATOM     15  C   UNL     1       1.898   3.742  17.936  0.00  0.00    +0.000 A 
ATOM     16  C   UNL     1       3.070   3.473  18.679  0.00  0.00    +0.000 A 
BRANCH  11  18
ATOM     17  C   UNL     1       4.807   1.621  20.807  0.00  0.00    +0.000 C 
ATOM     18  O   UNL     1       3.953   2.761  20.778  0.00  0.00    +0.000 OA
ENDBRANCH  11  18
ENDBRANCH   1  16
BRANCH   3  19
ATOM     19  S   UNL     1       6.068   6.153  17.590  0.00  0.00    +0.000 S 
ATOM     20  O   UNL     1       5.982   7.589  17.398  0.00  0.00    +0.000 OA
ATOM     21  O   UNL     1       7.178   5.602  18.341  0.00  0.00    +0.000 OA
BRANCH  19  22
ATOM     22  C   UNL     1       6.184   5.405  15.957  0.00  0.00    +0.000 A 
ATOM     23  C   UNL     1       5.026   5.068  15.245  0.00  0.00    +0.000 A 
ATOM     24  C   UNL     1       5.138   4.428  14.006  0.00  0.00    +0.000 A 
ATOM     25  C   UNL     1       6.399   4.157  13.475  0.00  0.00    +0.000 A 
ATOM     26 CL   UNL     1       6.536   3.286  11.996  0.00  0.00    +0.000 Cl
ATOM     27  C   UNL     1       7.552   4.568  14.143  0.00  0.00    +0.000 A 
ATOM     28  C   UNL     1       7.446   5.206  15.383  0.00  0.00    +0.000 A 
ENDBRANCH  19  22
ENDBRANCH   3  19
TORSDOF 5
ENDMDL
MODEL 7
REMARK VINA RESULT:      -7.2      8.026      9.830
REMARK  Name = 
REMARK  7 active torsions:
REMARK  status: ('A' for Active; 'I' for Inactive)
REMARK    1  A    between atoms: C_1  and  O_2
REMARK    2  A    between atoms: O_2  and  C_3
REMARK    3  A    between atoms: C_8  and  C_9
REMARK    4  A    between atoms: N_11  and  C_12
REMARK    5  A    between atoms: N_11  and  S_19
REMARK    6  A    between atoms: C_15  and  C_16
REMARK    7  A    between atoms: S_19  and  C_22
REMARK                            x       y       z     vdW  Elec       q    Type
REMARK                         _______ _______ _______ _____ _____    ______ ____
ROOT
ATOM      1  C   UNL     1       0.574  12.811  21.124  0.00  0.00    +0.000 C 
ATOM      2  O   UNL     1       1.575  13.316  21.629  0.00  0.00    +0.000 OA
ATOM      3  N   UNL     1      -0.299  13.610  20.311  0.00  0.00    +0.000 N 
ENDROOT
BRANCH   3   4
ATOM      4  C   UNL     1      -1.342  13.030  19.524  0.00  0.00    +0.000 A 
ATOM      5  C   UNL     1      -1.032  12.452  18.289  0.00  0.00    +0.000 A 
ATOM      6  C   UNL     1      -1.989  11.703  17.602  0.00  0.00    +0.000 A 
ATOM      7  C   UNL     1      -3.277  11.555  18.128  0.00  0.00    +0.000 A 
ATOM      8  C   UNL     1      -4.256  10.609  17.494  0.00  0.00    +0.000 C 
ATOM      9  C   UNL     1      -3.617  12.245  19.302  0.00  0.00    +0.000 A 
ATOM     10  C   UNL     1      -2.653  12.980  20.002  0.00  0.00    +0.000 A 
ENDBRANCH   3   4
BRANCH   1  16
ATOM     11  C   UNL     1      -0.509  11.023  22.704  0.00  0.00    +0.000 A 
ATOM     12  C   UNL     1      -0.618   9.653  23.025  0.00  0.00    +0.000 A 
ATOM     13  C   UNL     1      -0.130   8.672  22.175  0.00  0.00    +0.000 A 
ATOM     14  C   UNL     1       0.497   9.045  20.994  0.00  0.00    +0.000 A 
ATOM     15  C   UNL     1       0.716  10.399  20.731  0.00  0.00    +0.000 A 
ATOM     16  C   UNL     1       0.263  11.415  21.601  0.00  0.00    +0.000 A 
BRANCH  11  18
ATOM     17  C   UNL     1      -2.647  11.845  23.391  0.00  0.00    +0.000 C 
ATOM     18  O   UNL     1      -1.228  11.968  23.380  0.00  0.00    +0.000 OA
ENDBRANCH  11  18
ENDBRANCH   1  16
BRANCH   3  19
ATOM     19  S   UNL     1       0.111  15.215  19.901  0.00  0.00    +0.000 S 
ATOM     20  O   UNL     1      -0.733  15.703  18.825  0.00  0.00    +0.000 OA
ATOM     21  O   UNL     1       0.270  16.017  21.097  0.00  0.00    +0.000 OA
BRANCH  19  22
ATOM     22  C   UNL     1       1.771  15.031  19.230  0.00  0.00    +0.000 A 
ATOM     23  C   UNL     1       2.066  13.991  18.339  0.00  0.00    +0.000 A 
ATOM     24  C   UNL     1       3.378  13.825  17.882  0.00  0.00    +0.000 A 
ATOM     25  C   UNL     1       4.374  14.711  18.290  0.00  0.00    +0.000 A 
ATOM     26 CL   UNL     1       6.004  14.452  17.801  0.00  0.00    +0.000 Cl
ATOM     27  C   UNL     1       4.064  15.797  19.109  0.00  0.00    +0.000 A 
ATOM     28  C   UNL     1       2.756  15.965  19.572  0.00  0.00    +0.000 A 
ENDBRANCH  19  22
ENDBRANCH   3  19
TORSDOF 5
ENDMDL
MODEL 8
REMARK VINA RESULT:      -7.2      5.344      8.961
REMARK  Name = 
REMARK  7 active torsions:
REMARK  status: ('A' for Active; 'I' for Inactive)
REMARK    1  A    between atoms: C_1  and  O_2
REMARK    2  A    between atoms: O_2  and  C_3
REMARK    3  A    between atoms: C_8  and  C_9
REMARK    4  A    between atoms: N_11  and  C_12
REMARK    5  A    between atoms: N_11  and  S_19
REMARK    6  A    between atoms: C_15  and  C_16
REMARK    7  A    between atoms: S_19  and  C_22
REMARK                            x       y       z     vdW  Elec       q    Type
REMARK                         _______ _______ _______ _____ _____    ______ ____
ROOT
ATOM      1  C   UNL     1       1.268  12.158  20.519  0.00  0.00    +0.000 C 
ATOM      2  O   UNL     1       2.172  11.952  21.327  0.00  0.00    +0.000 OA
ATOM      3  N   UNL     1       0.334  11.114  20.206  0.00  0.00    +0.000 N 
ENDROOT
BRANCH   3   4
ATOM      4  C   UNL     1      -0.856  11.362  19.454  0.00  0.00    +0.000 A 
ATOM      5  C   UNL     1      -0.980  10.828  18.168  0.00  0.00    +0.000 A 
ATOM      6  C   UNL     1      -2.204  10.881  17.499  0.00  0.00    +0.000 A 
ATOM      7  C   UNL     1      -3.306  11.501  18.097  0.00  0.00    +0.000 A 
ATOM      8  C   UNL     1      -4.668  11.407  17.470  0.00  0.00    +0.000 C 
ATOM      9  C   UNL     1      -3.138  12.148  19.332  0.00  0.00    +0.000 A 
ATOM     10  C   UNL     1      -1.917  12.077  20.012  0.00  0.00    +0.000 A 
ENDBRANCH   3   4
BRANCH   1  16
ATOM     11  C   UNL     1       0.709  14.673  20.035  0.00  0.00    +0.000 A 
ATOM     12  C   UNL     1       0.895  15.770  19.168  0.00  0.00    +0.000 A 
ATOM     13  C   UNL     1       1.855  15.744  18.167  0.00  0.00    +0.000 A 
ATOM     14  C   UNL     1       2.635  14.608  18.003  0.00  0.00    +0.000 A 
ATOM     15  C   UNL     1       2.373  13.477  18.777  0.00  0.00    +0.000 A 
ATOM     16  C   UNL     1       1.374  13.465  19.776  0.00  0.00    +0.000 A 
BRANCH  11  18
ATOM     17  C   UNL     1       0.629  15.341  22.330  0.00  0.00    +0.000 C 
ATOM     18  O   UNL     1      -0.019  14.794  21.186  0.00  0.00    +0.000 OA
ENDBRANCH  11  18
ENDBRANCH   1  16
BRANCH   3  19
ATOM     19  S   UNL     1       0.359   9.633  21.055  0.00  0.00    +0.000 S 
ATOM     20  O   UNL     1       1.041   9.781  22.328  0.00  0.00    +0.000 OA
ATOM     21  O   UNL     1      -0.947   9.007  21.017  0.00  0.00    +0.000 OA
BRANCH  19  22
ATOM     22  C   UNL     1       1.405   8.607  20.010  0.00  0.00    +0.000 A 
ATOM     23  C   UNL     1       1.833   9.070  18.759  0.00  0.00    +0.000 A 
ATOM     24  C   UNL     1       2.590   8.232  17.934  0.00  0.00    +0.000 A 
ATOM     25  C   UNL     1       2.940   6.955  18.372  0.00  0.00    +0.000 A 
ATOM     26 CL   UNL     1       3.791   5.891  17.321  0.00  0.00    +0.000 Cl
ATOM     27  C   UNL     1       2.587   6.524  19.652  0.00  0.00    +0.000 A 
ATOM     28  C   UNL     1       1.827   7.357  20.479  0.00  0.00    +0.000 A 
ENDBRANCH  19  22
ENDBRANCH   3  19
TORSDOF 5
ENDMDL
MODEL 9
REMARK VINA RESULT:      -7.1      5.378      8.978
REMARK  Name = 
REMARK  7 active torsions:
REMARK  status: ('A' for Active; 'I' for Inactive)
REMARK    1  A    between atoms: C_1  and  O_2
REMARK    2  A    between atoms: O_2  and  C_3
REMARK    3  A    between atoms: C_8  and  C_9
REMARK    4  A    between atoms: N_11  and  C_12
REMARK    5  A    between atoms: N_11  and  S_19
REMARK    6  A    between atoms: C_15  and  C_16
REMARK    7  A    between atoms: S_19  and  C_22
REMARK                            x       y       z     vdW  Elec       q    Type
REMARK                         _______ _______ _______ _____ _____    ______ ____
ROOT
ATOM      1  C   UNL     1       1.320  12.237  20.520  0.00  0.00    +0.000 C 
ATOM      2  O   UNL     1       2.257  12.021  21.286  0.00  0.00    +0.000 OA
ATOM      3  N   UNL     1       0.379  11.194  20.226  0.00  0.00    +0.000 N 
ENDROOT
BRANCH   3   4
ATOM      4  C   UNL     1      -0.842  11.449  19.528  0.00  0.00    +0.000 A 
ATOM      5  C   UNL     1      -1.007  10.958  18.229  0.00  0.00    +0.000 A 
ATOM      6  C   UNL     1      -2.257  11.015  17.609  0.00  0.00    +0.000 A 
ATOM      7  C   UNL     1      -3.344  11.597  18.270  0.00  0.00    +0.000 A 
ATOM      8  C   UNL     1      -4.727  11.503  17.691  0.00  0.00    +0.000 C 
ATOM      9  C   UNL     1      -3.138  12.203  19.519  0.00  0.00    +0.000 A 
ATOM     10  C   UNL     1      -1.891  12.128  20.150  0.00  0.00    +0.000 A 
ENDBRANCH   3   4
BRANCH   1  16
ATOM     11  C   UNL     1       0.718  14.753  20.098  0.00  0.00    +0.000 A 
ATOM     12  C   UNL     1       0.866  15.867  19.245  0.00  0.00    +0.000 A 
ATOM     13  C   UNL     1       1.796  15.870  18.217  0.00  0.00    +0.000 A 
ATOM     14  C   UNL     1       2.585  14.747  18.009  0.00  0.00    +0.000 A 
ATOM     15  C   UNL     1       2.359  13.599  18.771  0.00  0.00    +0.000 A 
ATOM     16  C   UNL     1       1.389  13.558  19.797  0.00  0.00    +0.000 A 
BRANCH  11  18
ATOM     17  C   UNL     1      -1.235  15.512  21.248  0.00  0.00    +0.000 C 
ATOM     18  O   UNL     1       0.023  14.845  21.271  0.00  0.00    +0.000 OA
ENDBRANCH  11  18
ENDBRANCH   1  16
BRANCH   3  19
ATOM     19  S   UNL     1       0.446   9.697  21.045  0.00  0.00    +0.000 S 
ATOM     20  O   UNL     1       1.202   9.819  22.279  0.00  0.00    +0.000 OA
ATOM     21  O   UNL     1      -0.863   9.077  21.072  0.00  0.00    +0.000 OA
BRANCH  19  22
ATOM     22  C   UNL     1       1.425   8.687  19.922  0.00  0.00    +0.000 A 
ATOM     23  C   UNL     1       1.846   7.406  20.302  0.00  0.00    +0.000 A 
ATOM     24  C   UNL     1       2.661   6.663  19.441  0.00  0.00    +0.000 A 
ATOM     25  C   UNL     1       3.024   7.189  18.201  0.00  0.00    +0.000 A 
ATOM     26 CL   UNL     1       4.103   6.315  17.183  0.00  0.00    +0.000 Cl
ATOM     27  C   UNL     1       2.537   8.428  17.787  0.00  0.00    +0.000 A 
ATOM     28  C   UNL     1       1.724   9.176  18.645  0.00  0.00    +0.000 A 
ENDBRANCH  19  22
ENDBRANCH   3  19
TORSDOF 5
ENDMDL
