MODEL 1
REMARK VINA RESULT:      -6.8      0.000      0.000
REMARK  Name = 
REMARK  3 active torsions:
REMARK  status: ('A' for Active; 'I' for Inactive)
REMARK    1  A    between atoms: C_1  and  C_2
REMARK    2  A    between atoms: C_2  and  N_3
REMARK    3  A    between atoms: N_9  and  C_10
REMARK                            x       y       z     vdW  Elec       q    Type
REMARK                         _______ _______ _______ _____ _____    ______ ____
ROOT
ATOM      1  N   UNL     1       1.833   4.140  19.550  0.00  0.00    +0.000 NA
ATOM      2  C   UNL     1       3.198   4.611  19.881  0.00  0.00    +0.000 C 
ATOM      3  C   UNL     1       4.350   3.908  19.133  0.00  0.00    +0.000 C 
ATOM      4  N   UNL     1       4.106   3.851  17.687  0.00  0.00    +0.000 N 
ATOM      5  C   UNL     1       5.173   4.095  16.835  0.00  0.00    +0.000 C 
ATOM      6  O   UNL     1       6.294   4.319  17.287  0.00  0.00    +0.000 OA
ATOM      7  N   UNL     1       4.869   4.098  15.490  0.00  0.00    +0.000 N 
ATOM      8  C   UNL     1       2.785   3.321  17.337  0.00  0.00    +0.000 C 
ATOM      9  C   UNL     1       1.681   4.106  18.076  0.00  0.00    +0.000 C 
ATOM     10  H   UNL     1       3.906   4.249  15.248  0.00  0.00    +0.000 HD
ENDROOT
BRANCH   7  11
ATOM     11  C   UNL     1       5.787   4.250  14.423  0.00  0.00    +0.000 A 
ATOM     12  C   UNL     1       6.881   5.117  14.466  0.00  0.00    +0.000 A 
ATOM     13  C   UNL     1       7.730   5.256  13.365  0.00  0.00    +0.000 A 
ATOM     14  C   UNL     1       7.502   4.516  12.211  0.00  0.00    +0.000 A 
ATOM     15  C   UNL     1       6.431   3.624  12.164  0.00  0.00    +0.000 A 
ATOM     16  C   UNL     1       5.578   3.491  13.264  0.00  0.00    +0.000 A 
ENDBRANCH   7  11
BRANCH   1  18
ATOM     17  C   UNL     1       1.838   2.721  21.621  0.00  0.00    +0.000 C 
ATOM     18  C   UNL     1       1.486   2.841  20.142  0.00  0.00    +0.000 C 
ENDBRANCH   1  18
TORSDOF 2
ENDMDL
MODEL 2
REMARK VINA RESULT:      -6.6      1.105      1.181
REMARK  Name = 
REMARK  3 active torsions:
REMARK  status: ('A' for Active; 'I' for Inactive)
REMARK    1  A    between atoms: C_1  and  C_2
REMARK    2  A    between atoms: C_2  and  N_3
REMARK    3  A    between atoms: N_9  and  C_10
REMARK                            x       y       z     vdW  Elec       q    Type
REMARK                         _______ _______ _______ _____ _____    ______ ____
ROOT
ATOM      1  N   UNL     1       1.944   4.177  19.557  0.00  0.00    +0.000 NA
ATOM      2  C   UNL     1       2.152   5.530  18.991  0.00  0.00    +0.000 C 
ATOM      3  C   UNL     1       3.575   5.830  18.475  0.00  0.00    +0.000 C 
ATOM      4  N   UNL     1       4.072   4.765  17.595  0.00  0.00    +0.000 N 
ATOM      5  C   UNL     1       4.773   5.132  16.457  0.00  0.00    +0.000 C 
ATOM      6  O   UNL     1       4.995   6.318  16.217  0.00  0.00    +0.000 OA
ATOM      7  N   UNL     1       5.153   4.095  15.633  0.00  0.00    +0.000 N 
ATOM      8  C   UNL     1       3.939   3.422  18.169  0.00  0.00    +0.000 C 
ATOM      9  C   UNL     1       2.481   3.171  18.610  0.00  0.00    +0.000 C 
ATOM     10  H   UNL     1       4.642   3.235  15.730  0.00  0.00    +0.000 HD
ENDROOT
BRANCH   7  11
ATOM     11  C   UNL     1       5.934   4.199  14.457  0.00  0.00    +0.000 A 
ATOM     12  C   UNL     1       7.080   4.991  14.362  0.00  0.00    +0.000 A 
ATOM     13  C   UNL     1       7.788   5.087  13.162  0.00  0.00    +0.000 A 
ATOM     14  C   UNL     1       7.365   4.379  12.044  0.00  0.00    +0.000 A 
ATOM     15  C   UNL     1       6.240   3.561  12.131  0.00  0.00    +0.000 A 
ATOM     16  C   UNL     1       5.527   3.470  13.331  0.00  0.00    +0.000 A 
ENDBRANCH   7  11
BRANCH   1  18
ATOM     17  C   UNL     1       1.969   2.780  21.642  0.00  0.00    +0.000 C 
ATOM     18  C   UNL     1       2.517   3.993  20.897  0.00  0.00    +0.000 C 
ENDBRANCH   1  18
TORSDOF 2
ENDMDL
MODEL 3
REMARK VINA RESULT:      -6.5      0.103      1.171
REMARK  Name = 
REMARK  3 active torsions:
REMARK  status: ('A' for Active; 'I' for Inactive)
REMARK    1  A    between atoms: C_1  and  C_2
REMARK    2  A    between atoms: C_2  and  N_3
REMARK    3  A    between atoms: N_9  and  C_10
REMARK                            x       y       z     vdW  Elec       q    Type
REMARK                         _______ _______ _______ _____ _____    ______ ____
ROOT
ATOM      1  N   UNL     1       1.855   4.251  19.552  0.00  0.00    +0.000 NA
ATOM      2  C   UNL     1       3.239   4.682  19.854  0.00  0.00    +0.000 C 
ATOM      3  C   UNL     1       4.355   3.947  19.082  0.00  0.00    +0.000 C 
ATOM      4  N   UNL     1       4.079   3.898  17.641  0.00  0.00    +0.000 N 
ATOM      5  C   UNL     1       5.134   4.111  16.767  0.00  0.00    +0.000 C 
ATOM      6  O   UNL     1       6.270   4.303  17.196  0.00  0.00    +0.000 OA
ATOM      7  N   UNL     1       4.803   4.124  15.429  0.00  0.00    +0.000 N 
ATOM      8  C   UNL     1       2.736   3.406  17.319  0.00  0.00    +0.000 C 
ATOM      9  C   UNL     1       1.671   4.222  18.081  0.00  0.00    +0.000 C 
ATOM     10  H   UNL     1       3.839   4.303  15.207  0.00  0.00    +0.000 HD
ENDROOT
BRANCH   7  11
ATOM     11  C   UNL     1       5.701   4.250  14.342  0.00  0.00    +0.000 A 
ATOM     12  C   UNL     1       5.584   3.518  13.159  0.00  0.00    +0.000 A 
ATOM     13  C   UNL     1       6.527   3.654  12.136  0.00  0.00    +0.000 A 
ATOM     14  C   UNL     1       7.589   4.537  12.279  0.00  0.00    +0.000 A 
ATOM     15  C   UNL     1       7.703   5.297  13.443  0.00  0.00    +0.000 A 
ATOM     16  C   UNL     1       6.764   5.155  14.470  0.00  0.00    +0.000 A 
ENDBRANCH   7  11
BRANCH   1  18
ATOM     17  C   UNL     1       1.827   2.846  21.632  0.00  0.00    +0.000 C 
ATOM     18  C   UNL     1       1.483   2.962  20.151  0.00  0.00    +0.000 C 
ENDBRANCH   1  18
TORSDOF 2
ENDMDL
MODEL 4
REMARK VINA RESULT:      -6.5      1.087      1.641
REMARK  Name = 
REMARK  3 active torsions:
REMARK  status: ('A' for Active; 'I' for Inactive)
REMARK    1  A    between atoms: C_1  and  C_2
REMARK    2  A    between atoms: C_2  and  N_3
REMARK    3  A    between atoms: N_9  and  C_10
REMARK                            x       y       z     vdW  Elec       q    Type
REMARK                         _______ _______ _______ _____ _____    ______ ____
ROOT
ATOM      1  N   UNL     1       1.993   4.204  19.609  0.00  0.00    +0.000 NA
ATOM      2  C   UNL     1       2.243   5.560  19.071  0.00  0.00    +0.000 C 
ATOM      3  C   UNL     1       3.662   5.814  18.522  0.00  0.00    +0.000 C 
ATOM      4  N   UNL     1       4.089   4.752  17.602  0.00  0.00    +0.000 N 
ATOM      5  C   UNL     1       4.773   5.120  16.453  0.00  0.00    +0.000 C 
ATOM      6  O   UNL     1       5.039   6.301  16.236  0.00  0.00    +0.000 OA
ATOM      7  N   UNL     1       5.085   4.089  15.593  0.00  0.00    +0.000 N 
ATOM      8  C   UNL     1       3.915   3.402  18.146  0.00  0.00    +0.000 C 
ATOM      9  C   UNL     1       2.460   3.201  18.622  0.00  0.00    +0.000 C 
ATOM     10  H   UNL     1       4.540   3.249  15.683  0.00  0.00    +0.000 HD
ENDROOT
BRANCH   7  11
ATOM     11  C   UNL     1       5.836   4.191  14.398  0.00  0.00    +0.000 A 
ATOM     12  C   UNL     1       5.481   3.549  13.208  0.00  0.00    +0.000 A 
ATOM     13  C   UNL     1       6.285   3.653  12.071  0.00  0.00    +0.000 A 
ATOM     14  C   UNL     1       7.447   4.413  12.105  0.00  0.00    +0.000 A 
ATOM     15  C   UNL     1       7.799   5.084  13.275  0.00  0.00    +0.000 A 
ATOM     16  C   UNL     1       6.998   4.974  14.417  0.00  0.00    +0.000 A 
ENDBRANCH   7  11
BRANCH   1  18
ATOM     17  C   UNL     1       1.998   2.769  21.669  0.00  0.00    +0.000 C 
ATOM     18  C   UNL     1       2.595   3.960  20.927  0.00  0.00    +0.000 C 
ENDBRANCH   1  18
TORSDOF 2
ENDMDL
MODEL 5
REMARK VINA RESULT:      -6.2      4.853      6.058
REMARK  Name = 
REMARK  3 active torsions:
REMARK  status: ('A' for Active; 'I' for Inactive)
REMARK    1  A    between atoms: C_1  and  C_2
REMARK    2  A    between atoms: C_2  and  N_3
REMARK    3  A    between atoms: N_9  and  C_10
REMARK                            x       y       z     vdW  Elec       q    Type
REMARK                         _______ _______ _______ _____ _____    ______ ____
ROOT
ATOM      1  N   UNL     1      -0.654   9.846  21.183  0.00  0.00    +0.000 NA
ATOM      2  C   UNL     1      -0.525  10.200  19.751  0.00  0.00    +0.000 C 
ATOM      3  C   UNL     1       0.892  10.076  19.153  0.00  0.00    +0.000 C 
ATOM      4  N   UNL     1       1.508   8.783  19.474  0.00  0.00    +0.000 N 
ATOM      5  C   UNL     1       2.229   8.138  18.480  0.00  0.00    +0.000 C 
ATOM      6  O   UNL     1       2.369   8.658  17.375  0.00  0.00    +0.000 OA
ATOM      7  N   UNL     1       2.723   6.896  18.817  0.00  0.00    +0.000 N 
ATOM      8  C   UNL     1       1.453   8.447  20.900  0.00  0.00    +0.000 C 
ATOM      9  C   UNL     1       0.001   8.537  21.415  0.00  0.00    +0.000 C 
ATOM     10  H   UNL     1       2.276   6.429  19.585  0.00  0.00    +0.000 HD
ENDROOT
BRANCH   7  11
ATOM     11  C   UNL     1       3.545   6.073  18.010  0.00  0.00    +0.000 A 
ATOM     12  C   UNL     1       4.788   6.476  17.516  0.00  0.00    +0.000 A 
ATOM     13  C   UNL     1       5.537   5.635  16.689  0.00  0.00    +0.000 A 
ATOM     14  C   UNL     1       5.058   4.373  16.360  0.00  0.00    +0.000 A 
ATOM     15  C   UNL     1       3.833   3.946  16.869  0.00  0.00    +0.000 A 
ATOM     16  C   UNL     1       3.080   4.791  17.691  0.00  0.00    +0.000 A 
ENDBRANCH   7  11
BRANCH   1  18
ATOM     17  C   UNL     1      -1.206  11.614  22.878  0.00  0.00    +0.000 C 
ATOM     18  C   UNL     1      -0.128  10.864  22.103  0.00  0.00    +0.000 C 
ENDBRANCH   1  18
TORSDOF 2
ENDMDL
MODEL 6
REMARK VINA RESULT:      -6.1      1.614      7.006
REMARK  Name = 
REMARK  3 active torsions:
REMARK  status: ('A' for Active; 'I' for Inactive)
REMARK    1  A    between atoms: C_1  and  C_2
REMARK    2  A    between atoms: C_2  and  N_3
REMARK    3  A    between atoms: N_9  and  C_10
REMARK                            x       y       z     vdW  Elec       q    Type
REMARK                         _______ _______ _______ _____ _____    ______ ____
ROOT
ATOM      1  N   UNL     1       7.361   5.013  14.976  0.00  0.00    +0.000 NA
ATOM      2  C   UNL     1       7.049   6.109  15.921  0.00  0.00    +0.000 C 
ATOM      3  C   UNL     1       5.571   6.226  16.349  0.00  0.00    +0.000 C 
ATOM      4  N   UNL     1       5.024   4.934  16.780  0.00  0.00    +0.000 N 
ATOM      5  C   UNL     1       4.198   4.913  17.894  0.00  0.00    +0.000 C 
ATOM      6  O   UNL     1       3.911   5.957  18.477  0.00  0.00    +0.000 OA
ATOM      7  N   UNL     1       3.773   3.665  18.294  0.00  0.00    +0.000 N 
ATOM      8  C   UNL     1       5.262   3.849  15.823  0.00  0.00    +0.000 C 
ATOM      9  C   UNL     1       6.765   3.755  15.486  0.00  0.00    +0.000 C 
ATOM     10  H   UNL     1       4.321   2.883  17.982  0.00  0.00    +0.000 HD
ENDROOT
BRANCH   7  11
ATOM     11  C   UNL     1       2.873   3.383  19.350  0.00  0.00    +0.000 A 
ATOM     12  C   UNL     1       1.500   3.631  19.277  0.00  0.00    +0.000 A 
ATOM     13  C   UNL     1       0.666   3.371  20.367  0.00  0.00    +0.000 A 
ATOM     14  C   UNL     1       1.194   2.844  21.539  0.00  0.00    +0.000 A 
ATOM     15  C   UNL     1       2.557   2.563  21.617  0.00  0.00    +0.000 A 
ATOM     16  C   UNL     1       3.393   2.830  20.528  0.00  0.00    +0.000 A 
ENDBRANCH   7  11
BRANCH   1  18
ATOM     17  C   UNL     1       6.920   4.029  12.709  0.00  0.00    +0.000 C 
ATOM     18  C   UNL     1       6.934   5.271  13.594  0.00  0.00    +0.000 C 
ENDBRANCH   1  18
TORSDOF 2
ENDMDL
MODEL 7
REMARK VINA RESULT:      -6.0      1.598      6.974
REMARK  Name = 
REMARK  3 active torsions:
REMARK  status: ('A' for Active; 'I' for Inactive)
REMARK    1  A    between atoms: C_1  and  C_2
REMARK    2  A    between atoms: C_2  and  N_3
REMARK    3  A    between atoms: N_9  and  C_10
REMARK                            x       y       z     vdW  Elec       q    Type
REMARK                         _______ _______ _______ _____ _____    ______ ____
ROOT
ATOM      1  N   UNL     1       7.398   4.961  15.006  0.00  0.00    +0.000 NA
ATOM      2  C   UNL     1       7.206   6.019  16.024  0.00  0.00    +0.000 C 
ATOM      3  C   UNL     1       5.758   6.222  16.517  0.00  0.00    +0.000 C 
ATOM      4  N   UNL     1       5.127   4.951  16.894  0.00  0.00    +0.000 N 
ATOM      5  C   UNL     1       4.341   4.926  18.037  0.00  0.00    +0.000 C 
ATOM      6  O   UNL     1       4.158   5.952  18.689  0.00  0.00    +0.000 OA
ATOM      7  N   UNL     1       3.835   3.691  18.381  0.00  0.00    +0.000 N 
ATOM      8  C   UNL     1       5.246   3.911  15.867  0.00  0.00    +0.000 C 
ATOM      9  C   UNL     1       6.724   3.723  15.465  0.00  0.00    +0.000 C 
ATOM     10  H   UNL     1       4.308   2.891  18.002  0.00  0.00    +0.000 HD
ENDROOT
BRANCH   7  11
ATOM     11  C   UNL     1       2.953   3.415  19.453  0.00  0.00    +0.000 A 
ATOM     12  C   UNL     1       3.370   2.879  20.674  0.00  0.00    +0.000 A 
ATOM     13  C   UNL     1       2.447   2.588  21.682  0.00  0.00    +0.000 A 
ATOM     14  C   UNL     1       1.096   2.846  21.486  0.00  0.00    +0.000 A 
ATOM     15  C   UNL     1       0.668   3.408  20.284  0.00  0.00    +0.000 A 
ATOM     16  C   UNL     1       1.591   3.692  19.272  0.00  0.00    +0.000 A 
ENDBRANCH   7  11
BRANCH   1  18
ATOM     17  C   UNL     1       6.969   4.185  12.658  0.00  0.00    +0.000 C 
ATOM     18  C   UNL     1       6.945   5.335  13.659  0.00  0.00    +0.000 C 
ENDBRANCH   1  18
TORSDOF 2
ENDMDL
MODEL 8
REMARK VINA RESULT:      -6.0      4.978      6.681
REMARK  Name = 
REMARK  3 active torsions:
REMARK  status: ('A' for Active; 'I' for Inactive)
REMARK    1  A    between atoms: C_1  and  C_2
REMARK    2  A    between atoms: C_2  and  N_3
REMARK    3  A    between atoms: N_9  and  C_10
REMARK                            x       y       z     vdW  Elec       q    Type
REMARK                         _______ _______ _______ _____ _____    ______ ____
ROOT
ATOM      1  N   UNL     1      -0.699  10.676  20.477  0.00  0.00    +0.000 NA
ATOM      2  C   UNL     1      -0.248  10.749  19.069  0.00  0.00    +0.000 C 
ATOM      3  C   UNL     1       1.192  10.265  18.799  0.00  0.00    +0.000 C 
ATOM      4  N   UNL     1       1.450   8.955  19.409  0.00  0.00    +0.000 N 
ATOM      5  C   UNL     1       2.179   8.027  18.680  0.00  0.00    +0.000 C 
ATOM      6  O   UNL     1       2.620   8.315  17.569  0.00  0.00    +0.000 OA
ATOM      7  N   UNL     1       2.329   6.792  19.273  0.00  0.00    +0.000 N 
ATOM      8  C   UNL     1       1.075   8.885  20.825  0.00  0.00    +0.000 C 
ATOM      9  C   UNL     1      -0.392   9.328  21.011  0.00  0.00    +0.000 C 
ATOM     10  H   UNL     1       1.664   6.554  19.988  0.00  0.00    +0.000 HD
ENDROOT
BRANCH   7  11
ATOM     11  C   UNL     1       3.084   5.706  18.771  0.00  0.00    +0.000 A 
ATOM     12  C   UNL     1       2.600   4.809  17.816  0.00  0.00    +0.000 A 
ATOM     13  C   UNL     1       3.377   3.729  17.387  0.00  0.00    +0.000 A 
ATOM     14  C   UNL     1       4.655   3.544  17.899  0.00  0.00    +0.000 A 
ATOM     15  C   UNL     1       5.164   4.447  18.831  0.00  0.00    +0.000 A 
ATOM     16  C   UNL     1       4.383   5.524  19.265  0.00  0.00    +0.000 A 
ENDBRANCH   7  11
BRANCH   1  18
ATOM     17  C   UNL     1      -0.868  11.883  22.672  0.00  0.00    +0.000 C 
ATOM     18  C   UNL     1      -0.137  11.722  21.343  0.00  0.00    +0.000 C 
ENDBRANCH   1  18
TORSDOF 2
ENDMDL
MODEL 9
REMARK VINA RESULT:      -5.8      1.214      1.402
REMARK  Name = 
REMARK  3 active torsions:
REMARK  status: ('A' for Active; 'I' for Inactive)
REMARK    1  A    between atoms: C_1  and  C_2
REMARK    2  A    between atoms: C_2  and  N_3
REMARK    3  A    between atoms: N_9  and  C_10
REMARK                            x       y       z     vdW  Elec       q    Type
REMARK                         _______ _______ _______ _____ _____    ______ ____
ROOT
ATOM      1  N   UNL     1       1.537   2.524  19.682  0.00  0.00    +0.000 NA
ATOM      2  C   UNL     1       1.434   3.929  19.227  0.00  0.00    +0.000 C 
ATOM      3  C   UNL     1       2.771   4.631  18.910  0.00  0.00    +0.000 C 
ATOM      4  N   UNL     1       3.622   3.814  18.037  0.00  0.00    +0.000 N 
ATOM      5  C   UNL     1       4.315   4.451  17.018  0.00  0.00    +0.000 C 
ATOM      6  O   UNL     1       4.236   5.670  16.878  0.00  0.00    +0.000 OA
ATOM      7  N   UNL     1       5.040   3.624  16.187  0.00  0.00    +0.000 N 
ATOM      8  C   UNL     1       3.794   2.437  18.509  0.00  0.00    +0.000 C 
ATOM      9  C   UNL     1       2.418   1.780  18.751  0.00  0.00    +0.000 C 
ATOM     10  H   UNL     1       4.770   2.657  16.169  0.00  0.00    +0.000 HD
ENDROOT
BRANCH   7  11
ATOM     11  C   UNL     1       5.883   4.031  15.125  0.00  0.00    +0.000 A 
ATOM     12  C   UNL     1       6.969   4.893  15.292  0.00  0.00    +0.000 A 
ATOM     13  C   UNL     1       7.741   5.294  14.198  0.00  0.00    +0.000 A 
ATOM     14  C   UNL     1       7.444   4.824  12.925  0.00  0.00    +0.000 A 
ATOM     15  C   UNL     1       6.381   3.940  12.747  0.00  0.00    +0.000 A 
ATOM     16  C   UNL     1       5.604   3.544  13.841  0.00  0.00    +0.000 A 
ENDBRANCH   7  11
BRANCH   1  18
ATOM     17  C   UNL     1       2.181   3.696  21.806  0.00  0.00    +0.000 C 
ATOM     18  C   UNL     1       1.997   2.374  21.070  0.00  0.00    +0.000 C 
ENDBRANCH   1  18
TORSDOF 2
ENDMDL
