MODEL 1
REMARK VINA RESULT:      -7.6      0.000      0.000
REMARK  Name = 
REMARK  3 active torsions:
REMARK  status: ('A' for Active; 'I' for Inactive)
REMARK    1  A    between atoms: N_2  and  C_4
REMARK    2  A    between atoms: C_12  and  N_13
REMARK    3  A    between atoms: N_13  and  C_14
REMARK                            x       y       z     vdW  Elec       q    Type
REMARK                         _______ _______ _______ _____ _____    ______ ____
ROOT
ATOM      1  C   UNL     1       2.143   4.114  18.987  0.00  0.00    +0.000 A 
ATOM      2  C   UNL     1       1.196   3.881  20.033  0.00  0.00    +0.000 A 
ATOM      3  C   UNL     1       1.499   3.098  21.156  0.00  0.00    +0.000 A 
ATOM      4  C   UNL     1       2.795   2.558  21.154  0.00  0.00    +0.000 A 
ATOM      5  N   UNL     1       3.369   1.770  22.070  0.00  0.00    +0.000 NA
ATOM      6  O   UNL     1       4.648   1.523  21.608  0.00  0.00    +0.000 OA
ATOM      7  N   UNL     1       4.892   2.163  20.411  0.00  0.00    +0.000 NA
ATOM      8  C   UNL     1       3.758   2.802  20.082  0.00  0.00    +0.000 A 
ATOM      9  C   UNL     1       3.473   3.607  18.943  0.00  0.00    +0.000 A 
ENDROOT
BRANCH   1  11
ATOM     10  O   UNL     1       0.922   4.337  17.050  0.00  0.00    +0.000 OA
ATOM     11  N   UNL     1       1.666   4.902  17.860  0.00  0.00    +0.000 N 
ATOM     12  O   UNL     1       2.011   6.093  17.817  0.00  0.00    +0.000 OA
ENDBRANCH   1  11
BRANCH   9  13
ATOM     13  N   UNL     1       4.360   3.869  17.881  0.00  0.00    +0.000 N 
ATOM     14  H   UNL     1       4.086   3.441  16.996  0.00  0.00    +0.000 HD
BRANCH  13  15
ATOM     15  C   UNL     1       5.328   4.883  17.766  0.00  0.00    +0.000 A 
ATOM     16  C   UNL     1       5.236   5.826  16.729  0.00  0.00    +0.000 A 
ATOM     17  C   UNL     1       6.212   6.814  16.566  0.00  0.00    +0.000 A 
ATOM     18  C   UNL     1       7.294   6.873  17.442  0.00  0.00    +0.000 A 
ATOM     19  C   UNL     1       7.369   5.964  18.488  0.00  0.00    +0.000 A 
ATOM     20  F   UNL     1       8.408   6.019  19.334  0.00  0.00    +0.000 F 
ATOM     21  C   UNL     1       6.397   4.984  18.661  0.00  0.00    +0.000 A 
ENDBRANCH  13  15
ENDBRANCH   9  13
TORSDOF 3
ENDMDL
MODEL 2
REMARK VINA RESULT:      -7.5      3.822      4.831
REMARK  Name = 
REMARK  3 active torsions:
REMARK  status: ('A' for Active; 'I' for Inactive)
REMARK    1  A    between atoms: N_2  and  C_4
REMARK    2  A    between atoms: C_12  and  N_13
REMARK    3  A    between atoms: N_13  and  C_14
REMARK                            x       y       z     vdW  Elec       q    Type
REMARK                         _______ _______ _______ _____ _____    ______ ____
ROOT
ATOM      1  C   UNL     1       4.421   4.512  18.834  0.00  0.00    +0.000 A 
ATOM      2  C   UNL     1       4.623   3.244  18.204  0.00  0.00    +0.000 A 
ATOM      3  C   UNL     1       3.614   2.273  18.136  0.00  0.00    +0.000 A 
ATOM      4  C   UNL     1       2.407   2.648  18.746  0.00  0.00    +0.000 A 
ATOM      5  N   UNL     1       1.275   1.943  18.854  0.00  0.00    +0.000 NA
ATOM      6  O   UNL     1       0.385   2.756  19.529  0.00  0.00    +0.000 OA
ATOM      7  N   UNL     1       0.942   3.979  19.835  0.00  0.00    +0.000 NA
ATOM      8  C   UNL     1       2.207   3.947  19.386  0.00  0.00    +0.000 A 
ATOM      9  C   UNL     1       3.214   4.950  19.450  0.00  0.00    +0.000 A 
ENDROOT
BRANCH   1  11
ATOM     10  O   UNL     1       6.438   5.159  19.730  0.00  0.00    +0.000 OA
ATOM     11  N   UNL     1       5.578   5.396  18.874  0.00  0.00    +0.000 N 
ATOM     12  O   UNL     1       5.632   6.295  18.022  0.00  0.00    +0.000 OA
ENDBRANCH   1  11
BRANCH   9  13
ATOM     13  N   UNL     1       3.077   6.213  20.057  0.00  0.00    +0.000 N 
ATOM     14  H   UNL     1       3.782   6.411  20.768  0.00  0.00    +0.000 HD
BRANCH  13  15
ATOM     15  C   UNL     1       2.370   7.342  19.604  0.00  0.00    +0.000 A 
ATOM     16  C   UNL     1       2.456   7.728  18.257  0.00  0.00    +0.000 A 
ATOM     17  C   UNL     1       1.801   8.874  17.794  0.00  0.00    +0.000 A 
ATOM     18  C   UNL     1       1.047   9.646  18.673  0.00  0.00    +0.000 A 
ATOM     19  C   UNL     1       0.932   9.248  19.998  0.00  0.00    +0.000 A 
ATOM     20  F   UNL     1       0.206   9.988  20.848  0.00  0.00    +0.000 F 
ATOM     21  C   UNL     1       1.574   8.105  20.464  0.00  0.00    +0.000 A 
ENDBRANCH  13  15
ENDBRANCH   9  13
TORSDOF 3
ENDMDL
MODEL 3
REMARK VINA RESULT:      -7.4      2.007      2.422
REMARK  Name = 
REMARK  3 active torsions:
REMARK  status: ('A' for Active; 'I' for Inactive)
REMARK    1  A    between atoms: N_2  and  C_4
REMARK    2  A    between atoms: C_12  and  N_13
REMARK    3  A    between atoms: N_13  and  C_14
REMARK                            x       y       z     vdW  Elec       q    Type
REMARK                         _______ _______ _______ _____ _____    ______ ____
ROOT
ATOM      1  C   UNL     1       2.286   5.668  19.303  0.00  0.00    +0.000 A 
ATOM      2  C   UNL     1       1.294   5.060  20.134  0.00  0.00    +0.000 A 
ATOM      3  C   UNL     1       1.148   3.669  20.229  0.00  0.00    +0.000 A 
ATOM      4  C   UNL     1       2.044   2.936  19.434  0.00  0.00    +0.000 A 
ATOM      5  N   UNL     1       2.146   1.609  19.302  0.00  0.00    +0.000 NA
ATOM      6  O   UNL     1       3.183   1.396  18.415  0.00  0.00    +0.000 OA
ATOM      7  N   UNL     1       3.750   2.581  17.996  0.00  0.00    +0.000 NA
ATOM      8  C   UNL     1       3.057   3.566  18.589  0.00  0.00    +0.000 A 
ATOM      9  C   UNL     1       3.230   4.975  18.493  0.00  0.00    +0.000 A 
ENDROOT
BRANCH   1  11
ATOM     10  O   UNL     1       2.331   7.661  18.153  0.00  0.00    +0.000 OA
ATOM     11  N   UNL     1       2.280   7.125  19.266  0.00  0.00    +0.000 N 
ATOM     12  O   UNL     1       2.185   7.717  20.352  0.00  0.00    +0.000 OA
ENDBRANCH   1  11
BRANCH   9  13
ATOM     13  N   UNL     1       4.183   5.633  17.692  0.00  0.00    +0.000 N 
ATOM     14  H   UNL     1       3.783   6.145  16.905  0.00  0.00    +0.000 HD
BRANCH  13  15
ATOM     15  C   UNL     1       5.512   5.979  18.000  0.00  0.00    +0.000 A 
ATOM     16  C   UNL     1       6.196   5.293  19.016  0.00  0.00    +0.000 A 
ATOM     17  C   UNL     1       7.501   5.650  19.372  0.00  0.00    +0.000 A 
ATOM     18  C   UNL     1       8.139   6.698  18.713  0.00  0.00    +0.000 A 
ATOM     19  C   UNL     1       7.477   7.355  17.685  0.00  0.00    +0.000 A 
ATOM     20  F   UNL     1       8.088   8.363  17.046  0.00  0.00    +0.000 F 
ATOM     21  C   UNL     1       6.183   6.999  17.319  0.00  0.00    +0.000 A 
ENDBRANCH  13  15
ENDBRANCH   9  13
TORSDOF 3
ENDMDL
MODEL 4
REMARK VINA RESULT:      -7.4      1.500      3.381
REMARK  Name = 
REMARK  3 active torsions:
REMARK  status: ('A' for Active; 'I' for Inactive)
REMARK    1  A    between atoms: N_2  and  C_4
REMARK    2  A    between atoms: C_12  and  N_13
REMARK    3  A    between atoms: N_13  and  C_14
REMARK                            x       y       z     vdW  Elec       q    Type
REMARK                         _______ _______ _______ _____ _____    ______ ____
ROOT
ATOM      1  C   UNL     1       3.973   2.603  20.516  0.00  0.00    +0.000 A 
ATOM      2  C   UNL     1       2.848   2.531  21.395  0.00  0.00    +0.000 A 
ATOM      3  C   UNL     1       1.939   3.590  21.536  0.00  0.00    +0.000 A 
ATOM      4  C   UNL     1       2.237   4.717  20.754  0.00  0.00    +0.000 A 
ATOM      5  N   UNL     1       1.572   5.875  20.678  0.00  0.00    +0.000 NA
ATOM      6  O   UNL     1       2.263   6.649  19.766  0.00  0.00    +0.000 OA
ATOM      7  N   UNL     1       3.354   5.980  19.251  0.00  0.00    +0.000 NA
ATOM      8  C   UNL     1       3.387   4.782  19.856  0.00  0.00    +0.000 A 
ATOM      9  C   UNL     1       4.311   3.712  19.689  0.00  0.00    +0.000 A 
ENDROOT
BRANCH   1  11
ATOM     10  O   UNL     1       5.533   1.255  21.536  0.00  0.00    +0.000 OA
ATOM     11  N   UNL     1       4.859   1.447  20.518  0.00  0.00    +0.000 N 
ATOM     12  O   UNL     1       4.841   0.720  19.513  0.00  0.00    +0.000 OA
ENDBRANCH   1  11
BRANCH   9  13
ATOM     13  N   UNL     1       5.437   3.724  18.843  0.00  0.00    +0.000 N 
ATOM     14  H   UNL     1       5.638   2.824  18.407  0.00  0.00    +0.000 HD
BRANCH  13  15
ATOM     15  C   UNL     1       6.087   4.821  18.248  0.00  0.00    +0.000 A 
ATOM     16  C   UNL     1       5.791   5.175  16.922  0.00  0.00    +0.000 A 
ATOM     17  C   UNL     1       6.458   6.232  16.294  0.00  0.00    +0.000 A 
ATOM     18  C   UNL     1       7.429   6.950  16.987  0.00  0.00    +0.000 A 
ATOM     19  C   UNL     1       7.699   6.624  18.308  0.00  0.00    +0.000 A 
ATOM     20  F   UNL     1       8.632   7.315  18.980  0.00  0.00    +0.000 F 
ATOM     21  C   UNL     1       7.033   5.580  18.942  0.00  0.00    +0.000 A 
ENDBRANCH  13  15
ENDBRANCH   9  13
TORSDOF 3
ENDMDL
MODEL 5
REMARK VINA RESULT:      -7.3      3.391      4.685
REMARK  Name = 
REMARK  3 active torsions:
REMARK  status: ('A' for Active; 'I' for Inactive)
REMARK    1  A    between atoms: N_2  and  C_4
REMARK    2  A    between atoms: C_12  and  N_13
REMARK    3  A    between atoms: N_13  and  C_14
REMARK                            x       y       z     vdW  Elec       q    Type
REMARK                         _______ _______ _______ _____ _____    ______ ____
ROOT
ATOM      1  C   UNL     1       5.735   5.064  18.097  0.00  0.00    +0.000 A 
ATOM      2  C   UNL     1       5.032   5.801  19.100  0.00  0.00    +0.000 A 
ATOM      3  C   UNL     1       3.645   5.693  19.274  0.00  0.00    +0.000 A 
ATOM      4  C   UNL     1       3.014   4.817  18.376  0.00  0.00    +0.000 A 
ATOM      5  N   UNL     1       1.715   4.514  18.284  0.00  0.00    +0.000 NA
ATOM      6  O   UNL     1       1.612   3.603  17.250  0.00  0.00    +0.000 OA
ATOM      7  N   UNL     1       2.842   3.315  16.697  0.00  0.00    +0.000 NA
ATOM      8  C   UNL     1       3.740   4.066  17.354  0.00  0.00    +0.000 A 
ATOM      9  C   UNL     1       5.150   4.151  17.173  0.00  0.00    +0.000 A 
ENDROOT
BRANCH   1  11
ATOM     10  O   UNL     1       7.924   4.361  18.171  0.00  0.00    +0.000 OA
ATOM     11  N   UNL     1       7.166   5.322  18.001  0.00  0.00    +0.000 N 
ATOM     12  O   UNL     1       7.513   6.478  17.719  0.00  0.00    +0.000 OA
ENDBRANCH   1  11
BRANCH   9  13
ATOM     13  N   UNL     1       5.897   3.455  16.204  0.00  0.00    +0.000 N 
ATOM     14  H   UNL     1       5.991   2.456  16.389  0.00  0.00    +0.000 HD
BRANCH  13  15
ATOM     15  C   UNL     1       6.215   3.838  14.888  0.00  0.00    +0.000 A 
ATOM     16  C   UNL     1       5.451   3.355  13.814  0.00  0.00    +0.000 A 
ATOM     17  C   UNL     1       5.777   3.683  12.494  0.00  0.00    +0.000 A 
ATOM     18  C   UNL     1       6.871   4.504  12.232  0.00  0.00    +0.000 A 
ATOM     19  C   UNL     1       7.607   5.012  13.293  0.00  0.00    +0.000 A 
ATOM     20  F   UNL     1       8.660   5.803  13.046  0.00  0.00    +0.000 F 
ATOM     21  C   UNL     1       7.283   4.696  14.609  0.00  0.00    +0.000 A 
ENDBRANCH  13  15
ENDBRANCH   9  13
TORSDOF 3
ENDMDL
MODEL 6
REMARK VINA RESULT:      -7.3      3.287      6.206
REMARK  Name = 
REMARK  3 active torsions:
REMARK  status: ('A' for Active; 'I' for Inactive)
REMARK    1  A    between atoms: N_2  and  C_4
REMARK    2  A    between atoms: C_12  and  N_13
REMARK    3  A    between atoms: N_13  and  C_14
REMARK                            x       y       z     vdW  Elec       q    Type
REMARK                         _______ _______ _______ _____ _____    ______ ____
ROOT
ATOM      1  C   UNL     1       6.438   5.349  18.028  0.00  0.00    +0.000 A 
ATOM      2  C   UNL     1       7.199   6.415  17.455  0.00  0.00    +0.000 A 
ATOM      3  C   UNL     1       7.497   6.470  16.086  0.00  0.00    +0.000 A 
ATOM      4  C   UNL     1       6.997   5.390  15.340  0.00  0.00    +0.000 A 
ATOM      5  N   UNL     1       7.123   5.155  14.030  0.00  0.00    +0.000 NA
ATOM      6  O   UNL     1       6.449   3.973  13.791  0.00  0.00    +0.000 OA
ATOM      7  N   UNL     1       5.883   3.466  14.941  0.00  0.00    +0.000 NA
ATOM      8  C   UNL     1       6.218   4.305  15.934  0.00  0.00    +0.000 A 
ATOM      9  C   UNL     1       5.893   4.242  17.318  0.00  0.00    +0.000 A 
ENDROOT
BRANCH   1  11
ATOM     10  O   UNL     1       5.096   5.471  19.894  0.00  0.00    +0.000 OA
ATOM     11  N   UNL     1       6.256   5.401  19.473  0.00  0.00    +0.000 N 
ATOM     12  O   UNL     1       7.278   5.333  20.173  0.00  0.00    +0.000 OA
ENDBRANCH   1  11
BRANCH   9  13
ATOM     13  N   UNL     1       5.152   3.220  17.942  0.00  0.00    +0.000 N 
ATOM     14  H   UNL     1       5.712   2.598  18.527  0.00  0.00    +0.000 HD
BRANCH  13  15
ATOM     15  C   UNL     1       3.765   3.140  18.164  0.00  0.00    +0.000 A 
ATOM     16  C   UNL     1       3.248   2.155  19.020  0.00  0.00    +0.000 A 
ATOM     17  C   UNL     1       1.870   2.026  19.220  0.00  0.00    +0.000 A 
ATOM     18  C   UNL     1       0.990   2.886  18.567  0.00  0.00    +0.000 A 
ATOM     19  C   UNL     1       1.500   3.882  17.747  0.00  0.00    +0.000 A 
ATOM     20  F   UNL     1       0.657   4.713  17.117  0.00  0.00    +0.000 F 
ATOM     21  C   UNL     1       2.870   4.022  17.550  0.00  0.00    +0.000 A 
ENDBRANCH  13  15
ENDBRANCH   9  13
TORSDOF 3
ENDMDL
MODEL 7
REMARK VINA RESULT:      -7.3      1.847      2.101
REMARK  Name = 
REMARK  3 active torsions:
REMARK  status: ('A' for Active; 'I' for Inactive)
REMARK    1  A    between atoms: N_2  and  C_4
REMARK    2  A    between atoms: C_12  and  N_13
REMARK    3  A    between atoms: N_13  and  C_14
REMARK                            x       y       z     vdW  Elec       q    Type
REMARK                         _______ _______ _______ _____ _____    ______ ____
ROOT
ATOM      1  C   UNL     1       2.247   5.619  19.383  0.00  0.00    +0.000 A 
ATOM      2  C   UNL     1       1.292   4.990  20.241  0.00  0.00    +0.000 A 
ATOM      3  C   UNL     1       1.179   3.595  20.340  0.00  0.00    +0.000 A 
ATOM      4  C   UNL     1       2.068   2.882  19.519  0.00  0.00    +0.000 A 
ATOM      5  N   UNL     1       2.194   1.558  19.384  0.00  0.00    +0.000 NA
ATOM      6  O   UNL     1       3.209   1.366  18.468  0.00  0.00    +0.000 OA
ATOM      7  N   UNL     1       3.739   2.563  18.033  0.00  0.00    +0.000 NA
ATOM      8  C   UNL     1       3.042   3.533  18.647  0.00  0.00    +0.000 A 
ATOM      9  C   UNL     1       3.182   4.946  18.546  0.00  0.00    +0.000 A 
ENDROOT
BRANCH   1  11
ATOM     10  O   UNL     1       2.186   7.666  20.432  0.00  0.00    +0.000 OA
ATOM     11  N   UNL     1       2.209   7.075  19.347  0.00  0.00    +0.000 N 
ATOM     12  O   UNL     1       2.242   7.613  18.230  0.00  0.00    +0.000 OA
ENDBRANCH   1  11
BRANCH   9  13
ATOM     13  N   UNL     1       4.098   5.624  17.719  0.00  0.00    +0.000 N 
ATOM     14  H   UNL     1       3.668   6.109  16.932  0.00  0.00    +0.000 HD
BRANCH  13  15
ATOM     15  C   UNL     1       5.419   6.021  17.999  0.00  0.00    +0.000 A 
ATOM     16  C   UNL     1       6.046   6.984  17.193  0.00  0.00    +0.000 A 
ATOM     17  C   UNL     1       7.374   7.360  17.423  0.00  0.00    +0.000 A 
ATOM     18  C   UNL     1       8.090   6.779  18.467  0.00  0.00    +0.000 A 
ATOM     19  C   UNL     1       7.461   5.853  19.287  0.00  0.00    +0.000 A 
ATOM     20  F   UNL     1       8.146   5.292  20.293  0.00  0.00    +0.000 F 
ATOM     21  C   UNL     1       6.139   5.480  19.069  0.00  0.00    +0.000 A 
ENDBRANCH  13  15
ENDBRANCH   9  13
TORSDOF 3
ENDMDL
MODEL 8
REMARK VINA RESULT:      -7.3      2.884      5.577
REMARK  Name = 
REMARK  3 active torsions:
REMARK  status: ('A' for Active; 'I' for Inactive)
REMARK    1  A    between atoms: N_2  and  C_4
REMARK    2  A    between atoms: C_12  and  N_13
REMARK    3  A    between atoms: N_13  and  C_14
REMARK                            x       y       z     vdW  Elec       q    Type
REMARK                         _______ _______ _______ _____ _____    ______ ____
ROOT
ATOM      1  C   UNL     1       4.667   3.890  17.004  0.00  0.00    +0.000 A 
ATOM      2  C   UNL     1       4.921   4.407  15.695  0.00  0.00    +0.000 A 
ATOM      3  C   UNL     1       5.895   5.387  15.454  0.00  0.00    +0.000 A 
ATOM      4  C   UNL     1       6.579   5.820  16.601  0.00  0.00    +0.000 A 
ATOM      5  N   UNL     1       7.544   6.740  16.695  0.00  0.00    +0.000 NA
ATOM      6  O   UNL     1       7.889   6.791  18.032  0.00  0.00    +0.000 OA
ATOM      7  N   UNL     1       7.157   5.895  18.783  0.00  0.00    +0.000 NA
ATOM      8  C   UNL     1       6.314   5.285  17.935  0.00  0.00    +0.000 A 
ATOM      9  C   UNL     1       5.342   4.280  18.196  0.00  0.00    +0.000 A 
ENDROOT
BRANCH   1  11
ATOM     10  O   UNL     1       3.894   1.770  17.450  0.00  0.00    +0.000 OA
ATOM     11  N   UNL     1       3.588   2.917  17.106  0.00  0.00    +0.000 N 
ATOM     12  O   UNL     1       2.438   3.322  16.877  0.00  0.00    +0.000 OA
ENDBRANCH   1  11
BRANCH   9  13
ATOM     13  N   UNL     1       5.043   3.734  19.460  0.00  0.00    +0.000 N 
ATOM     14  H   UNL     1       5.858   3.603  20.059  0.00  0.00    +0.000 HD
BRANCH  13  15
ATOM     15  C   UNL     1       3.808   3.681  20.132  0.00  0.00    +0.000 A 
ATOM     16  C   UNL     1       3.421   2.505  20.793  0.00  0.00    +0.000 A 
ATOM     17  C   UNL     1       2.178   2.413  21.429  0.00  0.00    +0.000 A 
ATOM     18  C   UNL     1       1.308   3.500  21.414  0.00  0.00    +0.000 A 
ATOM     19  C   UNL     1       1.702   4.675  20.791  0.00  0.00    +0.000 A 
ATOM     20  F   UNL     1       0.868   5.725  20.775  0.00  0.00    +0.000 F 
ATOM     21  C   UNL     1       2.940   4.777  20.164  0.00  0.00    +0.000 A 
ENDBRANCH  13  15
ENDBRANCH   9  13
TORSDOF 3
ENDMDL
MODEL 9
REMARK VINA RESULT:      -7.3      2.338      3.641
REMARK  Name = 
REMARK  3 active torsions:
REMARK  status: ('A' for Active; 'I' for Inactive)
REMARK    1  A    between atoms: N_2  and  C_4
REMARK    2  A    between atoms: C_12  and  N_13
REMARK    3  A    between atoms: N_13  and  C_14
REMARK                            x       y       z     vdW  Elec       q    Type
REMARK                         _______ _______ _______ _____ _____    ______ ____
ROOT
ATOM      1  C   UNL     1       3.292   2.998  19.810  0.00  0.00    +0.000 A 
ATOM      2  C   UNL     1       2.059   2.731  20.483  0.00  0.00    +0.000 A 
ATOM      3  C   UNL     1       1.184   3.754  20.875  0.00  0.00    +0.000 A 
ATOM      4  C   UNL     1       1.629   5.049  20.563  0.00  0.00    +0.000 A 
ATOM      5  N   UNL     1       1.029   6.217  20.814  0.00  0.00    +0.000 NA
ATOM      6  O   UNL     1       1.867   7.190  20.303  0.00  0.00    +0.000 OA
ATOM      7  N   UNL     1       2.987   6.642  19.715  0.00  0.00    +0.000 NA
ATOM      8  C   UNL     1       2.890   5.313  19.873  0.00  0.00    +0.000 A 
ATOM      9  C   UNL     1       3.783   4.286  19.454  0.00  0.00    +0.000 A 
ENDROOT
BRANCH   1  11
ATOM     10  O   UNL     1       3.801   1.148  18.540  0.00  0.00    +0.000 OA
ATOM     11  N   UNL     1       4.121   1.836  19.516  0.00  0.00    +0.000 N 
ATOM     12  O   UNL     1       5.108   1.648  20.243  0.00  0.00    +0.000 OA
ENDBRANCH   1  11
BRANCH   9  13
ATOM     13  N   UNL     1       5.010   4.485  18.793  0.00  0.00    +0.000 N 
ATOM     14  H   UNL     1       5.814   4.086  19.280  0.00  0.00    +0.000 HD
BRANCH  13  15
ATOM     15  C   UNL     1       5.248   4.816  17.447  0.00  0.00    +0.000 A 
ATOM     16  C   UNL     1       5.073   6.139  17.010  0.00  0.00    +0.000 A 
ATOM     17  C   UNL     1       5.258   6.483  15.667  0.00  0.00    +0.000 A 
ATOM     18  C   UNL     1       5.623   5.507  14.743  0.00  0.00    +0.000 A 
ATOM     19  C   UNL     1       5.830   4.206  15.179  0.00  0.00    +0.000 A 
ATOM     20  F   UNL     1       6.183   3.263  14.293  0.00  0.00    +0.000 F 
ATOM     21  C   UNL     1       5.657   3.858  16.514  0.00  0.00    +0.000 A 
ENDBRANCH  13  15
ENDBRANCH   9  13
TORSDOF 3
ENDMDL
