MODEL 1
REMARK VINA RESULT:      -7.9      0.000      0.000
REMARK  Name = 
REMARK  8 active torsions:
REMARK  status: ('A' for Active; 'I' for Inactive)
REMARK    1  A    between atoms: C_2  and  O_3
REMARK    2  A    between atoms: C_2  and  C_4
REMARK    3  A    between atoms: N_7  and  C_8
REMARK    4  A    between atoms: C_8  and  C_9
REMARK    5  A    between atoms: C_9  and  O_10
REMARK    6  A    between atoms: O_10  and  N_11
REMARK    7  A    between atoms: C_12  and  C_13
REMARK    8  A    between atoms: C_19  and  C_20
REMARK                            x       y       z     vdW  Elec       q    Type
REMARK                         _______ _______ _______ _____ _____    ______ ____
ROOT
ATOM      1  N   UNL     1       6.247   4.665  19.751  0.00  0.00    +0.000 NA
ATOM      2  C   UNL     1       5.108   5.174  19.409  0.00  0.00    +0.000 C 
ENDROOT
BRANCH   2   3
ATOM      3  C   UNL     1       3.955   4.307  19.094  0.00  0.00    +0.000 A 
ATOM      4  C   UNL     1       4.234   2.941  18.920  0.00  0.00    +0.000 A 
ATOM      5  C   UNL     1       3.203   2.059  18.644  0.00  0.00    +0.000 A 
ATOM      6  F   UNL     1       3.467   0.756  18.486  0.00  0.00    +0.000 F 
ATOM      7  C   UNL     1       1.900   2.512  18.528  0.00  0.00    +0.000 A 
ATOM      8  C   UNL     1       1.627   3.877  18.680  0.00  0.00    +0.000 A 
ATOM      9  C   UNL     1       2.641   4.821  18.969  0.00  0.00    +0.000 A 
BRANCH   9  10
ATOM     10  C   UNL     1       2.279   6.265  19.063  0.00  0.00    +0.000 A 
ATOM     11  C   UNL     1       2.338   7.106  17.932  0.00  0.00    +0.000 A 
ATOM     12  C   UNL     1       2.043   8.472  18.009  0.00  0.00    +0.000 A 
ATOM     13  C   UNL     1       1.635   9.031  19.215  0.00  0.00    +0.000 A 
ATOM     14  C   UNL     1       1.553   8.229  20.346  0.00  0.00    +0.000 A 
ATOM     15  C   UNL     1       1.900   6.875  20.275  0.00  0.00    +0.000 A 
ENDBRANCH   9  10
ENDBRANCH   2   3
BRANCH   1  16
ATOM     16  O   UNL     1       7.195   5.689  19.882  0.00  0.00    +0.000 OA
BRANCH  16  17
ATOM     17  C   UNL     1       7.751   5.934  18.587  0.00  0.00    +0.000 C 
BRANCH  17  18
ATOM     18  C   UNL     1       6.829   6.897  17.823  0.00  0.00    +0.000 C 
BRANCH  18  22
ATOM     19  C   UNL     1       6.244   4.497  15.488  0.00  0.00    +0.000 C 
ATOM     20  C   UNL     1       4.972   5.222  15.889  0.00  0.00    +0.000 C 
ATOM     21  C   UNL     1       5.391   6.676  15.846  0.00  0.00    +0.000 C 
ATOM     22  N   UNL     1       6.775   6.697  16.353  0.00  0.00    +0.000 NA
ATOM     23  C   UNL     1       7.375   5.383  16.000  0.00  0.00    +0.000 C 
BRANCH  19  25
ATOM     24  O   UNL     1       5.329   3.672  13.425  0.00  0.00    +0.000 OA
ATOM     25  C   UNL     1       6.257   4.233  13.997  0.00  0.00    +0.000 C 
BRANCH  25  26
ATOM     26  O   UNL     1       7.308   4.726  13.312  0.00  0.00    +0.000 OA
ATOM     27  H   UNL     1       8.125   4.192  13.345  0.00  0.00    +0.000 HD
ENDBRANCH  25  26
ENDBRANCH  19  25
ENDBRANCH  18  22
ENDBRANCH  17  18
ENDBRANCH  16  17
ENDBRANCH   1  16
TORSDOF 8
ENDMDL
MODEL 2
REMARK VINA RESULT:      -7.7      4.038      7.339
REMARK  Name = 
REMARK  8 active torsions:
REMARK  status: ('A' for Active; 'I' for Inactive)
REMARK    1  A    between atoms: C_2  and  O_3
REMARK    2  A    between atoms: C_2  and  C_4
REMARK    3  A    between atoms: N_7  and  C_8
REMARK    4  A    between atoms: C_8  and  C_9
REMARK    5  A    between atoms: C_9  and  O_10
REMARK    6  A    between atoms: O_10  and  N_11
REMARK    7  A    between atoms: C_12  and  C_13
REMARK    8  A    between atoms: C_19  and  C_20
REMARK                            x       y       z     vdW  Elec       q    Type
REMARK                         _______ _______ _______ _____ _____    ______ ____
ROOT
ATOM      1  N   UNL     1       2.570   6.962  18.161  0.00  0.00    +0.000 NA
ATOM      2  C   UNL     1       3.210   6.405  19.137  0.00  0.00    +0.000 C 
ENDROOT
BRANCH   2   3
ATOM      3  C   UNL     1       3.033   4.970  19.438  0.00  0.00    +0.000 A 
ATOM      4  C   UNL     1       2.062   4.652  20.403  0.00  0.00    +0.000 A 
ATOM      5  C   UNL     1       1.822   3.327  20.722  0.00  0.00    +0.000 A 
ATOM      6  F   UNL     1       0.891   3.022  21.636  0.00  0.00    +0.000 F 
ATOM      7  C   UNL     1       2.535   2.312  20.107  0.00  0.00    +0.000 A 
ATOM      8  C   UNL     1       3.516   2.632  19.163  0.00  0.00    +0.000 A 
ATOM      9  C   UNL     1       3.800   3.969  18.793  0.00  0.00    +0.000 A 
BRANCH   9  10
ATOM     10  C   UNL     1       4.897   4.232  17.817  0.00  0.00    +0.000 A 
ATOM     11  C   UNL     1       4.675   4.136  16.427  0.00  0.00    +0.000 A 
ATOM     12  C   UNL     1       5.702   4.340  15.498  0.00  0.00    +0.000 A 
ATOM     13  C   UNL     1       6.975   4.691  15.931  0.00  0.00    +0.000 A 
ATOM     14  C   UNL     1       7.226   4.807  17.292  0.00  0.00    +0.000 A 
ATOM     15  C   UNL     1       6.209   4.552  18.219  0.00  0.00    +0.000 A 
ENDBRANCH   9  10
ENDBRANCH   2   3
BRANCH   1  16
ATOM     16  O   UNL     1       2.824   8.341  18.162  0.00  0.00    +0.000 OA
BRANCH  16  17
ATOM     17  C   UNL     1       1.633   9.002  17.725  0.00  0.00    +0.000 C 
BRANCH  17  18
ATOM     18  C   UNL     1       1.260  10.085  18.749  0.00  0.00    +0.000 C 
BRANCH  18  22
ATOM     19  C   UNL     1       0.108  10.916  21.836  0.00  0.00    +0.000 C 
ATOM     20  C   UNL     1      -0.607  11.681  20.738  0.00  0.00    +0.000 C 
ATOM     21  C   UNL     1      -0.929  10.595  19.734  0.00  0.00    +0.000 C 
ATOM     22  N   UNL     1       0.236   9.693  19.749  0.00  0.00    +0.000 NA
ATOM     23  C   UNL     1       0.812   9.770  21.118  0.00  0.00    +0.000 C 
BRANCH  19  25
ATOM     24  O   UNL     1      -1.775  11.229  23.296  0.00  0.00    +0.000 OA
ATOM     25  C   UNL     1      -0.869  10.497  22.915  0.00  0.00    +0.000 C 
BRANCH  25  26
ATOM     26  O   UNL     1      -0.744   9.237  23.377  0.00  0.00    +0.000 OA
ATOM     27  H   UNL     1       0.095   9.033  23.835  0.00  0.00    +0.000 HD
ENDBRANCH  25  26
ENDBRANCH  19  25
ENDBRANCH  18  22
ENDBRANCH  17  18
ENDBRANCH  16  17
ENDBRANCH   1  16
TORSDOF 8
ENDMDL
MODEL 3
REMARK VINA RESULT:      -7.6      4.198      7.409
REMARK  Name = 
REMARK  8 active torsions:
REMARK  status: ('A' for Active; 'I' for Inactive)
REMARK    1  A    between atoms: C_2  and  O_3
REMARK    2  A    between atoms: C_2  and  C_4
REMARK    3  A    between atoms: N_7  and  C_8
REMARK    4  A    between atoms: C_8  and  C_9
REMARK    5  A    between atoms: C_9  and  O_10
REMARK    6  A    between atoms: O_10  and  N_11
REMARK    7  A    between atoms: C_12  and  C_13
REMARK    8  A    between atoms: C_19  and  C_20
REMARK                            x       y       z     vdW  Elec       q    Type
REMARK                         _______ _______ _______ _____ _____    ______ ____
ROOT
ATOM      1  N   UNL     1       2.241   7.199  18.248  0.00  0.00    +0.000 NA
ATOM      2  C   UNL     1       2.534   6.275  19.105  0.00  0.00    +0.000 C 
ENDROOT
BRANCH   2   3
ATOM      3  C   UNL     1       2.648   4.864  18.686  0.00  0.00    +0.000 A 
ATOM      4  C   UNL     1       1.483   4.086  18.795  0.00  0.00    +0.000 A 
ATOM      5  C   UNL     1       1.504   2.759  18.400  0.00  0.00    +0.000 A 
ATOM      6  F   UNL     1       0.392   2.020  18.496  0.00  0.00    +0.000 F 
ATOM      7  C   UNL     1       2.665   2.188  17.909  0.00  0.00    +0.000 A 
ATOM      8  C   UNL     1       3.830   2.958  17.822  0.00  0.00    +0.000 A 
ATOM      9  C   UNL     1       3.865   4.320  18.205  0.00  0.00    +0.000 A 
BRANCH   9  10
ATOM     10  C   UNL     1       5.159   5.060  18.133  0.00  0.00    +0.000 A 
ATOM     11  C   UNL     1       5.520   5.784  16.977  0.00  0.00    +0.000 A 
ATOM     12  C   UNL     1       6.747   6.449  16.875  0.00  0.00    +0.000 A 
ATOM     13  C   UNL     1       7.633   6.450  17.946  0.00  0.00    +0.000 A 
ATOM     14  C   UNL     1       7.302   5.758  19.105  0.00  0.00    +0.000 A 
ATOM     15  C   UNL     1       6.098   5.051  19.182  0.00  0.00    +0.000 A 
ENDBRANCH   9  10
ENDBRANCH   2   3
BRANCH   1  16
ATOM     16  O   UNL     1       2.082   8.421  18.916  0.00  0.00    +0.000 OA
BRANCH  16  17
ATOM     17  C   UNL     1       1.825   9.424  17.929  0.00  0.00    +0.000 C 
BRANCH  17  18
ATOM     18  C   UNL     1       1.088  10.599  18.592  0.00  0.00    +0.000 C 
BRANCH  18  22
ATOM     19  C   UNL     1      -0.158  11.974  21.439  0.00  0.00    +0.000 C 
ATOM     20  C   UNL     1      -1.123  12.104  20.276  0.00  0.00    +0.000 C 
ATOM     21  C   UNL     1      -1.110  10.714  19.677  0.00  0.00    +0.000 C 
ATOM     22  N   UNL     1       0.285  10.253  19.791  0.00  0.00    +0.000 NA
ATOM     23  C   UNL     1       0.855  10.925  20.990  0.00  0.00    +0.000 C 
BRANCH  19  25
ATOM     24  O   UNL     1      -1.919  12.242  23.051  0.00  0.00    +0.000 OA
ATOM     25  C   UNL     1      -0.904  11.643  22.715  0.00  0.00    +0.000 C 
BRANCH  25  26
ATOM     26  O   UNL     1      -0.443  10.592  23.422  0.00  0.00    +0.000 OA
ATOM     27  H   UNL     1       0.062  10.812  24.229  0.00  0.00    +0.000 HD
ENDBRANCH  25  26
ENDBRANCH  19  25
ENDBRANCH  18  22
ENDBRANCH  17  18
ENDBRANCH  16  17
ENDBRANCH   1  16
TORSDOF 8
ENDMDL
MODEL 4
REMARK VINA RESULT:      -7.6      4.838      7.220
REMARK  Name = 
REMARK  8 active torsions:
REMARK  status: ('A' for Active; 'I' for Inactive)
REMARK    1  A    between atoms: C_2  and  O_3
REMARK    2  A    between atoms: C_2  and  C_4
REMARK    3  A    between atoms: N_7  and  C_8
REMARK    4  A    between atoms: C_8  and  C_9
REMARK    5  A    between atoms: C_9  and  O_10
REMARK    6  A    between atoms: O_10  and  N_11
REMARK    7  A    between atoms: C_12  and  C_13
REMARK    8  A    between atoms: C_19  and  C_20
REMARK                            x       y       z     vdW  Elec       q    Type
REMARK                         _______ _______ _______ _____ _____    ______ ____
ROOT
ATOM      1  N   UNL     1       2.129   7.320  18.458  0.00  0.00    +0.000 NA
ATOM      2  C   UNL     1       2.503   6.379  19.264  0.00  0.00    +0.000 C 
ENDROOT
BRANCH   2   3
ATOM      3  C   UNL     1       2.642   4.988  18.789  0.00  0.00    +0.000 A 
ATOM      4  C   UNL     1       1.496   4.181  18.886  0.00  0.00    +0.000 A 
ATOM      5  C   UNL     1       1.540   2.871  18.441  0.00  0.00    +0.000 A 
ATOM      6  F   UNL     1       0.447   2.103  18.524  0.00  0.00    +0.000 F 
ATOM      7  C   UNL     1       2.706   2.345  17.910  0.00  0.00    +0.000 A 
ATOM      8  C   UNL     1       3.852   3.144  17.835  0.00  0.00    +0.000 A 
ATOM      9  C   UNL     1       3.863   4.491  18.270  0.00  0.00    +0.000 A 
BRANCH   9  10
ATOM     10  C   UNL     1       5.138   5.263  18.207  0.00  0.00    +0.000 A 
ATOM     11  C   UNL     1       5.374   6.197  17.176  0.00  0.00    +0.000 A 
ATOM     12  C   UNL     1       6.580   6.899  17.077  0.00  0.00    +0.000 A 
ATOM     13  C   UNL     1       7.573   6.722  18.034  0.00  0.00    +0.000 A 
ATOM     14  C   UNL     1       7.368   5.820  19.070  0.00  0.00    +0.000 A 
ATOM     15  C   UNL     1       6.181   5.081  19.136  0.00  0.00    +0.000 A 
ENDBRANCH   9  10
ENDBRANCH   2   3
BRANCH   1  16
ATOM     16  O   UNL     1       1.966   8.513  19.177  0.00  0.00    +0.000 OA
BRANCH  16  17
ATOM     17  C   UNL     1       1.519   9.515  18.258  0.00  0.00    +0.000 C 
BRANCH  17  18
ATOM     18  C   UNL     1       0.180  10.084  18.753  0.00  0.00    +0.000 C 
BRANCH  18  22
ATOM     19  C   UNL     1      -3.020  10.446  17.669  0.00  0.00    +0.000 C 
ATOM     20  C   UNL     1      -2.670  11.450  18.751  0.00  0.00    +0.000 C 
ATOM     21  C   UNL     1      -1.322  11.970  18.297  0.00  0.00    +0.000 C 
ATOM     22  N   UNL     1      -0.624  10.801  17.733  0.00  0.00    +0.000 NA
ATOM     23  C   UNL     1      -1.677   9.899  17.195  0.00  0.00    +0.000 C 
BRANCH  19  25
ATOM     24  O   UNL     1      -3.992  10.608  15.478  0.00  0.00    +0.000 OA
ATOM     25  C   UNL     1      -3.866  11.096  16.594  0.00  0.00    +0.000 C 
BRANCH  25  26
ATOM     26  O   UNL     1      -4.548  12.201  16.958  0.00  0.00    +0.000 OA
ATOM     27  H   UNL     1      -4.177  13.050  16.648  0.00  0.00    +0.000 HD
ENDBRANCH  25  26
ENDBRANCH  19  25
ENDBRANCH  18  22
ENDBRANCH  17  18
ENDBRANCH  16  17
ENDBRANCH   1  16
TORSDOF 8
ENDMDL
MODEL 5
REMARK VINA RESULT:      -7.6      4.038      7.414
REMARK  Name = 
REMARK  8 active torsions:
REMARK  status: ('A' for Active; 'I' for Inactive)
REMARK    1  A    between atoms: C_2  and  O_3
REMARK    2  A    between atoms: C_2  and  C_4
REMARK    3  A    between atoms: N_7  and  C_8
REMARK    4  A    between atoms: C_8  and  C_9
REMARK    5  A    between atoms: C_9  and  O_10
REMARK    6  A    between atoms: O_10  and  N_11
REMARK    7  A    between atoms: C_12  and  C_13
REMARK    8  A    between atoms: C_19  and  C_20
REMARK                            x       y       z     vdW  Elec       q    Type
REMARK                         _______ _______ _______ _____ _____    ______ ____
ROOT
ATOM      1  N   UNL     1       2.533   7.031  18.757  0.00  0.00    +0.000 NA
ATOM      2  C   UNL     1       2.769   6.199  17.794  0.00  0.00    +0.000 C 
ENDROOT
BRANCH   2   3
ATOM      3  C   UNL     1       2.624   4.744  17.999  0.00  0.00    +0.000 A 
ATOM      4  C   UNL     1       1.456   4.321  18.655  0.00  0.00    +0.000 A 
ATOM      5  C   UNL     1       1.237   2.970  18.864  0.00  0.00    +0.000 A 
ATOM      6  F   UNL     1       0.120   2.566  19.481  0.00  0.00    +0.000 F 
ATOM      7  C   UNL     1       2.163   2.032  18.443  0.00  0.00    +0.000 A 
ATOM      8  C   UNL     1       3.337   2.456  17.810  0.00  0.00    +0.000 A 
ATOM      9  C   UNL     1       3.610   3.823  17.564  0.00  0.00    +0.000 A 
BRANCH   9  10
ATOM     10  C   UNL     1       4.908   4.200  16.932  0.00  0.00    +0.000 A 
ATOM     11  C   UNL     1       5.043   4.266  15.530  0.00  0.00    +0.000 A 
ATOM     12  C   UNL     1       6.262   4.578  14.918  0.00  0.00    +0.000 A 
ATOM     13  C   UNL     1       7.376   4.878  15.693  0.00  0.00    +0.000 A 
ATOM     14  C   UNL     1       7.275   4.836  17.078  0.00  0.00    +0.000 A 
ATOM     15  C   UNL     1       6.067   4.473  17.684  0.00  0.00    +0.000 A 
ENDBRANCH   9  10
ENDBRANCH   2   3
BRANCH   1  16
ATOM     16  O   UNL     1       2.853   8.330  18.340  0.00  0.00    +0.000 OA
BRANCH  16  17
ATOM     17  C   UNL     1       1.685   8.890  17.732  0.00  0.00    +0.000 C 
BRANCH  17  18
ATOM     18  C   UNL     1       1.201  10.076  18.580  0.00  0.00    +0.000 C 
BRANCH  18  22
ATOM     19  C   UNL     1       0.041  11.293  21.533  0.00  0.00    +0.000 C 
ATOM     20  C   UNL     1      -0.827  11.719  20.364  0.00  0.00    +0.000 C 
ATOM     21  C   UNL     1      -1.005  10.426  19.597  0.00  0.00    +0.000 C 
ATOM     22  N   UNL     1       0.290   9.729  19.700  0.00  0.00    +0.000 NA
ATOM     23  C   UNL     1       0.894  10.151  20.991  0.00  0.00    +0.000 C 
BRANCH  19  25
ATOM     24  O   UNL     1      -0.467  10.117  23.566  0.00  0.00    +0.000 OA
ATOM     25  C   UNL     1      -0.816  10.944  22.732  0.00  0.00    +0.000 C 
BRANCH  25  26
ATOM     26  O   UNL     1      -1.951  11.657  22.883  0.00  0.00    +0.000 OA
ATOM     27  H   UNL     1      -1.832  12.599  23.111  0.00  0.00    +0.000 HD
ENDBRANCH  25  26
ENDBRANCH  19  25
ENDBRANCH  18  22
ENDBRANCH  17  18
ENDBRANCH  16  17
ENDBRANCH   1  16
TORSDOF 8
ENDMDL
MODEL 6
REMARK VINA RESULT:      -7.6      4.291      7.075
REMARK  Name = 
REMARK  8 active torsions:
REMARK  status: ('A' for Active; 'I' for Inactive)
REMARK    1  A    between atoms: C_2  and  O_3
REMARK    2  A    between atoms: C_2  and  C_4
REMARK    3  A    between atoms: N_7  and  C_8
REMARK    4  A    between atoms: C_8  and  C_9
REMARK    5  A    between atoms: C_9  and  O_10
REMARK    6  A    between atoms: O_10  and  N_11
REMARK    7  A    between atoms: C_12  and  C_13
REMARK    8  A    between atoms: C_19  and  C_20
REMARK                            x       y       z     vdW  Elec       q    Type
REMARK                         _______ _______ _______ _____ _____    ______ ____
ROOT
ATOM      1  N   UNL     1       2.047   7.166  19.395  0.00  0.00    +0.000 NA
ATOM      2  C   UNL     1       2.570   6.086  19.881  0.00  0.00    +0.000 C 
ENDROOT
BRANCH   2   3
ATOM      3  C   UNL     1       2.580   4.833  19.100  0.00  0.00    +0.000 A 
ATOM      4  C   UNL     1       1.438   4.022  19.209  0.00  0.00    +0.000 A 
ATOM      5  C   UNL     1       1.363   2.842  18.490  0.00  0.00    +0.000 A 
ATOM      6  F   UNL     1       0.272   2.073  18.587  0.00  0.00    +0.000 F 
ATOM      7  C   UNL     1       2.408   2.447  17.671  0.00  0.00    +0.000 A 
ATOM      8  C   UNL     1       3.554   3.245  17.582  0.00  0.00    +0.000 A 
ATOM      9  C   UNL     1       3.682   4.464  18.289  0.00  0.00    +0.000 A 
BRANCH   9  10
ATOM     10  C   UNL     1       4.957   5.232  18.183  0.00  0.00    +0.000 A 
ATOM     11  C   UNL     1       5.148   6.188  17.164  0.00  0.00    +0.000 A 
ATOM     12  C   UNL     1       6.351   6.889  17.023  0.00  0.00    +0.000 A 
ATOM     13  C   UNL     1       7.387   6.687  17.928  0.00  0.00    +0.000 A 
ATOM     14  C   UNL     1       7.227   5.762  18.952  0.00  0.00    +0.000 A 
ATOM     15  C   UNL     1       6.042   5.026  19.057  0.00  0.00    +0.000 A 
ENDBRANCH   9  10
ENDBRANCH   2   3
BRANCH   1  16
ATOM     16  O   UNL     1       2.062   8.172  20.371  0.00  0.00    +0.000 OA
BRANCH  16  17
ATOM     17  C   UNL     1       0.956   7.940  21.249  0.00  0.00    +0.000 C 
BRANCH  17  18
ATOM     18  C   UNL     1      -0.041   9.101  21.112  0.00  0.00    +0.000 C 
BRANCH  18  22
ATOM     19  C   UNL     1      -1.288  11.874  19.594  0.00  0.00    +0.000 C 
ATOM     20  C   UNL     1      -0.554  12.211  20.879  0.00  0.00    +0.000 C 
ATOM     21  C   UNL     1       0.721  11.406  20.753  0.00  0.00    +0.000 C 
ATOM     22  N   UNL     1       0.321  10.139  20.115  0.00  0.00    +0.000 NA
ATOM     23  C   UNL     1      -0.856  10.450  19.260  0.00  0.00    +0.000 C 
BRANCH  19  25
ATOM     24  O   UNL     1      -0.466  13.983  18.786  0.00  0.00    +0.000 OA
ATOM     25  C   UNL     1      -0.989  12.905  18.526  0.00  0.00    +0.000 C 
BRANCH  25  26
ATOM     26  O   UNL     1      -1.247  12.540  17.254  0.00  0.00    +0.000 OA
ATOM     27  H   UNL     1      -1.624  13.235  16.681  0.00  0.00    +0.000 HD
ENDBRANCH  25  26
ENDBRANCH  19  25
ENDBRANCH  18  22
ENDBRANCH  17  18
ENDBRANCH  16  17
ENDBRANCH   1  16
TORSDOF 8
ENDMDL
MODEL 7
REMARK VINA RESULT:      -7.6      4.424      7.673
REMARK  Name = 
REMARK  8 active torsions:
REMARK  status: ('A' for Active; 'I' for Inactive)
REMARK    1  A    between atoms: C_2  and  O_3
REMARK    2  A    between atoms: C_2  and  C_4
REMARK    3  A    between atoms: N_7  and  C_8
REMARK    4  A    between atoms: C_8  and  C_9
REMARK    5  A    between atoms: C_9  and  O_10
REMARK    6  A    between atoms: O_10  and  N_11
REMARK    7  A    between atoms: C_12  and  C_13
REMARK    8  A    between atoms: C_19  and  C_20
REMARK                            x       y       z     vdW  Elec       q    Type
REMARK                         _______ _______ _______ _____ _____    ______ ____
ROOT
ATOM      1  N   UNL     1       3.030   8.376  17.327  0.00  0.00    +0.000 NA
ATOM      2  C   UNL     1       2.994   7.196  17.857  0.00  0.00    +0.000 C 
ENDROOT
BRANCH   2   3
ATOM      3  C   UNL     1       4.195   6.338  17.876  0.00  0.00    +0.000 A 
ATOM      4  C   UNL     1       5.365   6.892  17.328  0.00  0.00    +0.000 A 
ATOM      5  C   UNL     1       6.538   6.158  17.330  0.00  0.00    +0.000 A 
ATOM      6  F   UNL     1       7.655   6.688  16.816  0.00  0.00    +0.000 F 
ATOM      7  C   UNL     1       6.569   4.878  17.857  0.00  0.00    +0.000 A 
ATOM      8  C   UNL     1       5.398   4.319  18.381  0.00  0.00    +0.000 A 
ATOM      9  C   UNL     1       4.172   5.026  18.411  0.00  0.00    +0.000 A 
BRANCH   9  10
ATOM     10  C   UNL     1       2.955   4.343  18.938  0.00  0.00    +0.000 A 
ATOM     11  C   UNL     1       2.558   4.497  20.283  0.00  0.00    +0.000 A 
ATOM     12  C   UNL     1       1.444   3.832  20.807  0.00  0.00    +0.000 A 
ATOM     13  C   UNL     1       0.663   3.026  19.986  0.00  0.00    +0.000 A 
ATOM     14  C   UNL     1       1.017   2.863  18.653  0.00  0.00    +0.000 A 
ATOM     15  C   UNL     1       2.162   3.488  18.148  0.00  0.00    +0.000 A 
ENDBRANCH   9  10
ENDBRANCH   2   3
BRANCH   1  16
ATOM     16  O   UNL     1       1.743   8.931  17.335  0.00  0.00    +0.000 OA
BRANCH  16  17
ATOM     17  C   UNL     1       1.694   9.896  18.389  0.00  0.00    +0.000 C 
BRANCH  17  18
ATOM     18  C   UNL     1       0.315  10.574  18.381  0.00  0.00    +0.000 C 
BRANCH  18  22
ATOM     19  C   UNL     1      -0.077  10.984  21.732  0.00  0.00    +0.000 C 
ATOM     20  C   UNL     1      -0.774  12.076  20.941  0.00  0.00    +0.000 C 
ATOM     21  C   UNL     1      -1.501  11.294  19.867  0.00  0.00    +0.000 C 
ATOM     22  N   UNL     1      -0.588  10.197  19.498  0.00  0.00    +0.000 NA
ATOM     23  C   UNL     1       0.214   9.888  20.712  0.00  0.00    +0.000 C 
BRANCH  19  25
ATOM     24  O   UNL     1      -1.776  11.292  23.404  0.00  0.00    +0.000 OA
ATOM     25  C   UNL     1      -0.927  10.558  22.911  0.00  0.00    +0.000 C 
BRANCH  25  26
ATOM     26  O   UNL     1      -0.763   9.289  23.338  0.00  0.00    +0.000 OA
ATOM     27  H   UNL     1      -1.005   9.121  24.269  0.00  0.00    +0.000 HD
ENDBRANCH  25  26
ENDBRANCH  19  25
ENDBRANCH  18  22
ENDBRANCH  17  18
ENDBRANCH  16  17
ENDBRANCH   1  16
TORSDOF 8
ENDMDL
MODEL 8
REMARK VINA RESULT:      -7.5      5.114      7.502
REMARK  Name = 
REMARK  8 active torsions:
REMARK  status: ('A' for Active; 'I' for Inactive)
REMARK    1  A    between atoms: C_2  and  O_3
REMARK    2  A    between atoms: C_2  and  C_4
REMARK    3  A    between atoms: N_7  and  C_8
REMARK    4  A    between atoms: C_8  and  C_9
REMARK    5  A    between atoms: C_9  and  O_10
REMARK    6  A    between atoms: O_10  and  N_11
REMARK    7  A    between atoms: C_12  and  C_13
REMARK    8  A    between atoms: C_19  and  C_20
REMARK                            x       y       z     vdW  Elec       q    Type
REMARK                         _______ _______ _______ _____ _____    ______ ____
ROOT
ATOM      1  N   UNL     1       2.774   8.047  18.057  0.00  0.00    +0.000 NA
ATOM      2  C   UNL     1       3.010   6.857  18.507  0.00  0.00    +0.000 C 
ENDROOT
BRANCH   2   3
ATOM      3  C   UNL     1       3.741   5.870  17.689  0.00  0.00    +0.000 A 
ATOM      4  C   UNL     1       4.499   6.384  16.623  0.00  0.00    +0.000 A 
ATOM      5  C   UNL     1       5.230   5.523  15.823  0.00  0.00    +0.000 A 
ATOM      6  F   UNL     1       5.960   6.012  14.813  0.00  0.00    +0.000 F 
ATOM      7  C   UNL     1       5.214   4.158  16.057  0.00  0.00    +0.000 A 
ATOM      8  C   UNL     1       4.441   3.646  17.104  0.00  0.00    +0.000 A 
ATOM      9  C   UNL     1       3.679   4.480  17.957  0.00  0.00    +0.000 A 
BRANCH   9  10
ATOM     10  C   UNL     1       2.838   3.854  19.019  0.00  0.00    +0.000 A 
ATOM     11  C   UNL     1       1.453   3.661  18.831  0.00  0.00    +0.000 A 
ATOM     12  C   UNL     1       0.640   3.114  19.831  0.00  0.00    +0.000 A 
ATOM     13  C   UNL     1       1.197   2.701  21.035  0.00  0.00    +0.000 A 
ATOM     14  C   UNL     1       2.560   2.864  21.248  0.00  0.00    +0.000 A 
ATOM     15  C   UNL     1       3.359   3.460  20.266  0.00  0.00    +0.000 A 
ENDBRANCH   9  10
ENDBRANCH   2   3
BRANCH   1  16
ATOM     16  O   UNL     1       1.973   8.743  18.973  0.00  0.00    +0.000 OA
BRANCH  16  17
ATOM     17  C   UNL     1       1.524   9.941  18.333  0.00  0.00    +0.000 C 
BRANCH  17  18
ATOM     18  C   UNL     1       0.046  10.171  18.686  0.00  0.00    +0.000 C 
BRANCH  18  22
ATOM     19  C   UNL     1      -3.149  10.595  17.609  0.00  0.00    +0.000 C 
ATOM     20  C   UNL     1      -2.777  11.593  18.690  0.00  0.00    +0.000 C 
ATOM     21  C   UNL     1      -1.421  12.086  18.232  0.00  0.00    +0.000 C 
ATOM     22  N   UNL     1      -0.747  10.903  17.667  0.00  0.00    +0.000 NA
ATOM     23  C   UNL     1      -1.819  10.021  17.133  0.00  0.00    +0.000 C 
BRANCH  19  25
ATOM     24  O   UNL     1      -5.112  11.687  16.756  0.00  0.00    +0.000 OA
ATOM     25  C   UNL     1      -3.985  11.260  16.536  0.00  0.00    +0.000 C 
BRANCH  25  26
ATOM     26  O   UNL     1      -3.389  11.440  15.340  0.00  0.00    +0.000 OA
ATOM     27  H   UNL     1      -3.955  11.293  14.557  0.00  0.00    +0.000 HD
ENDBRANCH  25  26
ENDBRANCH  19  25
ENDBRANCH  18  22
ENDBRANCH  17  18
ENDBRANCH  16  17
ENDBRANCH   1  16
TORSDOF 8
ENDMDL
MODEL 9
REMARK VINA RESULT:      -7.5      4.044      7.391
REMARK  Name = 
REMARK  8 active torsions:
REMARK  status: ('A' for Active; 'I' for Inactive)
REMARK    1  A    between atoms: C_2  and  O_3
REMARK    2  A    between atoms: C_2  and  C_4
REMARK    3  A    between atoms: N_7  and  C_8
REMARK    4  A    between atoms: C_8  and  C_9
REMARK    5  A    between atoms: C_9  and  O_10
REMARK    6  A    between atoms: O_10  and  N_11
REMARK    7  A    between atoms: C_12  and  C_13
REMARK    8  A    between atoms: C_19  and  C_20
REMARK                            x       y       z     vdW  Elec       q    Type
REMARK                         _______ _______ _______ _____ _____    ______ ____
ROOT
ATOM      1  N   UNL     1       2.574   6.975  18.051  0.00  0.00    +0.000 NA
ATOM      2  C   UNL     1       3.177   6.408  19.045  0.00  0.00    +0.000 C 
ENDROOT
BRANCH   2   3
ATOM      3  C   UNL     1       2.996   4.968  19.318  0.00  0.00    +0.000 A 
ATOM      4  C   UNL     1       1.982   4.630  20.230  0.00  0.00    +0.000 A 
ATOM      5  C   UNL     1       1.736   3.299  20.521  0.00  0.00    +0.000 A 
ATOM      6  F   UNL     1       0.765   2.976  21.384  0.00  0.00    +0.000 F 
ATOM      7  C   UNL     1       2.486   2.298  19.928  0.00  0.00    +0.000 A 
ATOM      8  C   UNL     1       3.510   2.637  19.037  0.00  0.00    +0.000 A 
ATOM      9  C   UNL     1       3.801   3.980  18.698  0.00  0.00    +0.000 A 
BRANCH   9  10
ATOM     10  C   UNL     1       4.943   4.264  17.781  0.00  0.00    +0.000 A 
ATOM     11  C   UNL     1       6.231   4.539  18.286  0.00  0.00    +0.000 A 
ATOM     12  C   UNL     1       7.305   4.849  17.444  0.00  0.00    +0.000 A 
ATOM     13  C   UNL     1       7.133   4.848  16.064  0.00  0.00    +0.000 A 
ATOM     14  C   UNL     1       5.881   4.569  15.533  0.00  0.00    +0.000 A 
ATOM     15  C   UNL     1       4.798   4.312  16.381  0.00  0.00    +0.000 A 
ENDBRANCH   9  10
ENDBRANCH   2   3
BRANCH   1  16
ATOM     16  O   UNL     1       2.820   8.355  18.082  0.00  0.00    +0.000 OA
BRANCH  16  17
ATOM     17  C   UNL     1       1.616   9.019  17.686  0.00  0.00    +0.000 C 
BRANCH  17  18
ATOM     18  C   UNL     1       1.302  10.128  18.703  0.00  0.00    +0.000 C 
BRANCH  18  22
ATOM     19  C   UNL     1      -0.055  11.355  21.566  0.00  0.00    +0.000 C 
ATOM     20  C   UNL     1      -1.003  11.485  20.388  0.00  0.00    +0.000 C 
ATOM     21  C   UNL     1      -0.920  10.117  19.745  0.00  0.00    +0.000 C 
ATOM     22  N   UNL     1       0.491   9.710  19.873  0.00  0.00    +0.000 NA
ATOM     23  C   UNL     1       1.008  10.364  21.105  0.00  0.00    +0.000 C 
BRANCH  19  25
ATOM     24  O   UNL     1      -1.949  11.348  23.046  0.00  0.00    +0.000 OA
ATOM     25  C   UNL     1      -0.812  10.952  22.815  0.00  0.00    +0.000 C 
BRANCH  25  26
ATOM     26  O   UNL     1      -0.203  10.060  23.621  0.00  0.00    +0.000 OA
ATOM     27  H   UNL     1       0.470  10.426  24.227  0.00  0.00    +0.000 HD
ENDBRANCH  25  26
ENDBRANCH  19  25
ENDBRANCH  18  22
ENDBRANCH  17  18
ENDBRANCH  16  17
ENDBRANCH   1  16
TORSDOF 8
ENDMDL
