MODEL 1
REMARK VINA RESULT:      -6.4      0.000      0.000
REMARK  Name = 
REMARK  12 active torsions:
REMARK  status: ('A' for Active; 'I' for Inactive)
REMARK    1  A    between atoms: C_1  and  C_2
REMARK    2  A    between atoms: C_2  and  C_3
REMARK    3  A    between atoms: C_2  and  N_4
REMARK    4  A    between atoms: N_4  and  C_5
REMARK    5  A    between atoms: C_5  and  C_6
REMARK    6  A    between atoms: C_6  and  O_7
REMARK    7  A    between atoms: C_6  and  C_8
REMARK    8  A    between atoms: C_8  and  O_9
REMARK    9  A    between atoms: O_9  and  C_10
REMARK   10  A    between atoms: C_15  and  C_16
REMARK   11  A    between atoms: C_17  and  C_18
REMARK   12  A    between atoms: C_18  and  O_19
REMARK                            x       y       z     vdW  Elec       q    Type
REMARK                         _______ _______ _______ _____ _____    ______ ____
ROOT
ATOM      1  O   UNL     1       3.640   3.921  17.077  0.00  0.00    +0.000 OA
ENDROOT
BRANCH   1   2
ATOM      2  C   UNL     1       4.935   4.307  17.341  0.00  0.00    +0.000 A 
ATOM      3  C   UNL     1       5.339   4.689  18.633  0.00  0.00    +0.000 A 
ATOM      4  C   UNL     1       6.642   5.116  18.890  0.00  0.00    +0.000 A 
ATOM      5  C   UNL     1       7.566   5.159  17.859  0.00  0.00    +0.000 A 
ATOM      6  C   UNL     1       7.194   4.743  16.582  0.00  0.00    +0.000 A 
ATOM      7  C   UNL     1       5.888   4.287  16.301  0.00  0.00    +0.000 A 
BRANCH   7   8
ATOM      8  C   UNL     1       5.677   3.873  14.897  0.00  0.00    +0.000 C 
ATOM      9  C   UNL     1       6.505   4.074  13.851  0.00  0.00    +0.000 C 
BRANCH   9  10
ATOM     10  C   UNL     1       6.143   3.728  12.445  0.00  0.00    +0.000 C 
BRANCH  10  11
ATOM     11  O   UNL     1       6.561   2.397  12.183  0.00  0.00    +0.000 OA
ATOM     12  H   UNL     1       5.865   1.811  12.528  0.00  0.00    +0.000 HD
ENDBRANCH  10  11
ENDBRANCH   9  10
ENDBRANCH   7   8
ENDBRANCH   1   2
BRANCH   1  13
ATOM     13  C   UNL     1       3.310   2.576  17.477  0.00  0.00    +0.000 C 
BRANCH  13  14
ATOM     14  C   UNL     1       1.818   2.480  17.822  0.00  0.00    +0.000 C 
BRANCH  14  15
ATOM     15  O   UNL     1       1.175   3.731  17.528  0.00  0.00    +0.000 OA
ATOM     16  H   UNL     1       0.450   3.525  16.909  0.00  0.00    +0.000 HD
ENDBRANCH  14  15
BRANCH  14  17
ATOM     17  C   UNL     1       1.611   2.116  19.298  0.00  0.00    +0.000 C 
BRANCH  17  18
ATOM     18  N   UNL     1       0.706   3.074  19.951  0.00  0.00    +0.000 NA
ATOM     19  H   UNL     1       0.416   3.759  19.248  0.00  0.00    +0.000 HD
BRANCH  18  21
ATOM     20  C   UNL     1       2.345   2.802  21.732  0.00  0.00    +0.000 C 
ATOM     21  C   UNL     1       1.330   3.750  21.093  0.00  0.00    +0.000 C 
ATOM     22  C   UNL     1       2.037   5.042  20.667  0.00  0.00    +0.000 C 
ENDBRANCH  18  21
ENDBRANCH  17  18
ENDBRANCH  14  17
ENDBRANCH  13  14
ENDBRANCH   1  13
TORSDOF 10
ENDMDL
MODEL 2
REMARK VINA RESULT:      -6.4      2.296      3.279
REMARK  Name = 
REMARK  12 active torsions:
REMARK  status: ('A' for Active; 'I' for Inactive)
REMARK    1  A    between atoms: C_1  and  C_2
REMARK    2  A    between atoms: C_2  and  C_3
REMARK    3  A    between atoms: C_2  and  N_4
REMARK    4  A    between atoms: N_4  and  C_5
REMARK    5  A    between atoms: C_5  and  C_6
REMARK    6  A    between atoms: C_6  and  O_7
REMARK    7  A    between atoms: C_6  and  C_8
REMARK    8  A    between atoms: C_8  and  O_9
REMARK    9  A    between atoms: O_9  and  C_10
REMARK   10  A    between atoms: C_15  and  C_16
REMARK   11  A    between atoms: C_17  and  C_18
REMARK   12  A    between atoms: C_18  and  O_19
REMARK                            x       y       z     vdW  Elec       q    Type
REMARK                         _______ _______ _______ _____ _____    ______ ____
ROOT
ATOM      1  O   UNL     1       5.186   4.771  19.235  0.00  0.00    +0.000 OA
ENDROOT
BRANCH   1   2
ATOM      2  C   UNL     1       4.303   5.762  18.875  0.00  0.00    +0.000 A 
ATOM      3  C   UNL     1       3.291   6.199  19.749  0.00  0.00    +0.000 A 
ATOM      4  C   UNL     1       2.373   7.178  19.367  0.00  0.00    +0.000 A 
ATOM      5  C   UNL     1       2.457   7.743  18.106  0.00  0.00    +0.000 A 
ATOM      6  C   UNL     1       3.480   7.352  17.243  0.00  0.00    +0.000 A 
ATOM      7  C   UNL     1       4.434   6.380  17.614  0.00  0.00    +0.000 A 
BRANCH   7   8
ATOM      8  C   UNL     1       5.453   6.102  16.578  0.00  0.00    +0.000 C 
ATOM      9  C   UNL     1       5.372   5.213  15.567  0.00  0.00    +0.000 C 
BRANCH   9  10
ATOM     10  C   UNL     1       6.509   4.917  14.647  0.00  0.00    +0.000 C 
BRANCH  10  11
ATOM     11  O   UNL     1       6.415   3.564  14.230  0.00  0.00    +0.000 OA
ATOM     12  H   UNL     1       7.139   3.413  13.599  0.00  0.00    +0.000 HD
ENDBRANCH  10  11
ENDBRANCH   9  10
ENDBRANCH   7   8
ENDBRANCH   1   2
BRANCH   1  13
ATOM     13  C   UNL     1       4.806   3.439  18.834  0.00  0.00    +0.000 C 
BRANCH  13  14
ATOM     14  C   UNL     1       4.517   2.579  20.071  0.00  0.00    +0.000 C 
BRANCH  14  15
ATOM     15  O   UNL     1       5.110   1.280  19.904  0.00  0.00    +0.000 OA
ATOM     16  H   UNL     1       6.070   1.404  20.023  0.00  0.00    +0.000 HD
ENDBRANCH  14  15
BRANCH  14  17
ATOM     17  C   UNL     1       3.007   2.441  20.312  0.00  0.00    +0.000 C 
BRANCH  17  18
ATOM     18  N   UNL     1       2.308   2.094  19.066  0.00  0.00    +0.000 NA
ATOM     19  H   UNL     1       2.974   2.195  18.295  0.00  0.00    +0.000 HD
BRANCH  18  21
ATOM     20  C   UNL     1       0.787   3.676  20.121  0.00  0.00    +0.000 C 
ATOM     21  C   UNL     1       1.126   2.930  18.830  0.00  0.00    +0.000 C 
ATOM     22  C   UNL     1       1.366   3.942  17.704  0.00  0.00    +0.000 C 
ENDBRANCH  18  21
ENDBRANCH  17  18
ENDBRANCH  14  17
ENDBRANCH  13  14
ENDBRANCH   1  13
TORSDOF 10
ENDMDL
MODEL 3
REMARK VINA RESULT:      -6.3      3.297      6.376
REMARK  Name = 
REMARK  12 active torsions:
REMARK  status: ('A' for Active; 'I' for Inactive)
REMARK    1  A    between atoms: C_1  and  C_2
REMARK    2  A    between atoms: C_2  and  C_3
REMARK    3  A    between atoms: C_2  and  N_4
REMARK    4  A    between atoms: N_4  and  C_5
REMARK    5  A    between atoms: C_5  and  C_6
REMARK    6  A    between atoms: C_6  and  O_7
REMARK    7  A    between atoms: C_6  and  C_8
REMARK    8  A    between atoms: C_8  and  O_9
REMARK    9  A    between atoms: O_9  and  C_10
REMARK   10  A    between atoms: C_15  and  C_16
REMARK   11  A    between atoms: C_17  and  C_18
REMARK   12  A    between atoms: C_18  and  O_19
REMARK                            x       y       z     vdW  Elec       q    Type
REMARK                         _______ _______ _______ _____ _____    ______ ____
ROOT
ATOM      1  O   UNL     1       4.917   5.654  18.577  0.00  0.00    +0.000 OA
ENDROOT
BRANCH   1   2
ATOM      2  C   UNL     1       3.910   4.730  18.417  0.00  0.00    +0.000 A 
ATOM      3  C   UNL     1       4.139   3.354  18.596  0.00  0.00    +0.000 A 
ATOM      4  C   UNL     1       3.126   2.416  18.396  0.00  0.00    +0.000 A 
ATOM      5  C   UNL     1       1.863   2.841  18.020  0.00  0.00    +0.000 A 
ATOM      6  C   UNL     1       1.607   4.204  17.880  0.00  0.00    +0.000 A 
ATOM      7  C   UNL     1       2.610   5.173  18.098  0.00  0.00    +0.000 A 
BRANCH   7   8
ATOM      8  C   UNL     1       2.155   6.569  17.917  0.00  0.00    +0.000 C 
ATOM      9  C   UNL     1       2.386   7.618  18.733  0.00  0.00    +0.000 C 
BRANCH   9  10
ATOM     10  C   UNL     1       1.775   8.963  18.527  0.00  0.00    +0.000 C 
BRANCH  10  11
ATOM     11  O   UNL     1       2.008   9.367  17.186  0.00  0.00    +0.000 OA
ATOM     12  H   UNL     1       2.868   8.995  16.925  0.00  0.00    +0.000 HD
ENDBRANCH  10  11
ENDBRANCH   9  10
ENDBRANCH   7   8
ENDBRANCH   1   2
BRANCH   1  13
ATOM     13  C   UNL     1       6.065   5.185  19.314  0.00  0.00    +0.000 C 
BRANCH  13  14
ATOM     14  C   UNL     1       7.348   5.455  18.517  0.00  0.00    +0.000 C 
BRANCH  14  15
ATOM     15  O   UNL     1       8.316   6.093  19.365  0.00  0.00    +0.000 OA
ATOM     16  H   UNL     1       8.668   6.846  18.856  0.00  0.00    +0.000 HD
ENDBRANCH  14  15
BRANCH  14  17
ATOM     17  C   UNL     1       7.066   6.330  17.288  0.00  0.00    +0.000 C 
BRANCH  17  18
ATOM     18  N   UNL     1       7.534   5.671  16.059  0.00  0.00    +0.000 NA
ATOM     19  H   UNL     1       8.159   6.320  15.574  0.00  0.00    +0.000 HD
BRANCH  18  21
ATOM     20  C   UNL     1       6.014   3.844  15.525  0.00  0.00    +0.000 C 
ATOM     21  C   UNL     1       6.430   5.274  15.178  0.00  0.00    +0.000 C 
ATOM     22  C   UNL     1       5.223   6.207  15.328  0.00  0.00    +0.000 C 
ENDBRANCH  18  21
ENDBRANCH  17  18
ENDBRANCH  14  17
ENDBRANCH  13  14
ENDBRANCH   1  13
TORSDOF 10
ENDMDL
MODEL 4
REMARK VINA RESULT:      -6.3      3.460      7.075
REMARK  Name = 
REMARK  12 active torsions:
REMARK  status: ('A' for Active; 'I' for Inactive)
REMARK    1  A    between atoms: C_1  and  C_2
REMARK    2  A    between atoms: C_2  and  C_3
REMARK    3  A    between atoms: C_2  and  N_4
REMARK    4  A    between atoms: N_4  and  C_5
REMARK    5  A    between atoms: C_5  and  C_6
REMARK    6  A    between atoms: C_6  and  O_7
REMARK    7  A    between atoms: C_6  and  C_8
REMARK    8  A    between atoms: C_8  and  O_9
REMARK    9  A    between atoms: O_9  and  C_10
REMARK   10  A    between atoms: C_15  and  C_16
REMARK   11  A    between atoms: C_17  and  C_18
REMARK   12  A    between atoms: C_18  and  O_19
REMARK                            x       y       z     vdW  Elec       q    Type
REMARK                         _______ _______ _______ _____ _____    ______ ____
ROOT
ATOM      1  O   UNL     1       5.088   5.357  16.409  0.00  0.00    +0.000 OA
ENDROOT
BRANCH   1   2
ATOM      2  C   UNL     1       4.038   4.806  17.107  0.00  0.00    +0.000 A 
ATOM      3  C   UNL     1       3.880   3.413  17.221  0.00  0.00    +0.000 A 
ATOM      4  C   UNL     1       2.794   2.857  17.896  0.00  0.00    +0.000 A 
ATOM      5  C   UNL     1       1.849   3.687  18.477  0.00  0.00    +0.000 A 
ATOM      6  C   UNL     1       2.012   5.069  18.410  0.00  0.00    +0.000 A 
ATOM      7  C   UNL     1       3.115   5.656  17.751  0.00  0.00    +0.000 A 
BRANCH   7   8
ATOM      8  C   UNL     1       3.132   7.134  17.793  0.00  0.00    +0.000 C 
ATOM      9  C   UNL     1       2.092   7.959  18.037  0.00  0.00    +0.000 C 
BRANCH   9  10
ATOM     10  C   UNL     1       2.186   9.444  17.932  0.00  0.00    +0.000 C 
BRANCH  10  11
ATOM     11  O   UNL     1       0.897   9.961  17.641  0.00  0.00    +0.000 OA
ATOM     12  H   UNL     1       0.253   9.351  18.038  0.00  0.00    +0.000 HD
ENDBRANCH  10  11
ENDBRANCH   9  10
ENDBRANCH   7   8
ENDBRANCH   1   2
BRANCH   1  13
ATOM     13  C   UNL     1       6.330   4.630  16.501  0.00  0.00    +0.000 C 
BRANCH  13  14
ATOM     14  C   UNL     1       6.913   4.405  15.099  0.00  0.00    +0.000 C 
BRANCH  14  15
ATOM     15  O   UNL     1       7.610   5.587  14.673  0.00  0.00    +0.000 OA
ATOM     16  H   UNL     1       8.518   5.303  14.456  0.00  0.00    +0.000 HD
ENDBRANCH  14  15
BRANCH  14  17
ATOM     17  C   UNL     1       5.813   4.050  14.089  0.00  0.00    +0.000 C 
BRANCH  17  18
ATOM     18  N   UNL     1       6.397   3.570  12.828  0.00  0.00    +0.000 NA
ATOM     19  H   UNL     1       6.538   4.381  12.220  0.00  0.00    +0.000 HD
BRANCH  18  21
ATOM     20  C   UNL     1       4.437   3.301  11.406  0.00  0.00    +0.000 C 
ATOM     21  C   UNL     1       5.552   2.575  12.159  0.00  0.00    +0.000 C 
ATOM     22  C   UNL     1       6.359   1.720  11.174  0.00  0.00    +0.000 C 
ENDBRANCH  18  21
ENDBRANCH  17  18
ENDBRANCH  14  17
ENDBRANCH  13  14
ENDBRANCH   1  13
TORSDOF 10
ENDMDL
MODEL 5
REMARK VINA RESULT:      -6.3      2.793      6.274
REMARK  Name = 
REMARK  12 active torsions:
REMARK  status: ('A' for Active; 'I' for Inactive)
REMARK    1  A    between atoms: C_1  and  C_2
REMARK    2  A    between atoms: C_2  and  C_3
REMARK    3  A    between atoms: C_2  and  N_4
REMARK    4  A    between atoms: N_4  and  C_5
REMARK    5  A    between atoms: C_5  and  C_6
REMARK    6  A    between atoms: C_6  and  O_7
REMARK    7  A    between atoms: C_6  and  C_8
REMARK    8  A    between atoms: C_8  and  O_9
REMARK    9  A    between atoms: O_9  and  C_10
REMARK   10  A    between atoms: C_15  and  C_16
REMARK   11  A    between atoms: C_17  and  C_18
REMARK   12  A    between atoms: C_18  and  O_19
REMARK                            x       y       z     vdW  Elec       q    Type
REMARK                         _______ _______ _______ _____ _____    ______ ____
ROOT
ATOM      1  O   UNL     1       3.282   6.162  17.879  0.00  0.00    +0.000 OA
ENDROOT
BRANCH   1   2
ATOM      2  C   UNL     1       2.558   7.021  18.673  0.00  0.00    +0.000 A 
ATOM      3  C   UNL     1       2.285   8.341  18.271  0.00  0.00    +0.000 A 
ATOM      4  C   UNL     1       1.583   9.221  19.095  0.00  0.00    +0.000 A 
ATOM      5  C   UNL     1       1.136   8.794  20.333  0.00  0.00    +0.000 A 
ATOM      6  C   UNL     1       1.360   7.476  20.730  0.00  0.00    +0.000 A 
ATOM      7  C   UNL     1       2.049   6.560  19.905  0.00  0.00    +0.000 A 
BRANCH   7   8
ATOM      8  C   UNL     1       2.181   5.205  20.482  0.00  0.00    +0.000 C 
ATOM      9  C   UNL     1       1.226   4.257  20.577  0.00  0.00    +0.000 C 
BRANCH   9  10
ATOM     10  C   UNL     1       1.426   2.963  21.292  0.00  0.00    +0.000 C 
BRANCH  10  11
ATOM     11  O   UNL     1       2.411   3.148  22.296  0.00  0.00    +0.000 OA
ATOM     12  H   UNL     1       2.251   2.470  22.976  0.00  0.00    +0.000 HD
ENDBRANCH  10  11
ENDBRANCH   9  10
ENDBRANCH   7   8
ENDBRANCH   1   2
BRANCH   1  13
ATOM     13  C   UNL     1       4.562   6.664  17.444  0.00  0.00    +0.000 C 
BRANCH  13  14
ATOM     14  C   UNL     1       5.287   5.602  16.607  0.00  0.00    +0.000 C 
BRANCH  14  15
ATOM     15  O   UNL     1       5.536   6.117  15.288  0.00  0.00    +0.000 OA
ATOM     16  H   UNL     1       4.669   6.152  14.843  0.00  0.00    +0.000 HD
ENDBRANCH  14  15
BRANCH  14  17
ATOM     17  C   UNL     1       4.467   4.307  16.520  0.00  0.00    +0.000 C 
BRANCH  17  18
ATOM     18  N   UNL     1       4.806   3.399  17.626  0.00  0.00    +0.000 NA
ATOM     19  H   UNL     1       5.428   2.675  17.258  0.00  0.00    +0.000 HD
BRANCH  18  21
ATOM     20  C   UNL     1       2.424   2.999  17.308  0.00  0.00    +0.000 C 
ATOM     21  C   UNL     1       3.620   2.789  18.238  0.00  0.00    +0.000 C 
ATOM     22  C   UNL     1       3.819   1.288  18.481  0.00  0.00    +0.000 C 
ENDBRANCH  18  21
ENDBRANCH  17  18
ENDBRANCH  14  17
ENDBRANCH  13  14
ENDBRANCH   1  13
TORSDOF 10
ENDMDL
MODEL 6
REMARK VINA RESULT:      -6.3      3.035      6.188
REMARK  Name = 
REMARK  12 active torsions:
REMARK  status: ('A' for Active; 'I' for Inactive)
REMARK    1  A    between atoms: C_1  and  C_2
REMARK    2  A    between atoms: C_2  and  C_3
REMARK    3  A    between atoms: C_2  and  N_4
REMARK    4  A    between atoms: N_4  and  C_5
REMARK    5  A    between atoms: C_5  and  C_6
REMARK    6  A    between atoms: C_6  and  O_7
REMARK    7  A    between atoms: C_6  and  C_8
REMARK    8  A    between atoms: C_8  and  O_9
REMARK    9  A    between atoms: O_9  and  C_10
REMARK   10  A    between atoms: C_15  and  C_16
REMARK   11  A    between atoms: C_17  and  C_18
REMARK   12  A    between atoms: C_18  and  O_19
REMARK                            x       y       z     vdW  Elec       q    Type
REMARK                         _______ _______ _______ _____ _____    ______ ____
ROOT
ATOM      1  O   UNL     1       3.039   5.758  17.796  0.00  0.00    +0.000 OA
ENDROOT
BRANCH   1   2
ATOM      2  C   UNL     1       2.461   6.724  18.587  0.00  0.00    +0.000 A 
ATOM      3  C   UNL     1       2.247   8.031  18.114  0.00  0.00    +0.000 A 
ATOM      4  C   UNL     1       1.696   9.018  18.930  0.00  0.00    +0.000 A 
ATOM      5  C   UNL     1       1.340   8.712  20.233  0.00  0.00    +0.000 A 
ATOM      6  C   UNL     1       1.504   7.411  20.704  0.00  0.00    +0.000 A 
ATOM      7  C   UNL     1       2.041   6.389  19.891  0.00  0.00    +0.000 A 
BRANCH   7   8
ATOM      8  C   UNL     1       2.128   5.069  20.553  0.00  0.00    +0.000 C 
ATOM      9  C   UNL     1       1.168   4.125  20.629  0.00  0.00    +0.000 C 
BRANCH   9  10
ATOM     10  C   UNL     1       1.313   2.875  21.430  0.00  0.00    +0.000 C 
BRANCH  10  11
ATOM     11  O   UNL     1       2.390   3.040  22.339  0.00  0.00    +0.000 OA
ATOM     12  H   UNL     1       3.200   2.781  21.866  0.00  0.00    +0.000 HD
ENDBRANCH  10  11
ENDBRANCH   9  10
ENDBRANCH   7   8
ENDBRANCH   1   2
BRANCH   1  13
ATOM     13  C   UNL     1       4.373   6.060  17.339  0.00  0.00    +0.000 C 
BRANCH  13  14
ATOM     14  C   UNL     1       5.401   5.632  18.394  0.00  0.00    +0.000 C 
BRANCH  14  15
ATOM     15  O   UNL     1       6.707   6.088  18.007  0.00  0.00    +0.000 OA
ATOM     16  H   UNL     1       6.639   7.056  17.911  0.00  0.00    +0.000 HD
ENDBRANCH  14  15
BRANCH  14  17
ATOM     17  C   UNL     1       5.408   4.108  18.577  0.00  0.00    +0.000 C 
BRANCH  17  18
ATOM     18  N   UNL     1       4.655   3.448  17.500  0.00  0.00    +0.000 NA
ATOM     19  H   UNL     1       4.003   4.133  17.109  0.00  0.00    +0.000 HD
BRANCH  18  21
ATOM     20  C   UNL     1       4.157   2.103  19.467  0.00  0.00    +0.000 C 
ATOM     21  C   UNL     1       3.929   2.262  17.964  0.00  0.00    +0.000 C 
ATOM     22  C   UNL     1       2.425   2.375  17.685  0.00  0.00    +0.000 C 
ENDBRANCH  18  21
ENDBRANCH  17  18
ENDBRANCH  14  17
ENDBRANCH  13  14
ENDBRANCH   1  13
TORSDOF 10
ENDMDL
MODEL 7
REMARK VINA RESULT:      -6.3      1.047      1.468
REMARK  Name = 
REMARK  12 active torsions:
REMARK  status: ('A' for Active; 'I' for Inactive)
REMARK    1  A    between atoms: C_1  and  C_2
REMARK    2  A    between atoms: C_2  and  C_3
REMARK    3  A    between atoms: C_2  and  N_4
REMARK    4  A    between atoms: N_4  and  C_5
REMARK    5  A    between atoms: C_5  and  C_6
REMARK    6  A    between atoms: C_6  and  O_7
REMARK    7  A    between atoms: C_6  and  C_8
REMARK    8  A    between atoms: C_8  and  O_9
REMARK    9  A    between atoms: O_9  and  C_10
REMARK   10  A    between atoms: C_15  and  C_16
REMARK   11  A    between atoms: C_17  and  C_18
REMARK   12  A    between atoms: C_18  and  O_19
REMARK                            x       y       z     vdW  Elec       q    Type
REMARK                         _______ _______ _______ _____ _____    ______ ____
ROOT
ATOM      1  O   UNL     1       3.785   4.078  17.271  0.00  0.00    +0.000 OA
ENDROOT
BRANCH   1   2
ATOM      2  C   UNL     1       5.056   4.463  17.631  0.00  0.00    +0.000 A 
ATOM      3  C   UNL     1       5.336   4.970  18.913  0.00  0.00    +0.000 A 
ATOM      4  C   UNL     1       6.617   5.396  19.263  0.00  0.00    +0.000 A 
ATOM      5  C   UNL     1       7.644   5.314  18.338  0.00  0.00    +0.000 A 
ATOM      6  C   UNL     1       7.394   4.774  17.078  0.00  0.00    +0.000 A 
ATOM      7  C   UNL     1       6.111   4.317  16.707  0.00  0.00    +0.000 A 
BRANCH   7   8
ATOM      8  C   UNL     1       6.036   3.762  15.338  0.00  0.00    +0.000 C 
ATOM      9  C   UNL     1       5.647   4.401  14.215  0.00  0.00    +0.000 C 
BRANCH   9  10
ATOM     10  C   UNL     1       5.484   3.716  12.900  0.00  0.00    +0.000 C 
BRANCH  10  11
ATOM     11  O   UNL     1       6.571   2.821  12.716  0.00  0.00    +0.000 OA
ATOM     12  H   UNL     1       6.676   2.331  13.550  0.00  0.00    +0.000 HD
ENDBRANCH  10  11
ENDBRANCH   9  10
ENDBRANCH   7   8
ENDBRANCH   1   2
BRANCH   1  13
ATOM     13  C   UNL     1       3.598   2.656  17.122  0.00  0.00    +0.000 C 
BRANCH  13  14
ATOM     14  C   UNL     1       3.442   1.998  18.499  0.00  0.00    +0.000 C 
BRANCH  14  15
ATOM     15  O   UNL     1       3.978   0.665  18.459  0.00  0.00    +0.000 OA
ATOM     16  H   UNL     1       3.317   0.121  17.993  0.00  0.00    +0.000 HD
ENDBRANCH  14  15
BRANCH  14  17
ATOM     17  C   UNL     1       1.971   1.961  18.935  0.00  0.00    +0.000 C 
BRANCH  17  18
ATOM     18  N   UNL     1       1.502   3.304  19.308  0.00  0.00    +0.000 NA
ATOM     19  H   UNL     1       1.587   3.905  18.483  0.00  0.00    +0.000 HD
BRANCH  18  21
ATOM     20  C   UNL     1       1.851   5.336  20.604  0.00  0.00    +0.000 C 
ATOM     21  C   UNL     1       2.255   3.872  20.431  0.00  0.00    +0.000 C 
ATOM     22  C   UNL     1       1.985   3.111  21.735  0.00  0.00    +0.000 C 
ENDBRANCH  18  21
ENDBRANCH  17  18
ENDBRANCH  14  17
ENDBRANCH  13  14
ENDBRANCH   1  13
TORSDOF 10
ENDMDL
MODEL 8
REMARK VINA RESULT:      -6.3      1.073      1.170
REMARK  Name = 
REMARK  12 active torsions:
REMARK  status: ('A' for Active; 'I' for Inactive)
REMARK    1  A    between atoms: C_1  and  C_2
REMARK    2  A    between atoms: C_2  and  C_3
REMARK    3  A    between atoms: C_2  and  N_4
REMARK    4  A    between atoms: N_4  and  C_5
REMARK    5  A    between atoms: C_5  and  C_6
REMARK    6  A    between atoms: C_6  and  O_7
REMARK    7  A    between atoms: C_6  and  C_8
REMARK    8  A    between atoms: C_8  and  O_9
REMARK    9  A    between atoms: O_9  and  C_10
REMARK   10  A    between atoms: C_15  and  C_16
REMARK   11  A    between atoms: C_17  and  C_18
REMARK   12  A    between atoms: C_18  and  O_19
REMARK                            x       y       z     vdW  Elec       q    Type
REMARK                         _______ _______ _______ _____ _____    ______ ____
ROOT
ATOM      1  O   UNL     1       4.656   3.824  17.597  0.00  0.00    +0.000 OA
ENDROOT
BRANCH   1   2
ATOM      2  C   UNL     1       5.700   4.691  17.825  0.00  0.00    +0.000 A 
ATOM      3  C   UNL     1       6.171   4.951  19.124  0.00  0.00    +0.000 A 
ATOM      4  C   UNL     1       7.204   5.859  19.356  0.00  0.00    +0.000 A 
ATOM      5  C   UNL     1       7.791   6.517  18.288  0.00  0.00    +0.000 A 
ATOM      6  C   UNL     1       7.366   6.240  16.990  0.00  0.00    +0.000 A 
ATOM      7  C   UNL     1       6.337   5.310  16.728  0.00  0.00    +0.000 A 
BRANCH   7   8
ATOM      8  C   UNL     1       6.028   5.132  15.293  0.00  0.00    +0.000 C 
ATOM      9  C   UNL     1       6.009   3.978  14.596  0.00  0.00    +0.000 C 
BRANCH   9  10
ATOM     10  C   UNL     1       5.808   3.919  13.118  0.00  0.00    +0.000 C 
BRANCH  10  11
ATOM     11  O   UNL     1       6.485   2.779  12.613  0.00  0.00    +0.000 OA
ATOM     12  H   UNL     1       6.820   2.286  13.382  0.00  0.00    +0.000 HD
ENDBRANCH  10  11
ENDBRANCH   9  10
ENDBRANCH   7   8
ENDBRANCH   1   2
BRANCH   1  13
ATOM     13  C   UNL     1       3.349   4.434  17.575  0.00  0.00    +0.000 C 
BRANCH  13  14
ATOM     14  C   UNL     1       2.279   3.374  17.285  0.00  0.00    +0.000 C 
BRANCH  14  15
ATOM     15  O   UNL     1       0.988   4.001  17.213  0.00  0.00    +0.000 OA
ATOM     16  H   UNL     1       1.027   4.617  16.458  0.00  0.00    +0.000 HD
ENDBRANCH  14  15
BRANCH  14  17
ATOM     17  C   UNL     1       2.273   2.280  18.362  0.00  0.00    +0.000 C 
BRANCH  17  18
ATOM     18  N   UNL     1       2.652   2.833  19.671  0.00  0.00    +0.000 NA
ATOM     19  H   UNL     1       3.215   2.130  20.157  0.00  0.00    +0.000 HD
BRANCH  18  21
ATOM     20  C   UNL     1       1.626   2.557  21.863  0.00  0.00    +0.000 C 
ATOM     21  C   UNL     1       1.489   3.203  20.484  0.00  0.00    +0.000 C 
ATOM     22  C   UNL     1       1.372   4.724  20.644  0.00  0.00    +0.000 C 
ENDBRANCH  18  21
ENDBRANCH  17  18
ENDBRANCH  14  17
ENDBRANCH  13  14
ENDBRANCH   1  13
TORSDOF 10
ENDMDL
MODEL 9
REMARK VINA RESULT:      -6.2      2.420      3.449
REMARK  Name = 
REMARK  12 active torsions:
REMARK  status: ('A' for Active; 'I' for Inactive)
REMARK    1  A    between atoms: C_1  and  C_2
REMARK    2  A    between atoms: C_2  and  C_3
REMARK    3  A    between atoms: C_2  and  N_4
REMARK    4  A    between atoms: N_4  and  C_5
REMARK    5  A    between atoms: C_5  and  C_6
REMARK    6  A    between atoms: C_6  and  O_7
REMARK    7  A    between atoms: C_6  and  C_8
REMARK    8  A    between atoms: C_8  and  O_9
REMARK    9  A    between atoms: O_9  and  C_10
REMARK   10  A    between atoms: C_15  and  C_16
REMARK   11  A    between atoms: C_17  and  C_18
REMARK   12  A    between atoms: C_18  and  O_19
REMARK                            x       y       z     vdW  Elec       q    Type
REMARK                         _______ _______ _______ _____ _____    ______ ____
ROOT
ATOM      1  O   UNL     1       5.231   4.735  19.305  0.00  0.00    +0.000 OA
ENDROOT
BRANCH   1   2
ATOM      2  C   UNL     1       4.340   5.723  18.954  0.00  0.00    +0.000 A 
ATOM      3  C   UNL     1       3.287   6.101  19.805  0.00  0.00    +0.000 A 
ATOM      4  C   UNL     1       2.363   7.077  19.430  0.00  0.00    +0.000 A 
ATOM      5  C   UNL     1       2.483   7.698  18.199  0.00  0.00    +0.000 A 
ATOM      6  C   UNL     1       3.546   7.367  17.361  0.00  0.00    +0.000 A 
ATOM      7  C   UNL     1       4.506   6.398  17.726  0.00  0.00    +0.000 A 
BRANCH   7   8
ATOM      8  C   UNL     1       5.569   6.187  16.721  0.00  0.00    +0.000 C 
ATOM      9  C   UNL     1       5.520   5.395  15.630  0.00  0.00    +0.000 C 
BRANCH   9  10
ATOM     10  C   UNL     1       6.695   5.152  14.743  0.00  0.00    +0.000 C 
BRANCH  10  11
ATOM     11  O   UNL     1       7.773   4.679  15.537  0.00  0.00    +0.000 OA
ATOM     12  H   UNL     1       8.562   4.678  14.968  0.00  0.00    +0.000 HD
ENDBRANCH  10  11
ENDBRANCH   9  10
ENDBRANCH   7   8
ENDBRANCH   1   2
BRANCH   1  13
ATOM     13  C   UNL     1       5.079   3.493  18.588  0.00  0.00    +0.000 C 
BRANCH  13  14
ATOM     14  C   UNL     1       4.269   2.496  19.428  0.00  0.00    +0.000 C 
BRANCH  14  15
ATOM     15  O   UNL     1       5.146   1.803  20.331  0.00  0.00    +0.000 OA
ATOM     16  H   UNL     1       5.072   2.263  21.187  0.00  0.00    +0.000 HD
ENDBRANCH  14  15
BRANCH  14  17
ATOM     17  C   UNL     1       3.529   1.489  18.536  0.00  0.00    +0.000 C 
BRANCH  17  18
ATOM     18  N   UNL     1       2.083   1.753  18.539  0.00  0.00    +0.000 NA
ATOM     19  H   UNL     1       1.728   1.563  17.598  0.00  0.00    +0.000 HD
BRANCH  18  21
ATOM     20  C   UNL     1       1.318   3.907  17.697  0.00  0.00    +0.000 C 
ATOM     21  C   UNL     1       1.761   3.128  18.936  0.00  0.00    +0.000 C 
ATOM     22  C   UNL     1       0.646   3.166  19.988  0.00  0.00    +0.000 C 
ENDBRANCH  18  21
ENDBRANCH  17  18
ENDBRANCH  14  17
ENDBRANCH  13  14
ENDBRANCH   1  13
TORSDOF 10
ENDMDL
