MODEL 1
REMARK VINA RESULT:      -6.2      0.000      0.000
REMARK  Name = 
REMARK  9 active torsions:
REMARK  status: ('A' for Active; 'I' for Inactive)
REMARK    1  A    between atoms: C_1  and  O_2
REMARK    2  A    between atoms: O_2  and  C_3
REMARK    3  A    between atoms: C_6  and  C_7
REMARK    4  A    between atoms: C_7  and  N_8
REMARK    5  A    between atoms: N_8  and  C_9
REMARK    6  A    between atoms: C_13  and  S_14
REMARK    7  A    between atoms: S_14  and  C_15
REMARK    8  A    between atoms: N_18  and  C_19
REMARK    9  A    between atoms: N_18  and  C_20
REMARK                            x       y       z     vdW  Elec       q    Type
REMARK                         _______ _______ _______ _____ _____    ______ ____
ROOT
ATOM      1  N   UNL     1       0.500  10.958  19.666  0.00  0.00    +0.000 N 
ATOM      2  C   UNL     1      -0.877  11.233  19.518  0.00  0.00    +0.000 A 
ATOM      3  N   UNL     1      -1.500  11.926  20.466  0.00  0.00    +0.000 NA
ATOM      4  C   UNL     1      -2.734  12.318  20.180  0.00  0.00    +0.000 A 
ATOM      5  N   UNL     1      -3.383  12.029  19.060  0.00  0.00    +0.000 NA
ATOM      6  C   UNL     1      -2.742  11.266  18.190  0.00  0.00    +0.000 A 
ATOM      7  N   UNL     1      -3.338  10.966  16.985  0.00  0.00    +0.000 N 
ATOM      8  C   UNL     1      -4.667  11.456  16.669  0.00  0.00    +0.000 C 
ATOM      9  C   UNL     1      -2.764   9.974  16.097  0.00  0.00    +0.000 C 
ATOM     10  N   UNL     1      -1.501  10.837  18.408  0.00  0.00    +0.000 NA
ENDROOT
BRANCH   1  11
ATOM     11  C   UNL     1       1.221  11.985  20.404  0.00  0.00    +0.000 C 
ATOM     12  N   UNL     1       1.735  12.766  21.074  0.00  0.00    +0.000 NA
ENDBRANCH   1  11
BRANCH   4  13
ATOM     13  S   UNL     1      -3.583  13.418  21.297  0.00  0.00    +0.000 S 
ATOM     14  C   UNL     1      -5.277  12.783  21.200  0.00  0.00    +0.000 C 
ENDBRANCH   4  13
BRANCH   1  15
ATOM     15  C   UNL     1       1.100  10.248  18.534  0.00  0.00    +0.000 C 
BRANCH  15  19
ATOM     16  C   UNL     1       2.892   6.317  19.233  0.00  0.00    +0.000 A 
ATOM     17  C   UNL     1       3.142   7.021  18.056  0.00  0.00    +0.000 A 
ATOM     18  C   UNL     1       2.566   8.286  17.835  0.00  0.00    +0.000 A 
ATOM     19  C   UNL     1       1.725   8.878  18.790  0.00  0.00    +0.000 A 
ATOM     20  C   UNL     1       1.565   8.198  20.011  0.00  0.00    +0.000 A 
ATOM     21  C   UNL     1       2.105   6.918  20.211  0.00  0.00    +0.000 A 
BRANCH  16  23
ATOM     22  C   UNL     1       4.847   4.998  19.047  0.00  0.00    +0.000 C 
ATOM     23  O   UNL     1       3.451   5.071  19.335  0.00  0.00    +0.000 OA
ENDBRANCH  16  23
ENDBRANCH  15  19
ENDBRANCH   1  15
TORSDOF 5
ENDMDL
MODEL 2
REMARK VINA RESULT:      -6.2      0.619      1.175
REMARK  Name = 
REMARK  9 active torsions:
REMARK  status: ('A' for Active; 'I' for Inactive)
REMARK    1  A    between atoms: C_1  and  O_2
REMARK    2  A    between atoms: O_2  and  C_3
REMARK    3  A    between atoms: C_6  and  C_7
REMARK    4  A    between atoms: C_7  and  N_8
REMARK    5  A    between atoms: N_8  and  C_9
REMARK    6  A    between atoms: C_13  and  S_14
REMARK    7  A    between atoms: S_14  and  C_15
REMARK    8  A    between atoms: N_18  and  C_19
REMARK    9  A    between atoms: N_18  and  C_20
REMARK                            x       y       z     vdW  Elec       q    Type
REMARK                         _______ _______ _______ _____ _____    ______ ____
ROOT
ATOM      1  N   UNL     1       0.467  10.980  19.699  0.00  0.00    +0.000 N 
ATOM      2  C   UNL     1      -0.907  11.252  19.527  0.00  0.00    +0.000 A 
ATOM      3  N   UNL     1      -1.558  11.908  20.482  0.00  0.00    +0.000 NA
ATOM      4  C   UNL     1      -2.787  12.303  20.180  0.00  0.00    +0.000 A 
ATOM      5  N   UNL     1      -3.407  12.049  19.034  0.00  0.00    +0.000 NA
ATOM      6  C   UNL     1      -2.740  11.321  18.155  0.00  0.00    +0.000 A 
ATOM      7  N   UNL     1      -3.304  11.060  16.926  0.00  0.00    +0.000 N 
ATOM      8  C   UNL     1      -4.628  11.554  16.595  0.00  0.00    +0.000 C 
ATOM      9  C   UNL     1      -2.702  10.103  16.018  0.00  0.00    +0.000 C 
ATOM     10  N   UNL     1      -1.502  10.892  18.388  0.00  0.00    +0.000 NA
ENDROOT
BRANCH   1  11
ATOM     11  C   UNL     1       1.163  11.985  20.489  0.00  0.00    +0.000 C 
ATOM     12  N   UNL     1       1.778  12.699  21.149  0.00  0.00    +0.000 NA
ENDBRANCH   1  11
BRANCH   4  13
ATOM     13  S   UNL     1      -3.671  13.358  21.313  0.00  0.00    +0.000 S 
ATOM     14  C   UNL     1      -3.114  12.708  22.910  0.00  0.00    +0.000 C 
ENDBRANCH   4  13
BRANCH   1  15
ATOM     15  C   UNL     1       1.099  10.313  18.558  0.00  0.00    +0.000 C 
BRANCH  15  19
ATOM     16  C   UNL     1       2.932   6.400  19.242  0.00  0.00    +0.000 A 
ATOM     17  C   UNL     1       2.116   6.988  20.207  0.00  0.00    +0.000 A 
ATOM     18  C   UNL     1       1.525   8.245  19.982  0.00  0.00    +0.000 A 
ATOM     19  C   UNL     1       1.739   8.945  18.784  0.00  0.00    +0.000 A 
ATOM     20  C   UNL     1       2.484   8.292  17.786  0.00  0.00    +0.000 A 
ATOM     21  C   UNL     1       3.106   7.058  18.029  0.00  0.00    +0.000 A 
BRANCH  16  23
ATOM     22  C   UNL     1       4.174   4.524  18.508  0.00  0.00    +0.000 C 
ATOM     23  O   UNL     1       3.506   5.201  19.572  0.00  0.00    +0.000 OA
ENDBRANCH  16  23
ENDBRANCH  15  19
ENDBRANCH   1  15
TORSDOF 5
ENDMDL
MODEL 3
REMARK VINA RESULT:      -6.0      1.071      1.481
REMARK  Name = 
REMARK  9 active torsions:
REMARK  status: ('A' for Active; 'I' for Inactive)
REMARK    1  A    between atoms: C_1  and  O_2
REMARK    2  A    between atoms: O_2  and  C_3
REMARK    3  A    between atoms: C_6  and  C_7
REMARK    4  A    between atoms: C_7  and  N_8
REMARK    5  A    between atoms: N_8  and  C_9
REMARK    6  A    between atoms: C_13  and  S_14
REMARK    7  A    between atoms: S_14  and  C_15
REMARK    8  A    between atoms: N_18  and  C_19
REMARK    9  A    between atoms: N_18  and  C_20
REMARK                            x       y       z     vdW  Elec       q    Type
REMARK                         _______ _______ _______ _____ _____    ______ ____
ROOT
ATOM      1  N   UNL     1      -0.101  11.591  20.053  0.00  0.00    +0.000 N 
ATOM      2  C   UNL     1      -1.495  11.773  19.933  0.00  0.00    +0.000 A 
ATOM      3  N   UNL     1      -2.154  12.364  20.924  0.00  0.00    +0.000 NA
ATOM      4  C   UNL     1      -3.417  12.682  20.672  0.00  0.00    +0.000 A 
ATOM      5  N   UNL     1      -4.058  12.411  19.542  0.00  0.00    +0.000 NA
ATOM      6  C   UNL     1      -3.375  11.747  18.625  0.00  0.00    +0.000 A 
ATOM      7  N   UNL     1      -3.963  11.473  17.410  0.00  0.00    +0.000 N 
ATOM      8  C   UNL     1      -5.328  11.883  17.134  0.00  0.00    +0.000 C 
ATOM      9  C   UNL     1      -3.331  10.577  16.461  0.00  0.00    +0.000 C 
ATOM     10  N   UNL     1      -2.103  11.397  18.807  0.00  0.00    +0.000 NA
ENDROOT
BRANCH   1  11
ATOM     11  C   UNL     1       0.554  12.623  20.842  0.00  0.00    +0.000 C 
ATOM     12  N   UNL     1       1.018  13.401  21.551  0.00  0.00    +0.000 NA
ENDBRANCH   1  11
BRANCH   4  13
ATOM     13  S   UNL     1      -4.328  13.652  21.857  0.00  0.00    +0.000 S 
ATOM     14  C   UNL     1      -6.021  13.080  21.558  0.00  0.00    +0.000 C 
ENDBRANCH   4  13
BRANCH   1  15
ATOM     15  C   UNL     1       0.534  10.991  18.876  0.00  0.00    +0.000 C 
BRANCH  15  19
ATOM     16  C   UNL     1       2.430   7.076  19.354  0.00  0.00    +0.000 A 
ATOM     17  C   UNL     1       1.764   7.685  20.416  0.00  0.00    +0.000 A 
ATOM     18  C   UNL     1       1.153   8.942  20.258  0.00  0.00    +0.000 A 
ATOM     19  C   UNL     1       1.194   9.622  19.031  0.00  0.00    +0.000 A 
ATOM     20  C   UNL     1       1.785   8.949  17.947  0.00  0.00    +0.000 A 
ATOM     21  C   UNL     1       2.430   7.714  18.117  0.00  0.00    +0.000 A 
BRANCH  16  23
ATOM     22  C   UNL     1       2.255   4.934  20.343  0.00  0.00    +0.000 C 
ATOM     23  O   UNL     1       3.040   5.879  19.617  0.00  0.00    +0.000 OA
ENDBRANCH  16  23
ENDBRANCH  15  19
ENDBRANCH   1  15
TORSDOF 5
ENDMDL
MODEL 4
REMARK VINA RESULT:      -5.9      5.768      8.439
REMARK  Name = 
REMARK  9 active torsions:
REMARK  status: ('A' for Active; 'I' for Inactive)
REMARK    1  A    between atoms: C_1  and  O_2
REMARK    2  A    between atoms: O_2  and  C_3
REMARK    3  A    between atoms: C_6  and  C_7
REMARK    4  A    between atoms: C_7  and  N_8
REMARK    5  A    between atoms: N_8  and  C_9
REMARK    6  A    between atoms: C_13  and  S_14
REMARK    7  A    between atoms: S_14  and  C_15
REMARK    8  A    between atoms: N_18  and  C_19
REMARK    9  A    between atoms: N_18  and  C_20
REMARK                            x       y       z     vdW  Elec       q    Type
REMARK                         _______ _______ _______ _____ _____    ______ ____
ROOT
ATOM      1  N   UNL     1       6.268   5.678  18.094  0.00  0.00    +0.000 N 
ATOM      2  C   UNL     1       4.976   5.423  18.601  0.00  0.00    +0.000 A 
ATOM      3  N   UNL     1       4.291   6.423  19.147  0.00  0.00    +0.000 NA
ATOM      4  C   UNL     1       3.019   6.169  19.424  0.00  0.00    +0.000 A 
ATOM      5  N   UNL     1       2.419   4.999  19.241  0.00  0.00    +0.000 NA
ATOM      6  C   UNL     1       3.174   4.019  18.774  0.00  0.00    +0.000 A 
ATOM      7  N   UNL     1       2.607   2.792  18.515  0.00  0.00    +0.000 N 
ATOM      8  C   UNL     1       1.197   2.555  18.771  0.00  0.00    +0.000 C 
ATOM      9  C   UNL     1       3.430   1.641  18.200  0.00  0.00    +0.000 C 
ATOM     10  N   UNL     1       4.458   4.201  18.470  0.00  0.00    +0.000 NA
ENDROOT
BRANCH   1  11
ATOM     11  C   UNL     1       6.437   7.031  17.587  0.00  0.00    +0.000 C 
ATOM     12  N   UNL     1       6.675   8.093  17.212  0.00  0.00    +0.000 NA
ENDBRANCH   1  11
BRANCH   4  13
ATOM     13  S   UNL     1       1.962   7.495  19.972  0.00  0.00    +0.000 S 
ATOM     14  C   UNL     1       1.946   8.564  18.509  0.00  0.00    +0.000 C 
ENDBRANCH   4  13
BRANCH   1  15
ATOM     15  C   UNL     1       6.906   4.523  17.456  0.00  0.00    +0.000 C 
BRANCH  15  19
ATOM     16  C   UNL     1       6.282   3.903  13.169  0.00  0.00    +0.000 A 
ATOM     17  C   UNL     1       5.434   3.321  14.110  0.00  0.00    +0.000 A 
ATOM     18  C   UNL     1       5.635   3.525  15.487  0.00  0.00    +0.000 A 
ATOM     19  C   UNL     1       6.693   4.318  15.957  0.00  0.00    +0.000 A 
ATOM     20  C   UNL     1       7.477   4.975  14.993  0.00  0.00    +0.000 A 
ATOM     21  C   UNL     1       7.300   4.736  13.621  0.00  0.00    +0.000 A 
BRANCH  16  23
ATOM     22  C   UNL     1       4.723   3.138  11.562  0.00  0.00    +0.000 C 
ATOM     23  O   UNL     1       6.040   3.603  11.855  0.00  0.00    +0.000 OA
ENDBRANCH  16  23
ENDBRANCH  15  19
ENDBRANCH   1  15
TORSDOF 5
ENDMDL
MODEL 5
REMARK VINA RESULT:      -5.9      1.036      1.070
REMARK  Name = 
REMARK  9 active torsions:
REMARK  status: ('A' for Active; 'I' for Inactive)
REMARK    1  A    between atoms: C_1  and  O_2
REMARK    2  A    between atoms: O_2  and  C_3
REMARK    3  A    between atoms: C_6  and  C_7
REMARK    4  A    between atoms: C_7  and  N_8
REMARK    5  A    between atoms: N_8  and  C_9
REMARK    6  A    between atoms: C_13  and  S_14
REMARK    7  A    between atoms: S_14  and  C_15
REMARK    8  A    between atoms: N_18  and  C_19
REMARK    9  A    between atoms: N_18  and  C_20
REMARK                            x       y       z     vdW  Elec       q    Type
REMARK                         _______ _______ _______ _____ _____    ______ ____
ROOT
ATOM      1  N   UNL     1      -0.169  11.545  20.036  0.00  0.00    +0.000 N 
ATOM      2  C   UNL     1      -1.561  11.758  19.945  0.00  0.00    +0.000 A 
ATOM      3  N   UNL     1      -2.191  12.337  20.962  0.00  0.00    +0.000 NA
ATOM      4  C   UNL     1      -3.451  12.687  20.740  0.00  0.00    +0.000 A 
ATOM      5  N   UNL     1      -4.117  12.457  19.615  0.00  0.00    +0.000 NA
ATOM      6  C   UNL     1      -3.463  11.802  18.670  0.00  0.00    +0.000 A 
ATOM      7  N   UNL     1      -4.077  11.571  17.458  0.00  0.00    +0.000 N 
ATOM      8  C   UNL     1      -5.437  12.016  17.217  0.00  0.00    +0.000 C 
ATOM      9  C   UNL     1      -3.479  10.688  16.477  0.00  0.00    +0.000 C 
ATOM     10  N   UNL     1      -2.196  11.423  18.821  0.00  0.00    +0.000 NA
ENDROOT
BRANCH   1  11
ATOM     11  C   UNL     1       0.520  12.544  20.839  0.00  0.00    +0.000 C 
ATOM     12  N   UNL     1       0.988  13.319  21.549  0.00  0.00    +0.000 NA
ENDBRANCH   1  11
BRANCH   4  13
ATOM     13  S   UNL     1      -4.323  13.645  21.964  0.00  0.00    +0.000 S 
ATOM     14  C   UNL     1      -6.010  13.614  21.305  0.00  0.00    +0.000 C 
ENDBRANCH   4  13
BRANCH   1  15
ATOM     15  C   UNL     1       0.433  10.962  18.835  0.00  0.00    +0.000 C 
BRANCH  15  19
ATOM     16  C   UNL     1       2.492   7.116  19.173  0.00  0.00    +0.000 A 
ATOM     17  C   UNL     1       2.561   7.866  18.000  0.00  0.00    +0.000 A 
ATOM     18  C   UNL     1       1.900   9.104  17.895  0.00  0.00    +0.000 A 
ATOM     19  C   UNL     1       1.153   9.622  18.965  0.00  0.00    +0.000 A 
ATOM     20  C   UNL     1       1.178   8.899  20.171  0.00  0.00    +0.000 A 
ATOM     21  C   UNL     1       1.802   7.645  20.259  0.00  0.00    +0.000 A 
BRANCH  16  23
ATOM     22  C   UNL     1       3.002   5.155  17.952  0.00  0.00    +0.000 C 
ATOM     23  O   UNL     1       3.122   5.900  19.163  0.00  0.00    +0.000 OA
ENDBRANCH  16  23
ENDBRANCH  15  19
ENDBRANCH   1  15
TORSDOF 5
ENDMDL
MODEL 6
REMARK VINA RESULT:      -5.8      1.803      3.745
REMARK  Name = 
REMARK  9 active torsions:
REMARK  status: ('A' for Active; 'I' for Inactive)
REMARK    1  A    between atoms: C_1  and  O_2
REMARK    2  A    between atoms: O_2  and  C_3
REMARK    3  A    between atoms: C_6  and  C_7
REMARK    4  A    between atoms: C_7  and  N_8
REMARK    5  A    between atoms: N_8  and  C_9
REMARK    6  A    between atoms: C_13  and  S_14
REMARK    7  A    between atoms: S_14  and  C_15
REMARK    8  A    between atoms: N_18  and  C_19
REMARK    9  A    between atoms: N_18  and  C_20
REMARK                            x       y       z     vdW  Elec       q    Type
REMARK                         _______ _______ _______ _____ _____    ______ ____
ROOT
ATOM      1  N   UNL     1      -1.326  11.590  18.499  0.00  0.00    +0.000 N 
ATOM      2  C   UNL     1      -2.290  12.078  19.406  0.00  0.00    +0.000 A 
ATOM      3  N   UNL     1      -3.571  12.070  19.050  0.00  0.00    +0.000 NA
ATOM      4  C   UNL     1      -4.440  12.353  20.010  0.00  0.00    +0.000 A 
ATOM      5  N   UNL     1      -4.119  12.683  21.254  0.00  0.00    +0.000 NA
ATOM      6  C   UNL     1      -2.827  12.756  21.527  0.00  0.00    +0.000 A 
ATOM      7  N   UNL     1      -2.421  13.046  22.811  0.00  0.00    +0.000 N 
ATOM      8  C   UNL     1      -3.393  13.295  23.860  0.00  0.00    +0.000 C 
ATOM      9  C   UNL     1      -1.032  13.336  23.106  0.00  0.00    +0.000 C 
ATOM     10  N   UNL     1      -1.896  12.482  20.615  0.00  0.00    +0.000 NA
ENDROOT
BRANCH   1  11
ATOM     11  C   UNL     1      -1.827  10.537  17.628  0.00  0.00    +0.000 C 
ATOM     12  N   UNL     1      -2.307   9.771  16.916  0.00  0.00    +0.000 NA
ENDBRANCH   1  11
BRANCH   4  13
ATOM     13  S   UNL     1      -6.185  12.177  19.690  0.00  0.00    +0.000 S 
ATOM     14  C   UNL     1      -6.171  11.088  18.242  0.00  0.00    +0.000 C 
ENDBRANCH   4  13
BRANCH   1  15
ATOM     15  C   UNL     1       0.044  11.583  19.018  0.00  0.00    +0.000 C 
BRANCH  15  19
ATOM     16  C   UNL     1       2.004   7.712  19.588  0.00  0.00    +0.000 A 
ATOM     17  C   UNL     1       2.110   8.399  18.380  0.00  0.00    +0.000 A 
ATOM     18  C   UNL     1       1.482   9.645  18.201  0.00  0.00    +0.000 A 
ATOM     19  C   UNL     1       0.729  10.234  19.229  0.00  0.00    +0.000 A 
ATOM     20  C   UNL     1       0.716   9.573  20.470  0.00  0.00    +0.000 A 
ATOM     21  C   UNL     1       1.308   8.311  20.633  0.00  0.00    +0.000 A 
BRANCH  16  23
ATOM     22  C   UNL     1       1.909   5.496  20.412  0.00  0.00    +0.000 C 
ATOM     23  O   UNL     1       2.604   6.483  19.650  0.00  0.00    +0.000 OA
ENDBRANCH  16  23
ENDBRANCH  15  19
ENDBRANCH   1  15
TORSDOF 5
ENDMDL
MODEL 7
REMARK VINA RESULT:      -5.7      1.906      4.054
REMARK  Name = 
REMARK  9 active torsions:
REMARK  status: ('A' for Active; 'I' for Inactive)
REMARK    1  A    between atoms: C_1  and  O_2
REMARK    2  A    between atoms: O_2  and  C_3
REMARK    3  A    between atoms: C_6  and  C_7
REMARK    4  A    between atoms: C_7  and  N_8
REMARK    5  A    between atoms: N_8  and  C_9
REMARK    6  A    between atoms: C_13  and  S_14
REMARK    7  A    between atoms: S_14  and  C_15
REMARK    8  A    between atoms: N_18  and  C_19
REMARK    9  A    between atoms: N_18  and  C_20
REMARK                            x       y       z     vdW  Elec       q    Type
REMARK                         _______ _______ _______ _____ _____    ______ ____
ROOT
ATOM      1  N   UNL     1      -1.824  11.810  18.573  0.00  0.00    +0.000 N 
ATOM      2  C   UNL     1      -2.780  12.160  19.549  0.00  0.00    +0.000 A 
ATOM      3  N   UNL     1      -4.072  12.067  19.247  0.00  0.00    +0.000 NA
ATOM      4  C   UNL     1      -4.915  12.219  20.259  0.00  0.00    +0.000 A 
ATOM      5  N   UNL     1      -4.563  12.498  21.507  0.00  0.00    +0.000 NA
ATOM      6  C   UNL     1      -3.270  12.661  21.730  0.00  0.00    +0.000 A 
ATOM      7  N   UNL     1      -2.829  12.905  23.012  0.00  0.00    +0.000 N 
ATOM      8  C   UNL     1      -3.768  13.008  24.114  0.00  0.00    +0.000 C 
ATOM      9  C   UNL     1      -1.455  13.292  23.266  0.00  0.00    +0.000 C 
ATOM     10  N   UNL     1      -2.364  12.521  20.764  0.00  0.00    +0.000 NA
ENDROOT
BRANCH   1  11
ATOM     11  C   UNL     1      -2.279  10.774  17.658  0.00  0.00    +0.000 C 
ATOM     12  N   UNL     1      -2.595  10.013  16.855  0.00  0.00    +0.000 NA
ENDBRANCH   1  11
BRANCH   4  13
ATOM     13  S   UNL     1      -6.653  11.917  20.001  0.00  0.00    +0.000 S 
ATOM     14  C   UNL     1      -6.609  10.738  18.627  0.00  0.00    +0.000 C 
ENDBRANCH   4  13
BRANCH   1  15
ATOM     15  C   UNL     1      -0.435  11.885  19.033  0.00  0.00    +0.000 C 
BRANCH  15  19
ATOM     16  C   UNL     1       1.785   8.153  19.574  0.00  0.00    +0.000 A 
ATOM     17  C   UNL     1       0.987   8.668  20.594  0.00  0.00    +0.000 A 
ATOM     18  C   UNL     1       0.272   9.866  20.416  0.00  0.00    +0.000 A 
ATOM     19  C   UNL     1       0.339  10.580  19.209  0.00  0.00    +0.000 A 
ATOM     20  C   UNL     1       1.069   9.994  18.160  0.00  0.00    +0.000 A 
ATOM     21  C   UNL     1       1.815   8.821  18.354  0.00  0.00    +0.000 A 
BRANCH  16  23
ATOM     22  C   UNL     1       3.056   6.342  18.735  0.00  0.00    +0.000 C 
ATOM     23  O   UNL     1       2.485   7.010  19.858  0.00  0.00    +0.000 OA
ENDBRANCH  16  23
ENDBRANCH  15  19
ENDBRANCH   1  15
TORSDOF 5
ENDMDL
MODEL 8
REMARK VINA RESULT:      -5.7      2.023      3.845
REMARK  Name = 
REMARK  9 active torsions:
REMARK  status: ('A' for Active; 'I' for Inactive)
REMARK    1  A    between atoms: C_1  and  O_2
REMARK    2  A    between atoms: O_2  and  C_3
REMARK    3  A    between atoms: C_6  and  C_7
REMARK    4  A    between atoms: C_7  and  N_8
REMARK    5  A    between atoms: N_8  and  C_9
REMARK    6  A    between atoms: C_13  and  S_14
REMARK    7  A    between atoms: S_14  and  C_15
REMARK    8  A    between atoms: N_18  and  C_19
REMARK    9  A    between atoms: N_18  and  C_20
REMARK                            x       y       z     vdW  Elec       q    Type
REMARK                         _______ _______ _______ _____ _____    ______ ____
ROOT
ATOM      1  N   UNL     1      -1.910  11.665  18.023  0.00  0.00    +0.000 N 
ATOM      2  C   UNL     1      -3.000  12.012  18.849  0.00  0.00    +0.000 A 
ATOM      3  N   UNL     1      -4.235  11.833  18.393  0.00  0.00    +0.000 NA
ATOM      4  C   UNL     1      -5.209  11.991  19.280  0.00  0.00    +0.000 A 
ATOM      5  N   UNL     1      -5.034  12.354  20.544  0.00  0.00    +0.000 NA
ATOM      6  C   UNL     1      -3.790  12.600  20.918  0.00  0.00    +0.000 A 
ATOM      7  N   UNL     1      -3.530  12.934  22.228  0.00  0.00    +0.000 N 
ATOM      8  C   UNL     1      -4.606  13.043  23.195  0.00  0.00    +0.000 C 
ATOM      9  C   UNL     1      -2.220  13.408  22.630  0.00  0.00    +0.000 C 
ATOM     10  N   UNL     1      -2.761  12.459  20.084  0.00  0.00    +0.000 NA
ENDROOT
BRANCH   1  11
ATOM     11  C   UNL     1      -2.194  10.559  17.121  0.00  0.00    +0.000 C 
ATOM     12  N   UNL     1      -2.519   9.723  16.400  0.00  0.00    +0.000 NA
ENDBRANCH   1  11
BRANCH   4  13
ATOM     13  S   UNL     1      -6.882  11.582  18.823  0.00  0.00    +0.000 S 
ATOM     14  C   UNL     1      -7.453  10.713  20.307  0.00  0.00    +0.000 C 
ENDBRANCH   4  13
BRANCH   1  15
ATOM     15  C   UNL     1      -0.596  11.840  18.649  0.00  0.00    +0.000 C 
BRANCH  15  19
ATOM     16  C   UNL     1       1.680   8.248  19.684  0.00  0.00    +0.000 A 
ATOM     17  C   UNL     1       1.806   8.841  18.429  0.00  0.00    +0.000 A 
ATOM     18  C   UNL     1       1.075   9.998  18.100  0.00  0.00    +0.000 A 
ATOM     19  C   UNL     1       0.198  10.590  19.023  0.00  0.00    +0.000 A 
ATOM     20  C   UNL     1       0.159  10.035  20.314  0.00  0.00    +0.000 A 
ATOM     21  C   UNL     1       0.856   8.858  20.626  0.00  0.00    +0.000 A 
BRANCH  16  23
ATOM     22  C   UNL     1       2.907   6.470  18.720  0.00  0.00    +0.000 C 
ATOM     23  O   UNL     1       2.389   7.096  19.893  0.00  0.00    +0.000 OA
ENDBRANCH  16  23
ENDBRANCH  15  19
ENDBRANCH   1  15
TORSDOF 5
ENDMDL
MODEL 9
REMARK VINA RESULT:      -5.6      4.297      7.591
REMARK  Name = 
REMARK  9 active torsions:
REMARK  status: ('A' for Active; 'I' for Inactive)
REMARK    1  A    between atoms: C_1  and  O_2
REMARK    2  A    between atoms: O_2  and  C_3
REMARK    3  A    between atoms: C_6  and  C_7
REMARK    4  A    between atoms: C_7  and  N_8
REMARK    5  A    between atoms: N_8  and  C_9
REMARK    6  A    between atoms: C_13  and  S_14
REMARK    7  A    between atoms: S_14  and  C_15
REMARK    8  A    between atoms: N_18  and  C_19
REMARK    9  A    between atoms: N_18  and  C_20
REMARK                            x       y       z     vdW  Elec       q    Type
REMARK                         _______ _______ _______ _____ _____    ______ ____
ROOT
ATOM      1  N   UNL     1       1.383   8.398  20.543  0.00  0.00    +0.000 N 
ATOM      2  C   UNL     1       2.040   7.190  20.225  0.00  0.00    +0.000 A 
ATOM      3  N   UNL     1       1.906   6.151  21.044  0.00  0.00    +0.000 NA
ATOM      4  C   UNL     1       2.380   4.997  20.595  0.00  0.00    +0.000 A 
ATOM      5  N   UNL     1       3.003   4.829  19.436  0.00  0.00    +0.000 NA
ATOM      6  C   UNL     1       3.181   5.915  18.703  0.00  0.00    +0.000 A 
ATOM      7  N   UNL     1       3.778   5.808  17.466  0.00  0.00    +0.000 N 
ATOM      8  C   UNL     1       4.235   4.522  16.971  0.00  0.00    +0.000 C 
ATOM      9  C   UNL     1       4.174   6.988  16.725  0.00  0.00    +0.000 C 
ATOM     10  N   UNL     1       2.729   7.108  19.087  0.00  0.00    +0.000 NA
ENDROOT
BRANCH   1  11
ATOM     11  C   UNL     1       0.139   8.209  21.274  0.00  0.00    +0.000 C 
ATOM     12  N   UNL     1      -0.802   8.121  21.930  0.00  0.00    +0.000 NA
ENDBRANCH   1  11
BRANCH   4  13
ATOM     13  S   UNL     1       2.076   3.507  21.525  0.00  0.00    +0.000 S 
ATOM     14  C   UNL     1       1.797   2.309  20.195  0.00  0.00    +0.000 C 
ENDBRANCH   4  13
BRANCH   1  15
ATOM     15  C   UNL     1       1.543   9.455  19.541  0.00  0.00    +0.000 C 
BRANCH  15  19
ATOM     16  C   UNL     1      -2.072  11.227  17.826  0.00  0.00    +0.000 A 
ATOM     17  C   UNL     1      -1.399  11.846  18.878  0.00  0.00    +0.000 A 
ATOM     18  C   UNL     1      -0.236  11.275  19.425  0.00  0.00    +0.000 A 
ATOM     19  C   UNL     1       0.284  10.068  18.931  0.00  0.00    +0.000 A 
ATOM     20  C   UNL     1      -0.352   9.511  17.807  0.00  0.00    +0.000 A 
ATOM     21  C   UNL     1      -1.536  10.060  17.291  0.00  0.00    +0.000 A 
BRANCH  16  23
ATOM     22  C   UNL     1      -4.356  10.968  17.263  0.00  0.00    +0.000 C 
ATOM     23  O   UNL     1      -3.225  11.828  17.395  0.00  0.00    +0.000 OA
ENDBRANCH  16  23
ENDBRANCH  15  19
ENDBRANCH   1  15
TORSDOF 5
ENDMDL
