MODEL 1
REMARK VINA RESULT:      -7.7      0.000      0.000
REMARK  Name = 
REMARK  6 active torsions:
REMARK  status: ('A' for Active; 'I' for Inactive)
REMARK    1  A    between atoms: C_2  and  C_17
REMARK    2  A    between atoms: N_3  and  C_4
REMARK    3  A    between atoms: C_9  and  N_10
REMARK    4  A    between atoms: C_13  and  C_14
REMARK    5  A    between atoms: C_14  and  O_15
REMARK    6  A    between atoms: C_20  and  N_21
REMARK                            x       y       z     vdW  Elec       q    Type
REMARK                         _______ _______ _______ _____ _____    ______ ____
ROOT
ATOM      1  C   UNL     1       2.501   4.523  18.087  0.00  0.00    +0.000 A 
ATOM      2  C   UNL     1       1.455   3.626  18.372  0.00  0.00    +0.000 A 
ATOM      3  C   UNL     1       1.691   2.261  18.479  0.00  0.00    +0.000 A 
ATOM      4  C   UNL     1       2.983   1.784  18.314  0.00  0.00    +0.000 A 
ATOM      5  C   UNL     1       4.029   2.671  18.025  0.00  0.00    +0.000 A 
ATOM      6  C   UNL     1       3.825   4.059  17.881  0.00  0.00    +0.000 A 
ENDROOT
BRANCH   6   7
ATOM      7  N   UNL     1       4.883   4.956  17.620  0.00  0.00    +0.000 N 
ATOM      8  C   UNL     1       5.610   4.892  16.337  0.00  0.00    +0.000 C 
ATOM      9  C   UNL     1       7.057   4.595  16.713  0.00  0.00    +0.000 C 
ATOM     10  C   UNL     1       7.222   5.300  18.055  0.00  0.00    +0.000 C 
ATOM     11  C   UNL     1       5.862   5.072  18.727  0.00  0.00    +0.000 C 
BRANCH  10  12
ATOM     12  C   UNL     1       7.553   6.784  17.906  0.00  0.00    +0.000 C 
BRANCH  12  13
ATOM     13  O   UNL     1       7.831   7.095  16.543  0.00  0.00    +0.000 OA
ATOM     14  H   UNL     1       7.264   6.536  15.985  0.00  0.00    +0.000 HD
ENDBRANCH  12  13
ENDBRANCH  10  12
ENDBRANCH   6   7
BRANCH   1  17
ATOM     15  O   UNL     1       2.692   6.361  20.174  0.00  0.00    +0.000 OA
ATOM     16  C   UNL     1       2.272   6.740  19.079  0.00  0.00    +0.000 C 
ATOM     17  N   UNL     1       2.190   5.905  17.977  0.00  0.00    +0.000 N 
ATOM     18  H   UNL     1       2.266   6.311  17.051  0.00  0.00    +0.000 HD
BRANCH  16  19
ATOM     19  C   UNL     1       1.895   8.131  18.900  0.00  0.00    +0.000 A 
ATOM     20  C   UNL     1       2.214   8.966  17.841  0.00  0.00    +0.000 A 
ATOM     21  C   UNL     1       1.771  10.263  18.179  0.00  0.00    +0.000 A 
ATOM     22  C   UNL     1       1.196  10.132  19.421  0.00  0.00    +0.000 A 
ATOM     23  O   UNL     1       1.229   8.841  19.869  0.00  0.00    +0.000 OA
BRANCH  22  24
ATOM     24  N   UNL     1       0.631  11.118  20.288  0.00  0.00    +0.000 N 
ATOM     25  O   UNL     1      -0.427  11.640  19.910  0.00  0.00    +0.000 OA
ATOM     26  O   UNL     1       1.233  11.373  21.342  0.00  0.00    +0.000 OA
ENDBRANCH  22  24
ENDBRANCH  16  19
ENDBRANCH   1  17
TORSDOF 6
ENDMDL
MODEL 2
REMARK VINA RESULT:      -7.4      1.146      1.492
REMARK  Name = 
REMARK  6 active torsions:
REMARK  status: ('A' for Active; 'I' for Inactive)
REMARK    1  A    between atoms: C_2  and  C_17
REMARK    2  A    between atoms: N_3  and  C_4
REMARK    3  A    between atoms: C_9  and  N_10
REMARK    4  A    between atoms: C_13  and  C_14
REMARK    5  A    between atoms: C_14  and  O_15
REMARK    6  A    between atoms: C_20  and  N_21
REMARK                            x       y       z     vdW  Elec       q    Type
REMARK                         _______ _______ _______ _____ _____    ______ ____
ROOT
ATOM      1  C   UNL     1       2.492   4.699  18.376  0.00  0.00    +0.000 A 
ATOM      2  C   UNL     1       1.479   3.729  18.505  0.00  0.00    +0.000 A 
ATOM      3  C   UNL     1       1.725   2.394  18.211  0.00  0.00    +0.000 A 
ATOM      4  C   UNL     1       2.993   2.015  17.797  0.00  0.00    +0.000 A 
ATOM      5  C   UNL     1       4.005   2.975  17.662  0.00  0.00    +0.000 A 
ATOM      6  C   UNL     1       3.788   4.344  17.924  0.00  0.00    +0.000 A 
ENDROOT
BRANCH   6   7
ATOM      7  N   UNL     1       4.815   5.307  17.817  0.00  0.00    +0.000 N 
ATOM      8  C   UNL     1       5.101   5.943  16.516  0.00  0.00    +0.000 C 
ATOM      9  C   UNL     1       6.548   5.577  16.204  0.00  0.00    +0.000 C 
ATOM     10  C   UNL     1       7.198   5.512  17.581  0.00  0.00    +0.000 C 
ATOM     11  C   UNL     1       6.092   4.899  18.449  0.00  0.00    +0.000 C 
BRANCH  10  12
ATOM     12  C   UNL     1       7.642   6.883  18.091  0.00  0.00    +0.000 C 
BRANCH  12  13
ATOM     13  O   UNL     1       7.822   7.782  17.000  0.00  0.00    +0.000 OA
ATOM     14  H   UNL     1       8.486   7.400  16.401  0.00  0.00    +0.000 HD
ENDBRANCH  12  13
ENDBRANCH  10  12
ENDBRANCH   6   7
BRANCH   1  17
ATOM     15  O   UNL     1       2.219   5.722  20.954  0.00  0.00    +0.000 OA
ATOM     16  C   UNL     1       2.013   6.463  19.991  0.00  0.00    +0.000 C 
ATOM     17  N   UNL     1       2.172   6.049  18.679  0.00  0.00    +0.000 N 
ATOM     18  H   UNL     1       2.418   6.738  17.976  0.00  0.00    +0.000 HD
BRANCH  16  19
ATOM     19  C   UNL     1       1.641   7.848  20.221  0.00  0.00    +0.000 A 
ATOM     20  C   UNL     1       1.205   8.423  21.404  0.00  0.00    +0.000 A 
ATOM     21  C   UNL     1       0.808   9.744  21.109  0.00  0.00    +0.000 A 
ATOM     22  C   UNL     1       1.042   9.896  19.763  0.00  0.00    +0.000 A 
ATOM     23  O   UNL     1       1.578   8.770  19.205  0.00  0.00    +0.000 OA
BRANCH  22  24
ATOM     24  N   UNL     1       0.778  11.002  18.896  0.00  0.00    +0.000 N 
ATOM     25  O   UNL     1       1.739  11.740  18.640  0.00  0.00    +0.000 OA
ATOM     26  O   UNL     1      -0.378  11.136  18.468  0.00  0.00    +0.000 OA
ENDBRANCH  22  24
ENDBRANCH  16  19
ENDBRANCH   1  17
TORSDOF 6
ENDMDL
MODEL 3
REMARK VINA RESULT:      -7.3      1.498      1.581
REMARK  Name = 
REMARK  6 active torsions:
REMARK  status: ('A' for Active; 'I' for Inactive)
REMARK    1  A    between atoms: C_2  and  C_17
REMARK    2  A    between atoms: N_3  and  C_4
REMARK    3  A    between atoms: C_9  and  N_10
REMARK    4  A    between atoms: C_13  and  C_14
REMARK    5  A    between atoms: C_14  and  O_15
REMARK    6  A    between atoms: C_20  and  N_21
REMARK                            x       y       z     vdW  Elec       q    Type
REMARK                         _______ _______ _______ _____ _____    ______ ____
ROOT
ATOM      1  C   UNL     1       3.231   5.020  20.012  0.00  0.00    +0.000 A 
ATOM      2  C   UNL     1       2.417   4.097  20.694  0.00  0.00    +0.000 A 
ATOM      3  C   UNL     1       2.765   2.754  20.770  0.00  0.00    +0.000 A 
ATOM      4  C   UNL     1       3.941   2.326  20.174  0.00  0.00    +0.000 A 
ATOM      5  C   UNL     1       4.755   3.238  19.488  0.00  0.00    +0.000 A 
ATOM      6  C   UNL     1       4.422   4.604  19.365  0.00  0.00    +0.000 A 
ENDROOT
BRANCH   6   7
ATOM      7  N   UNL     1       5.257   5.529  18.701  0.00  0.00    +0.000 N 
ATOM      8  C   UNL     1       5.294   5.567  17.226  0.00  0.00    +0.000 C 
ATOM      9  C   UNL     1       6.740   5.258  16.856  0.00  0.00    +0.000 C 
ATOM     10  C   UNL     1       7.534   5.864  18.008  0.00  0.00    +0.000 C 
ATOM     11  C   UNL     1       6.643   5.572  19.223  0.00  0.00    +0.000 C 
BRANCH  10  12
ATOM     12  C   UNL     1       7.794   7.359  17.826  0.00  0.00    +0.000 C 
BRANCH  12  13
ATOM     13  O   UNL     1       8.611   7.852  18.883  0.00  0.00    +0.000 OA
ATOM     14  H   UNL     1       9.197   7.132  19.172  0.00  0.00    +0.000 HD
ENDBRANCH  12  13
ENDBRANCH  10  12
ENDBRANCH   6   7
BRANCH   1  17
ATOM     15  O   UNL     1       1.905   6.186  17.855  0.00  0.00    +0.000 OA
ATOM     16  C   UNL     1       2.196   6.885  18.828  0.00  0.00    +0.000 C 
ATOM     17  N   UNL     1       2.812   6.376  19.959  0.00  0.00    +0.000 N 
ATOM     18  H   UNL     1       2.646   6.831  20.850  0.00  0.00    +0.000 HD
BRANCH  16  19
ATOM     19  C   UNL     1       1.837   8.292  18.830  0.00  0.00    +0.000 A 
ATOM     20  C   UNL     1       2.016   9.214  17.811  0.00  0.00    +0.000 A 
ATOM     21  C   UNL     1       1.669  10.482  18.323  0.00  0.00    +0.000 A 
ATOM     22  C   UNL     1       1.286  10.249  19.623  0.00  0.00    +0.000 A 
ATOM     23  O   UNL     1       1.347   8.923  19.947  0.00  0.00    +0.000 OA
BRANCH  22  24
ATOM     24  N   UNL     1       0.888  11.162  20.648  0.00  0.00    +0.000 N 
ATOM     25  O   UNL     1       0.876  10.718  21.805  0.00  0.00    +0.000 OA
ATOM     26  O   UNL     1       0.590  12.317  20.309  0.00  0.00    +0.000 OA
ENDBRANCH  22  24
ENDBRANCH  16  19
ENDBRANCH   1  17
TORSDOF 6
ENDMDL
MODEL 4
REMARK VINA RESULT:      -7.2      2.084      4.148
REMARK  Name = 
REMARK  6 active torsions:
REMARK  status: ('A' for Active; 'I' for Inactive)
REMARK    1  A    between atoms: C_2  and  C_17
REMARK    2  A    between atoms: N_3  and  C_4
REMARK    3  A    between atoms: C_9  and  N_10
REMARK    4  A    between atoms: C_13  and  C_14
REMARK    5  A    between atoms: C_14  and  O_15
REMARK    6  A    between atoms: C_20  and  N_21
REMARK                            x       y       z     vdW  Elec       q    Type
REMARK                         _______ _______ _______ _____ _____    ______ ____
ROOT
ATOM      1  C   UNL     1       4.020   6.263  17.719  0.00  0.00    +0.000 A 
ATOM      2  C   UNL     1       4.708   7.072  16.794  0.00  0.00    +0.000 A 
ATOM      3  C   UNL     1       5.386   6.512  15.720  0.00  0.00    +0.000 A 
ATOM      4  C   UNL     1       5.372   5.136  15.553  0.00  0.00    +0.000 A 
ATOM      5  C   UNL     1       4.694   4.323  16.473  0.00  0.00    +0.000 A 
ATOM      6  C   UNL     1       4.016   4.851  17.592  0.00  0.00    +0.000 A 
ENDROOT
BRANCH   6   7
ATOM      7  N   UNL     1       3.308   4.036  18.501  0.00  0.00    +0.000 N 
ATOM      8  C   UNL     1       3.926   2.803  19.028  0.00  0.00    +0.000 C 
ATOM      9  C   UNL     1       3.004   1.674  18.580  0.00  0.00    +0.000 C 
ATOM     10  C   UNL     1       1.624   2.323  18.590  0.00  0.00    +0.000 C 
ATOM     11  C   UNL     1       1.915   3.743  18.089  0.00  0.00    +0.000 C 
BRANCH  10  12
ATOM     12  C   UNL     1       0.979   2.317  19.975  0.00  0.00    +0.000 C 
BRANCH  12  13
ATOM     13  O   UNL     1       0.455   3.606  20.283  0.00  0.00    +0.000 OA
ATOM     14  H   UNL     1      -0.488   3.504  20.498  0.00  0.00    +0.000 HD
ENDBRANCH  12  13
ENDBRANCH  10  12
ENDBRANCH   6   7
BRANCH   1  17
ATOM     15  O   UNL     1       1.809   7.940  17.463  0.00  0.00    +0.000 OA
ATOM     16  C   UNL     1       2.290   7.751  18.582  0.00  0.00    +0.000 C 
ATOM     17  N   UNL     1       3.357   6.897  18.804  0.00  0.00    +0.000 N 
ATOM     18  H   UNL     1       3.440   6.444  19.708  0.00  0.00    +0.000 HD
BRANCH  16  19
ATOM     19  C   UNL     1       1.692   8.397  19.736  0.00  0.00    +0.000 A 
ATOM     20  C   UNL     1       1.447   7.846  20.984  0.00  0.00    +0.000 A 
ATOM     21  C   UNL     1       0.710   8.793  21.726  0.00  0.00    +0.000 A 
ATOM     22  C   UNL     1       0.564   9.871  20.885  0.00  0.00    +0.000 A 
ATOM     23  O   UNL     1       1.179   9.670  19.681  0.00  0.00    +0.000 OA
BRANCH  22  24
ATOM     24  N   UNL     1      -0.142  11.100  21.069  0.00  0.00    +0.000 N 
ATOM     25  O   UNL     1       0.222  11.805  22.021  0.00  0.00    +0.000 OA
ATOM     26  O   UNL     1      -1.053  11.367  20.271  0.00  0.00    +0.000 OA
ENDBRANCH  22  24
ENDBRANCH  16  19
ENDBRANCH   1  17
TORSDOF 6
ENDMDL
MODEL 5
REMARK VINA RESULT:      -7.2      3.333      7.057
REMARK  Name = 
REMARK  6 active torsions:
REMARK  status: ('A' for Active; 'I' for Inactive)
REMARK    1  A    between atoms: C_2  and  C_17
REMARK    2  A    between atoms: N_3  and  C_4
REMARK    3  A    between atoms: C_9  and  N_10
REMARK    4  A    between atoms: C_13  and  C_14
REMARK    5  A    between atoms: C_14  and  O_15
REMARK    6  A    between atoms: C_20  and  N_21
REMARK                            x       y       z     vdW  Elec       q    Type
REMARK                         _______ _______ _______ _____ _____    ______ ____
ROOT
ATOM      1  C   UNL     1       2.756   6.963  18.160  0.00  0.00    +0.000 A 
ATOM      2  C   UNL     1       2.626   8.336  17.879  0.00  0.00    +0.000 A 
ATOM      3  C   UNL     1       1.981   9.190  18.764  0.00  0.00    +0.000 A 
ATOM      4  C   UNL     1       1.471   8.678  19.947  0.00  0.00    +0.000 A 
ATOM      5  C   UNL     1       1.591   7.310  20.232  0.00  0.00    +0.000 A 
ATOM      6  C   UNL     1       2.215   6.406  19.346  0.00  0.00    +0.000 A 
ENDROOT
BRANCH   6   7
ATOM      7  N   UNL     1       2.364   5.035  19.646  0.00  0.00    +0.000 N 
ATOM      8  C   UNL     1       1.469   4.039  19.024  0.00  0.00    +0.000 C 
ATOM      9  C   UNL     1       0.753   3.365  20.189  0.00  0.00    +0.000 C 
ATOM     10  C   UNL     1       1.795   3.388  21.302  0.00  0.00    +0.000 C 
ATOM     11  C   UNL     1       2.482   4.744  21.094  0.00  0.00    +0.000 C 
BRANCH  10  12
ATOM     12  C   UNL     1       2.778   2.221  21.215  0.00  0.00    +0.000 C 
BRANCH  12  13
ATOM     13  O   UNL     1       4.047   2.675  20.755  0.00  0.00    +0.000 OA
ATOM     14  H   UNL     1       4.479   3.152  21.484  0.00  0.00    +0.000 HD
ENDBRANCH  12  13
ENDBRANCH  10  12
ENDBRANCH   6   7
BRANCH   1  17
ATOM     15  O   UNL     1       5.510   6.927  17.732  0.00  0.00    +0.000 OA
ATOM     16  C   UNL     1       4.786   6.219  17.030  0.00  0.00    +0.000 C 
ATOM     17  N   UNL     1       3.415   6.141  17.207  0.00  0.00    +0.000 N 
ATOM     18  H   UNL     1       2.937   5.286  16.943  0.00  0.00    +0.000 HD
BRANCH  16  19
ATOM     19  C   UNL     1       5.383   5.381  16.005  0.00  0.00    +0.000 A 
ATOM     20  C   UNL     1       5.403   3.996  15.948  0.00  0.00    +0.000 A 
ATOM     21  C   UNL     1       6.231   3.631  14.865  0.00  0.00    +0.000 A 
ATOM     22  C   UNL     1       6.653   4.821  14.320  0.00  0.00    +0.000 A 
ATOM     23  O   UNL     1       6.127   5.900  14.974  0.00  0.00    +0.000 OA
BRANCH  22  24
ATOM     24  N   UNL     1       7.554   5.077  13.241  0.00  0.00    +0.000 N 
ATOM     25  O   UNL     1       8.481   5.865  13.476  0.00  0.00    +0.000 OA
ATOM     26  O   UNL     1       7.346   4.497  12.165  0.00  0.00    +0.000 OA
ENDBRANCH  22  24
ENDBRANCH  16  19
ENDBRANCH   1  17
TORSDOF 6
ENDMDL
MODEL 6
REMARK VINA RESULT:      -7.2      1.349      1.595
REMARK  Name = 
REMARK  6 active torsions:
REMARK  status: ('A' for Active; 'I' for Inactive)
REMARK    1  A    between atoms: C_2  and  C_17
REMARK    2  A    between atoms: N_3  and  C_4
REMARK    3  A    between atoms: C_9  and  N_10
REMARK    4  A    between atoms: C_13  and  C_14
REMARK    5  A    between atoms: C_14  and  O_15
REMARK    6  A    between atoms: C_20  and  N_21
REMARK                            x       y       z     vdW  Elec       q    Type
REMARK                         _______ _______ _______ _____ _____    ______ ____
ROOT
ATOM      1  C   UNL     1       2.559   4.496  18.488  0.00  0.00    +0.000 A 
ATOM      2  C   UNL     1       1.615   3.460  18.620  0.00  0.00    +0.000 A 
ATOM      3  C   UNL     1       1.949   2.146  18.321  0.00  0.00    +0.000 A 
ATOM      4  C   UNL     1       3.238   1.854  17.900  0.00  0.00    +0.000 A 
ATOM      5  C   UNL     1       4.182   2.881  17.762  0.00  0.00    +0.000 A 
ATOM      6  C   UNL     1       3.875   4.231  18.029  0.00  0.00    +0.000 A 
ENDROOT
BRANCH   6   7
ATOM      7  N   UNL     1       4.833   5.262  17.920  0.00  0.00    +0.000 N 
ATOM      8  C   UNL     1       4.975   6.010  16.655  0.00  0.00    +0.000 C 
ATOM      9  C   UNL     1       6.410   5.759  16.203  0.00  0.00    +0.000 C 
ATOM     10  C   UNL     1       7.174   5.632  17.517  0.00  0.00    +0.000 C 
ATOM     11  C   UNL     1       6.179   4.888  18.417  0.00  0.00    +0.000 C 
BRANCH  10  12
ATOM     12  C   UNL     1       7.580   6.986  18.098  0.00  0.00    +0.000 C 
BRANCH  12  13
ATOM     13  O   UNL     1       7.810   7.925  17.051  0.00  0.00    +0.000 OA
ATOM     14  H   UNL     1       7.523   7.521  16.215  0.00  0.00    +0.000 HD
ENDBRANCH  12  13
ENDBRANCH  10  12
ENDBRANCH   6   7
BRANCH   1  17
ATOM     15  O   UNL     1       2.179   5.477  21.069  0.00  0.00    +0.000 OA
ATOM     16  C   UNL     1       1.944   6.213  20.109  0.00  0.00    +0.000 C 
ATOM     17  N   UNL     1       2.151   5.821  18.797  0.00  0.00    +0.000 N 
ATOM     18  H   UNL     1       2.365   6.531  18.104  0.00  0.00    +0.000 HD
BRANCH  16  19
ATOM     19  C   UNL     1       1.482   7.569  20.343  0.00  0.00    +0.000 A 
ATOM     20  C   UNL     1       1.717   8.691  19.564  0.00  0.00    +0.000 A 
ATOM     21  C   UNL     1       1.214   9.806  20.267  0.00  0.00    +0.000 A 
ATOM     22  C   UNL     1       0.689   9.289  21.428  0.00  0.00    +0.000 A 
ATOM     23  O   UNL     1       0.810   7.929  21.486  0.00  0.00    +0.000 OA
BRANCH  22  24
ATOM     24  N   UNL     1       0.099   9.948  22.550  0.00  0.00    +0.000 N 
ATOM     25  O   UNL     1       0.558   9.656  23.663  0.00  0.00    +0.000 OA
ATOM     26  O   UNL     1      -0.817  10.755  22.330  0.00  0.00    +0.000 OA
ENDBRANCH  22  24
ENDBRANCH  16  19
ENDBRANCH   1  17
TORSDOF 6
ENDMDL
MODEL 7
REMARK VINA RESULT:      -7.1      4.421      8.245
REMARK  Name = 
REMARK  6 active torsions:
REMARK  status: ('A' for Active; 'I' for Inactive)
REMARK    1  A    between atoms: C_2  and  C_17
REMARK    2  A    between atoms: N_3  and  C_4
REMARK    3  A    between atoms: C_9  and  N_10
REMARK    4  A    between atoms: C_13  and  C_14
REMARK    5  A    between atoms: C_14  and  O_15
REMARK    6  A    between atoms: C_20  and  N_21
REMARK                            x       y       z     vdW  Elec       q    Type
REMARK                         _______ _______ _______ _____ _____    ______ ____
ROOT
ATOM      1  C   UNL     1       6.493   4.440  17.267  0.00  0.00    +0.000 A 
ATOM      2  C   UNL     1       7.793   4.910  17.532  0.00  0.00    +0.000 A 
ATOM      3  C   UNL     1       8.106   5.502  18.749  0.00  0.00    +0.000 A 
ATOM      4  C   UNL     1       7.122   5.616  19.719  0.00  0.00    +0.000 A 
ATOM      5  C   UNL     1       5.823   5.154  19.461  0.00  0.00    +0.000 A 
ATOM      6  C   UNL     1       5.458   4.573  18.228  0.00  0.00    +0.000 A 
ENDROOT
BRANCH   6   7
ATOM      7  N   UNL     1       4.160   4.080  17.979  0.00  0.00    +0.000 N 
ATOM      8  C   UNL     1       3.153   4.941  17.327  0.00  0.00    +0.000 C 
ATOM      9  C   UNL     1       2.017   5.060  18.336  0.00  0.00    +0.000 C 
ATOM     10  C   UNL     1       2.039   3.712  19.049  0.00  0.00    +0.000 C 
ATOM     11  C   UNL     1       3.539   3.402  19.141  0.00  0.00    +0.000 C 
BRANCH  10  12
ATOM     12  C   UNL     1       1.270   2.630  18.291  0.00  0.00    +0.000 C 
BRANCH  12  13
ATOM     13  O   UNL     1       1.629   1.338  18.772  0.00  0.00    +0.000 OA
ATOM     14  H   UNL     1       1.512   1.332  19.737  0.00  0.00    +0.000 HD
ENDBRANCH  12  13
ENDBRANCH  10  12
ENDBRANCH   6   7
BRANCH   1  17
ATOM     15  O   UNL     1       6.296   5.864  14.880  0.00  0.00    +0.000 OA
ATOM     16  C   UNL     1       6.109   4.646  14.867  0.00  0.00    +0.000 C 
ATOM     17  N   UNL     1       6.234   3.857  15.998  0.00  0.00    +0.000 N 
ATOM     18  H   UNL     1       6.500   2.884  15.887  0.00  0.00    +0.000 HD
BRANCH  16  19
ATOM     19  C   UNL     1       5.799   3.984  13.613  0.00  0.00    +0.000 A 
ATOM     20  C   UNL     1       4.608   4.023  12.906  0.00  0.00    +0.000 A 
ATOM     21  C   UNL     1       4.718   3.103  11.842  0.00  0.00    +0.000 A 
ATOM     22  C   UNL     1       5.979   2.569  11.960  0.00  0.00    +0.000 A 
ATOM     23  O   UNL     1       6.670   3.110  13.009  0.00  0.00    +0.000 OA
BRANCH  22  24
ATOM     24  N   UNL     1       6.627   1.546  11.201  0.00  0.00    +0.000 N 
ATOM     25  O   UNL     1       5.996   0.490  11.051  0.00  0.00    +0.000 OA
ATOM     26  O   UNL     1       7.757   1.788  10.752  0.00  0.00    +0.000 OA
ENDBRANCH  22  24
ENDBRANCH  16  19
ENDBRANCH   1  17
TORSDOF 6
ENDMDL
MODEL 8
REMARK VINA RESULT:      -7.1      2.196      4.211
REMARK  Name = 
REMARK  6 active torsions:
REMARK  status: ('A' for Active; 'I' for Inactive)
REMARK    1  A    between atoms: C_2  and  C_17
REMARK    2  A    between atoms: N_3  and  C_4
REMARK    3  A    between atoms: C_9  and  N_10
REMARK    4  A    between atoms: C_13  and  C_14
REMARK    5  A    between atoms: C_14  and  O_15
REMARK    6  A    between atoms: C_20  and  N_21
REMARK                            x       y       z     vdW  Elec       q    Type
REMARK                         _______ _______ _______ _____ _____    ______ ____
ROOT
ATOM      1  C   UNL     1       3.784   6.346  17.620  0.00  0.00    +0.000 A 
ATOM      2  C   UNL     1       4.481   7.143  16.693  0.00  0.00    +0.000 A 
ATOM      3  C   UNL     1       5.332   6.571  15.755  0.00  0.00    +0.000 A 
ATOM      4  C   UNL     1       5.481   5.193  15.728  0.00  0.00    +0.000 A 
ATOM      5  C   UNL     1       4.794   4.393  16.652  0.00  0.00    +0.000 A 
ATOM      6  C   UNL     1       3.943   4.937  17.637  0.00  0.00    +0.000 A 
ENDROOT
BRANCH   6   7
ATOM      7  N   UNL     1       3.226   4.130  18.547  0.00  0.00    +0.000 N 
ATOM      8  C   UNL     1       3.864   2.938  19.141  0.00  0.00    +0.000 C 
ATOM      9  C   UNL     1       2.999   1.763  18.700  0.00  0.00    +0.000 C 
ATOM     10  C   UNL     1       1.599   2.363  18.633  0.00  0.00    +0.000 C 
ATOM     11  C   UNL     1       1.861   3.775  18.092  0.00  0.00    +0.000 C 
BRANCH  10  12
ATOM     12  C   UNL     1       0.899   2.384  19.992  0.00  0.00    +0.000 C 
BRANCH  12  13
ATOM     13  O   UNL     1       0.432   3.696  20.289  0.00  0.00    +0.000 OA
ATOM     14  H   UNL     1       1.098   4.331  19.974  0.00  0.00    +0.000 HD
ENDBRANCH  12  13
ENDBRANCH  10  12
ENDBRANCH   6   7
BRANCH   1  17
ATOM     15  O   UNL     1       2.333   8.671  17.113  0.00  0.00    +0.000 OA
ATOM     16  C   UNL     1       2.288   8.171  18.239  0.00  0.00    +0.000 C 
ATOM     17  N   UNL     1       2.940   6.993  18.562  0.00  0.00    +0.000 N 
ATOM     18  H   UNL     1       2.556   6.409  19.298  0.00  0.00    +0.000 HD
BRANCH  16  19
ATOM     19  C   UNL     1       1.480   8.799  19.268  0.00  0.00    +0.000 A 
ATOM     20  C   UNL     1       0.546   9.812  19.113  0.00  0.00    +0.000 A 
ATOM     21  C   UNL     1       0.136  10.208  20.403  0.00  0.00    +0.000 A 
ATOM     22  C   UNL     1       0.837   9.401  21.266  0.00  0.00    +0.000 A 
ATOM     23  O   UNL     1       1.638   8.513  20.603  0.00  0.00    +0.000 OA
BRANCH  22  24
ATOM     24  N   UNL     1       0.877   9.385  22.695  0.00  0.00    +0.000 N 
ATOM     25  O   UNL     1      -0.218   9.342  23.274  0.00  0.00    +0.000 OA
ATOM     26  O   UNL     1       1.990   9.414  23.241  0.00  0.00    +0.000 OA
ENDBRANCH  22  24
ENDBRANCH  16  19
ENDBRANCH   1  17
TORSDOF 6
ENDMDL
MODEL 9
REMARK VINA RESULT:      -7.1      2.212      4.106
REMARK  Name = 
REMARK  6 active torsions:
REMARK  status: ('A' for Active; 'I' for Inactive)
REMARK    1  A    between atoms: C_2  and  C_17
REMARK    2  A    between atoms: N_3  and  C_4
REMARK    3  A    between atoms: C_9  and  N_10
REMARK    4  A    between atoms: C_13  and  C_14
REMARK    5  A    between atoms: C_14  and  O_15
REMARK    6  A    between atoms: C_20  and  N_21
REMARK                            x       y       z     vdW  Elec       q    Type
REMARK                         _______ _______ _______ _____ _____    ______ ____
ROOT
ATOM      1  C   UNL     1       3.779   6.097  18.041  0.00  0.00    +0.000 A 
ATOM      2  C   UNL     1       4.523   6.831  17.098  0.00  0.00    +0.000 A 
ATOM      3  C   UNL     1       5.197   6.193  16.065  0.00  0.00    +0.000 A 
ATOM      4  C   UNL     1       5.120   4.813  15.957  0.00  0.00    +0.000 A 
ATOM      5  C   UNL     1       4.385   4.075  16.895  0.00  0.00    +0.000 A 
ATOM      6  C   UNL     1       3.710   4.682  17.975  0.00  0.00    +0.000 A 
ENDROOT
BRANCH   6   7
ATOM      7  N   UNL     1       2.945   3.943  18.902  0.00  0.00    +0.000 N 
ATOM      8  C   UNL     1       1.491   3.781  18.700  0.00  0.00    +0.000 C 
ATOM      9  C   UNL     1       0.847   4.411  19.930  0.00  0.00    +0.000 C 
ATOM     10  C   UNL     1       1.858   4.134  21.037  0.00  0.00    +0.000 C 
ATOM     11  C   UNL     1       3.202   4.299  20.317  0.00  0.00    +0.000 C 
BRANCH  10  12
ATOM     12  C   UNL     1       1.696   2.744  21.650  0.00  0.00    +0.000 C 
BRANCH  12  13
ATOM     13  O   UNL     1       2.967   2.209  22.008  0.00  0.00    +0.000 OA
ATOM     14  H   UNL     1       3.395   2.832  22.619  0.00  0.00    +0.000 HD
ENDBRANCH  12  13
ENDBRANCH  10  12
ENDBRANCH   6   7
BRANCH   1  17
ATOM     15  O   UNL     1       1.805   8.025  17.645  0.00  0.00    +0.000 OA
ATOM     16  C   UNL     1       2.184   7.783  18.793  0.00  0.00    +0.000 C 
ATOM     17  N   UNL     1       3.125   6.808  19.082  0.00  0.00    +0.000 N 
ATOM     18  H   UNL     1       3.091   6.352  19.987  0.00  0.00    +0.000 HD
BRANCH  16  19
ATOM     19  C   UNL     1       1.591   8.500  19.907  0.00  0.00    +0.000 A 
ATOM     20  C   UNL     1       1.249   7.996  21.153  0.00  0.00    +0.000 A 
ATOM     21  C   UNL     1       0.559   9.015  21.844  0.00  0.00    +0.000 A 
ATOM     22  C   UNL     1       0.536  10.083  20.978  0.00  0.00    +0.000 A 
ATOM     23  O   UNL     1       1.184   9.808  19.806  0.00  0.00    +0.000 OA
BRANCH  22  24
ATOM     24  N   UNL     1      -0.077  11.367  21.108  0.00  0.00    +0.000 N 
ATOM     25  O   UNL     1      -1.198  11.496  20.596  0.00  0.00    +0.000 OA
ATOM     26  O   UNL     1       0.550  12.246  21.718  0.00  0.00    +0.000 OA
ENDBRANCH  22  24
ENDBRANCH  16  19
ENDBRANCH   1  17
TORSDOF 6
ENDMDL
