MODEL 1
REMARK VINA RESULT:      -8.0      0.000      0.000
REMARK  Name = 
REMARK  4 active torsions:
REMARK  status: ('A' for Active; 'I' for Inactive)
REMARK    1  A    between atoms: C_1  and  C_2
REMARK    2  A    between atoms: C_2  and  C_3
REMARK    3  A    between atoms: C_2  and  N_22
REMARK    4  A    between atoms: N_20  and  C_21
REMARK                            x       y       z     vdW  Elec       q    Type
REMARK                         _______ _______ _______ _____ _____    ______ ____
ROOT
ATOM      1  C   UNL     1       3.511   4.279  18.605  0.00  0.00    +0.000 C 
ATOM      2  C   UNL     1       4.104   4.792  17.307  0.00  0.00    +0.000 A 
ATOM      3  C   UNL     1       4.734   3.895  16.412  0.00  0.00    +0.000 A 
ATOM      4  C   UNL     1       5.444   4.349  15.303  0.00  0.00    +0.000 A 
ATOM      5  C   UNL     1       5.514   5.706  15.058  0.00  0.00    +0.000 A 
ATOM      6  C   UNL     1       4.825   6.590  15.893  0.00  0.00    +0.000 A 
ATOM      7  C   UNL     1       4.081   6.158  17.014  0.00  0.00    +0.000 A 
ATOM      8  C   UNL     1       3.260   7.067  17.857  0.00  0.00    +0.000 A 
ATOM      9  C   UNL     1       3.187   8.431  17.514  0.00  0.00    +0.000 A 
ATOM     10  C   UNL     1       2.382   9.327  18.189  0.00  0.00    +0.000 A 
ATOM     11  C   UNL     1       1.641   8.918  19.281  0.00  0.00    +0.000 A 
ATOM     12  C   UNL     1       0.867   9.910  19.909  0.00  0.00    +0.000 A 
ATOM     13  C   UNL     1       0.115   9.628  21.036  0.00  0.00    +0.000 A 
ATOM     14  C   UNL     1       0.182   8.355  21.566  0.00  0.00    +0.000 A 
ATOM     15  C   UNL     1       0.979   7.369  20.953  0.00  0.00    +0.000 A 
ATOM     16  C   UNL     1       1.696   7.565  19.733  0.00  0.00    +0.000 A 
ATOM     17  C   UNL     1       2.477   6.579  18.960  0.00  0.00    +0.000 A 
ATOM     18  N   UNL     1       2.498   5.195  19.234  0.00  0.00    +0.000 N 
ATOM     19  C   UNL     1       1.418   4.452  19.889  0.00  0.00    +0.000 C 
ENDROOT
BRANCH   1  21
ATOM     20  C   UNL     1       5.961   4.371  19.510  0.00  0.00    +0.000 C 
ATOM     21  C   UNL     1       4.537   3.868  19.692  0.00  0.00    +0.000 C 
BRANCH  21  22
ATOM     22  N   UNL     1       4.516   2.368  19.845  0.00  0.00    +0.000 N 
ATOM     23  O   UNL     1       5.251   1.839  20.678  0.00  0.00    +0.000 OA
ATOM     24  O   UNL     1       3.739   1.754  19.090  0.00  0.00    +0.000 OA
ENDBRANCH  21  22
ENDBRANCH   1  21
TORSDOF 2
ENDMDL
MODEL 2
REMARK VINA RESULT:      -7.7      1.518      5.516
REMARK  Name = 
REMARK  4 active torsions:
REMARK  status: ('A' for Active; 'I' for Inactive)
REMARK    1  A    between atoms: C_1  and  C_2
REMARK    2  A    between atoms: C_2  and  C_3
REMARK    3  A    between atoms: C_2  and  N_22
REMARK    4  A    between atoms: N_20  and  C_21
REMARK                            x       y       z     vdW  Elec       q    Type
REMARK                         _______ _______ _______ _____ _____    ______ ____
ROOT
ATOM      1  C   UNL     1       2.455   4.861  19.966  0.00  0.00    +0.000 C 
ATOM      2  C   UNL     1       2.128   6.340  20.038  0.00  0.00    +0.000 A 
ATOM      3  C   UNL     1       1.415   6.855  21.147  0.00  0.00    +0.000 A 
ATOM      4  C   UNL     1       0.942   8.165  21.165  0.00  0.00    +0.000 A 
ATOM      5  C   UNL     1       1.196   8.988  20.086  0.00  0.00    +0.000 A 
ATOM      6  C   UNL     1       1.969   8.509  19.026  0.00  0.00    +0.000 A 
ATOM      7  C   UNL     1       2.479   7.191  18.987  0.00  0.00    +0.000 A 
ATOM      8  C   UNL     1       3.386   6.689  17.921  0.00  0.00    +0.000 A 
ATOM      9  C   UNL     1       3.791   7.574  16.902  0.00  0.00    +0.000 A 
ATOM     10  C   UNL     1       4.696   7.218  15.922  0.00  0.00    +0.000 A 
ATOM     11  C   UNL     1       5.211   5.937  15.877  0.00  0.00    +0.000 A 
ATOM     12  C   UNL     1       6.113   5.670  14.831  0.00  0.00    +0.000 A 
ATOM     13  C   UNL     1       6.662   4.411  14.660  0.00  0.00    +0.000 A 
ATOM     14  C   UNL     1       6.263   3.401  15.513  0.00  0.00    +0.000 A 
ATOM     15  C   UNL     1       5.339   3.662  16.543  0.00  0.00    +0.000 A 
ATOM     16  C   UNL     1       4.814   4.958  16.837  0.00  0.00    +0.000 A 
ATOM     17  C   UNL     1       3.923   5.356  17.945  0.00  0.00    +0.000 A 
ATOM     18  N   UNL     1       3.571   4.514  19.021  0.00  0.00    +0.000 N 
ATOM     19  C   UNL     1       4.388   3.404  19.520  0.00  0.00    +0.000 C 
ENDROOT
BRANCH   1  21
ATOM     20  C   UNL     1       1.112   2.697  20.553  0.00  0.00    +0.000 C 
ATOM     21  C   UNL     1       1.255   3.926  19.667  0.00  0.00    +0.000 C 
BRANCH  21  22
ATOM     22  N   UNL     1       1.287   3.535  18.212  0.00  0.00    +0.000 N 
ATOM     23  O   UNL     1       0.953   4.358  17.360  0.00  0.00    +0.000 OA
ATOM     24  O   UNL     1       1.654   2.369  17.968  0.00  0.00    +0.000 OA
ENDBRANCH  21  22
ENDBRANCH   1  21
TORSDOF 2
ENDMDL
MODEL 3
REMARK VINA RESULT:      -7.0      2.012      4.011
REMARK  Name = 
REMARK  4 active torsions:
REMARK  status: ('A' for Active; 'I' for Inactive)
REMARK    1  A    between atoms: C_1  and  C_2
REMARK    2  A    between atoms: C_2  and  C_3
REMARK    3  A    between atoms: C_2  and  N_22
REMARK    4  A    between atoms: N_20  and  C_21
REMARK                            x       y       z     vdW  Elec       q    Type
REMARK                         _______ _______ _______ _____ _____    ______ ____
ROOT
ATOM      1  C   UNL     1       4.140   4.952  18.233  0.00  0.00    +0.000 C 
ATOM      2  C   UNL     1       3.727   4.191  19.478  0.00  0.00    +0.000 A 
ATOM      3  C   UNL     1       4.338   2.952  19.787  0.00  0.00    +0.000 A 
ATOM      4  C   UNL     1       3.865   2.142  20.816  0.00  0.00    +0.000 A 
ATOM      5  C   UNL     1       2.788   2.568  21.568  0.00  0.00    +0.000 A 
ATOM      6  C   UNL     1       2.233   3.826  21.319  0.00  0.00    +0.000 A 
ATOM      7  C   UNL     1       2.704   4.680  20.295  0.00  0.00    +0.000 A 
ATOM      8  C   UNL     1       2.199   6.060  20.076  0.00  0.00    +0.000 A 
ATOM      9  C   UNL     1       1.216   6.570  20.948  0.00  0.00    +0.000 A 
ATOM     10  C   UNL     1       0.752   7.868  20.870  0.00  0.00    +0.000 A 
ATOM     11  C   UNL     1       1.211   8.717  19.881  0.00  0.00    +0.000 A 
ATOM     12  C   UNL     1       0.665  10.014  19.878  0.00  0.00    +0.000 A 
ATOM     13  C   UNL     1       1.017  10.939  18.911  0.00  0.00    +0.000 A 
ATOM     14  C   UNL     1       1.882  10.543  17.911  0.00  0.00    +0.000 A 
ATOM     15  C   UNL     1       2.408   9.237  17.898  0.00  0.00    +0.000 A 
ATOM     16  C   UNL     1       2.166   8.268  18.920  0.00  0.00    +0.000 A 
ATOM     17  C   UNL     1       2.739   6.914  19.054  0.00  0.00    +0.000 A 
ATOM     18  N   UNL     1       3.782   6.412  18.247  0.00  0.00    +0.000 N 
ATOM     19  C   UNL     1       4.799   7.233  17.582  0.00  0.00    +0.000 C 
ENDROOT
BRANCH   1  21
ATOM     20  C   UNL     1       2.767   3.118  16.977  0.00  0.00    +0.000 C 
ATOM     21  C   UNL     1       3.660   4.346  16.890  0.00  0.00    +0.000 C 
BRANCH  21  22
ATOM     22  N   UNL     1       4.859   4.073  16.018  0.00  0.00    +0.000 N 
ATOM     23  O   UNL     1       4.815   4.370  14.824  0.00  0.00    +0.000 OA
ATOM     24  O   UNL     1       5.836   3.545  16.583  0.00  0.00    +0.000 OA
ENDBRANCH  21  22
ENDBRANCH   1  21
TORSDOF 2
ENDMDL
MODEL 4
REMARK VINA RESULT:      -7.0      3.658      4.883
REMARK  Name = 
REMARK  4 active torsions:
REMARK  status: ('A' for Active; 'I' for Inactive)
REMARK    1  A    between atoms: C_1  and  C_2
REMARK    2  A    between atoms: C_2  and  C_3
REMARK    3  A    between atoms: C_2  and  N_22
REMARK    4  A    between atoms: N_20  and  C_21
REMARK                            x       y       z     vdW  Elec       q    Type
REMARK                         _______ _______ _______ _____ _____    ______ ____
ROOT
ATOM      1  C   UNL     1       6.389   5.415  17.638  0.00  0.00    +0.000 C 
ATOM      2  C   UNL     1       6.243   4.791  16.264  0.00  0.00    +0.000 A 
ATOM      3  C   UNL     1       7.264   4.958  15.297  0.00  0.00    +0.000 A 
ATOM      4  C   UNL     1       7.089   4.555  13.975  0.00  0.00    +0.000 A 
ATOM      5  C   UNL     1       5.901   3.958  13.605  0.00  0.00    +0.000 A 
ATOM      6  C   UNL     1       4.923   3.718  14.573  0.00  0.00    +0.000 A 
ATOM      7  C   UNL     1       5.078   4.097  15.926  0.00  0.00    +0.000 A 
ATOM      8  C   UNL     1       4.098   3.764  16.993  0.00  0.00    +0.000 A 
ATOM      9  C   UNL     1       2.960   3.004  16.657  0.00  0.00    +0.000 A 
ATOM     10  C   UNL     1       2.043   2.578  17.597  0.00  0.00    +0.000 A 
ATOM     11  C   UNL     1       2.188   2.932  18.925  0.00  0.00    +0.000 A 
ATOM     12  C   UNL     1       1.193   2.461  19.801  0.00  0.00    +0.000 A 
ATOM     13  C   UNL     1       1.209   2.786  21.146  0.00  0.00    +0.000 A 
ATOM     14  C   UNL     1       2.201   3.630  21.605  0.00  0.00    +0.000 A 
ATOM     15  C   UNL     1       3.181   4.123  20.722  0.00  0.00    +0.000 A 
ATOM     16  C   UNL     1       3.281   3.747  19.348  0.00  0.00    +0.000 A 
ATOM     17  C   UNL     1       4.318   4.125  18.366  0.00  0.00    +0.000 A 
ATOM     18  N   UNL     1       5.506   4.812  18.694  0.00  0.00    +0.000 N 
ATOM     19  C   UNL     1       6.164   4.774  20.004  0.00  0.00    +0.000 C 
ENDROOT
BRANCH   1  21
ATOM     20  C   UNL     1       5.421   7.597  16.576  0.00  0.00    +0.000 C 
ATOM     21  C   UNL     1       6.231   6.956  17.692  0.00  0.00    +0.000 C 
BRANCH  21  22
ATOM     22  N   UNL     1       7.596   7.587  17.791  0.00  0.00    +0.000 N 
ATOM     23  O   UNL     1       7.891   8.506  17.027  0.00  0.00    +0.000 OA
ATOM     24  O   UNL     1       8.354   7.115  18.660  0.00  0.00    +0.000 OA
ENDBRANCH  21  22
ENDBRANCH   1  21
TORSDOF 2
ENDMDL
MODEL 5
REMARK VINA RESULT:      -6.6      6.756      9.415
REMARK  Name = 
REMARK  4 active torsions:
REMARK  status: ('A' for Active; 'I' for Inactive)
REMARK    1  A    between atoms: C_1  and  C_2
REMARK    2  A    between atoms: C_2  and  C_3
REMARK    3  A    between atoms: C_2  and  N_22
REMARK    4  A    between atoms: N_20  and  C_21
REMARK                            x       y       z     vdW  Elec       q    Type
REMARK                         _______ _______ _______ _____ _____    ______ ____
ROOT
ATOM      1  C   UNL     1      -1.506  12.366  20.812  0.00  0.00    +0.000 C 
ATOM      2  C   UNL     1      -0.907  11.326  19.885  0.00  0.00    +0.000 A 
ATOM      3  C   UNL     1       0.351  10.749  20.184  0.00  0.00    +0.000 A 
ATOM      4  C   UNL     1       1.013   9.930  19.273  0.00  0.00    +0.000 A 
ATOM      5  C   UNL     1       0.418   9.655  18.058  0.00  0.00    +0.000 A 
ATOM      6  C   UNL     1      -0.859  10.157  17.791  0.00  0.00    +0.000 A 
ATOM      7  C   UNL     1      -1.564  10.975  18.703  0.00  0.00    +0.000 A 
ATOM      8  C   UNL     1      -2.960  11.437  18.486  0.00  0.00    +0.000 A 
ATOM      9  C   UNL     1      -3.640  11.021  17.324  0.00  0.00    +0.000 A 
ATOM     10  C   UNL     1      -4.964  11.332  17.083  0.00  0.00    +0.000 A 
ATOM     11  C   UNL     1      -5.669  12.122  17.971  0.00  0.00    +0.000 A 
ATOM     12  C   UNL     1      -7.006  12.394  17.627  0.00  0.00    +0.000 A 
ATOM     13  C   UNL     1      -7.799  13.207  18.417  0.00  0.00    +0.000 A 
ATOM     14  C   UNL     1      -7.231  13.792  19.532  0.00  0.00    +0.000 A 
ATOM     15  C   UNL     1      -5.885  13.541  19.861  0.00  0.00    +0.000 A 
ATOM     16  C   UNL     1      -5.044  12.634  19.147  0.00  0.00    +0.000 A 
ATOM     17  C   UNL     1      -3.660  12.227  19.461  0.00  0.00    +0.000 A 
ATOM     18  N   UNL     1      -2.988  12.561  20.656  0.00  0.00    +0.000 N 
ATOM     19  C   UNL     1      -3.642  12.842  21.938  0.00  0.00    +0.000 C 
ENDROOT
BRANCH   1  21
ATOM     20  C   UNL     1      -0.143  14.157  19.483  0.00  0.00    +0.000 C 
ATOM     21  C   UNL     1      -0.825  13.758  20.783  0.00  0.00    +0.000 C 
BRANCH  21  22
ATOM     22  N   UNL     1       0.134  13.860  21.942  0.00  0.00    +0.000 N 
ATOM     23  O   UNL     1       1.342  13.748  21.735  0.00  0.00    +0.000 OA
ATOM     24  O   UNL     1      -0.381  14.050  23.061  0.00  0.00    +0.000 OA
ENDBRANCH  21  22
ENDBRANCH   1  21
TORSDOF 2
ENDMDL
MODEL 6
REMARK VINA RESULT:      -6.4      7.249      9.535
REMARK  Name = 
REMARK  4 active torsions:
REMARK  status: ('A' for Active; 'I' for Inactive)
REMARK    1  A    between atoms: C_1  and  C_2
REMARK    2  A    between atoms: C_2  and  C_3
REMARK    3  A    between atoms: C_2  and  N_22
REMARK    4  A    between atoms: N_20  and  C_21
REMARK                            x       y       z     vdW  Elec       q    Type
REMARK                         _______ _______ _______ _____ _____    ______ ____
ROOT
ATOM      1  C   UNL     1      -1.334  11.838  20.162  0.00  0.00    +0.000 C 
ATOM      2  C   UNL     1      -2.036  11.237  18.960  0.00  0.00    +0.000 A 
ATOM      3  C   UNL     1      -1.352  10.324  18.122  0.00  0.00    +0.000 A 
ATOM      4  C   UNL     1      -1.897   9.891  16.916  0.00  0.00    +0.000 A 
ATOM      5  C   UNL     1      -3.146  10.346  16.540  0.00  0.00    +0.000 A 
ATOM      6  C   UNL     1      -3.859  11.183  17.401  0.00  0.00    +0.000 A 
ATOM      7  C   UNL     1      -3.340  11.624  18.640  0.00  0.00    +0.000 A 
ATOM      8  C   UNL     1      -4.117  12.431  19.618  0.00  0.00    +0.000 A 
ATOM      9  C   UNL     1      -5.454  12.758  19.319  0.00  0.00    +0.000 A 
ATOM     10  C   UNL     1      -6.273  13.430  20.204  0.00  0.00    +0.000 A 
ATOM     11  C   UNL     1      -5.784  13.858  21.423  0.00  0.00    +0.000 A 
ATOM     12  C   UNL     1      -6.694  14.547  22.246  0.00  0.00    +0.000 A 
ATOM     13  C   UNL     1      -6.306  15.059  23.472  0.00  0.00    +0.000 A 
ATOM     14  C   UNL     1      -4.985  14.924  23.851  0.00  0.00    +0.000 A 
ATOM     15  C   UNL     1      -4.069  14.258  23.014  0.00  0.00    +0.000 A 
ATOM     16  C   UNL     1      -4.425  13.619  21.787  0.00  0.00    +0.000 A 
ATOM     17  C   UNL     1      -3.570  12.817  20.889  0.00  0.00    +0.000 A 
ATOM     18  N   UNL     1      -2.257  12.407  21.204  0.00  0.00    +0.000 N 
ATOM     19  C   UNL     1      -1.743  12.204  22.562  0.00  0.00    +0.000 C 
ENDROOT
BRANCH   1  21
ATOM     20  C   UNL     1      -0.377  13.623  18.511  0.00  0.00    +0.000 C 
ATOM     21  C   UNL     1      -0.249  12.897  19.842  0.00  0.00    +0.000 C 
BRANCH  21  22
ATOM     22  N   UNL     1       1.112  12.263  19.975  0.00  0.00    +0.000 N 
ATOM     23  O   UNL     1       1.772  12.037  18.961  0.00  0.00    +0.000 OA
ATOM     24  O   UNL     1       1.479  11.999  21.136  0.00  0.00    +0.000 OA
ENDBRANCH  21  22
ENDBRANCH   1  21
TORSDOF 2
ENDMDL
MODEL 7
REMARK VINA RESULT:      -6.4      6.878      8.863
REMARK  Name = 
REMARK  4 active torsions:
REMARK  status: ('A' for Active; 'I' for Inactive)
REMARK    1  A    between atoms: C_1  and  C_2
REMARK    2  A    between atoms: C_2  and  C_3
REMARK    3  A    between atoms: C_2  and  N_22
REMARK    4  A    between atoms: N_20  and  C_21
REMARK                            x       y       z     vdW  Elec       q    Type
REMARK                         _______ _______ _______ _____ _____    ______ ____
ROOT
ATOM      1  C   UNL     1      -0.850  11.194  19.742  0.00  0.00    +0.000 C 
ATOM      2  C   UNL     1      -1.899  10.954  18.673  0.00  0.00    +0.000 A 
ATOM      3  C   UNL     1      -1.634  10.060  17.608  0.00  0.00    +0.000 A 
ATOM      4  C   UNL     1      -2.493   9.949  16.518  0.00  0.00    +0.000 A 
ATOM      5  C   UNL     1      -3.643  10.713  16.486  0.00  0.00    +0.000 A 
ATOM      6  C   UNL     1      -3.949  11.537  17.572  0.00  0.00    +0.000 A 
ATOM      7  C   UNL     1      -3.106  11.656  18.701  0.00  0.00    +0.000 A 
ATOM      8  C   UNL     1      -3.457  12.446  19.911  0.00  0.00    +0.000 A 
ATOM      9  C   UNL     1      -4.707  13.094  19.960  0.00  0.00    +0.000 A 
ATOM     10  C   UNL     1      -5.149  13.778  21.075  0.00  0.00    +0.000 A 
ATOM     11  C   UNL     1      -4.341  13.894  22.190  0.00  0.00    +0.000 A 
ATOM     12  C   UNL     1      -4.877  14.623  23.268  0.00  0.00    +0.000 A 
ATOM     13  C   UNL     1      -4.145  14.841  24.421  0.00  0.00    +0.000 A 
ATOM     14  C   UNL     1      -2.848  14.369  24.474  0.00  0.00    +0.000 A 
ATOM     15  C   UNL     1      -2.303  13.662  23.384  0.00  0.00    +0.000 A 
ATOM     16  C   UNL     1      -3.036  13.316  22.208  0.00  0.00    +0.000 A 
ATOM     17  C   UNL     1      -2.594  12.501  21.059  0.00  0.00    +0.000 A 
ATOM     18  N   UNL     1      -1.385  11.775  21.021  0.00  0.00    +0.000 N 
ATOM     19  C   UNL     1      -0.679  11.256  22.196  0.00  0.00    +0.000 C 
ENDROOT
BRANCH   1  21
ATOM     20  C   UNL     1       0.112  13.146  18.295  0.00  0.00    +0.000 C 
ATOM     21  C   UNL     1       0.375  12.034  19.299  0.00  0.00    +0.000 C 
BRANCH  21  22
ATOM     22  N   UNL     1       1.452  11.106  18.799  0.00  0.00    +0.000 N 
ATOM     23  O   UNL     1       2.330  11.548  18.058  0.00  0.00    +0.000 OA
ATOM     24  O   UNL     1       1.371   9.921  19.176  0.00  0.00    +0.000 OA
ENDBRANCH  21  22
ENDBRANCH   1  21
TORSDOF 2
ENDMDL
MODEL 8
REMARK VINA RESULT:      -6.3      4.694      7.693
REMARK  Name = 
REMARK  4 active torsions:
REMARK  status: ('A' for Active; 'I' for Inactive)
REMARK    1  A    between atoms: C_1  and  C_2
REMARK    2  A    between atoms: C_2  and  C_3
REMARK    3  A    between atoms: C_2  and  N_22
REMARK    4  A    between atoms: N_20  and  C_21
REMARK                            x       y       z     vdW  Elec       q    Type
REMARK                         _______ _______ _______ _____ _____    ______ ____
ROOT
ATOM      1  C   UNL     1       0.380  11.342  21.344  0.00  0.00    +0.000 C 
ATOM      2  C   UNL     1       0.961  12.261  20.286  0.00  0.00    +0.000 A 
ATOM      3  C   UNL     1       0.918  13.664  20.465  0.00  0.00    +0.000 A 
ATOM      4  C   UNL     1       1.276  14.541  19.444  0.00  0.00    +0.000 A 
ATOM      5  C   UNL     1       1.705  14.028  18.236  0.00  0.00    +0.000 A 
ATOM      6  C   UNL     1       1.825  12.645  18.082  0.00  0.00    +0.000 A 
ATOM      7  C   UNL     1       1.488  11.730  19.106  0.00  0.00    +0.000 A 
ATOM      8  C   UNL     1       1.702  10.263  19.003  0.00  0.00    +0.000 A 
ATOM      9  C   UNL     1       2.298   9.743  17.837  0.00  0.00    +0.000 A 
ATOM     10  C   UNL     1       2.611   8.406  17.692  0.00  0.00    +0.000 A 
ATOM     11  C   UNL     1       2.297   7.502  18.689  0.00  0.00    +0.000 A 
ATOM     12  C   UNL     1       2.642   6.162  18.438  0.00  0.00    +0.000 A 
ATOM     13  C   UNL     1       2.341   5.161  19.345  0.00  0.00    +0.000 A 
ATOM     14  C   UNL     1       1.643   5.500  20.487  0.00  0.00    +0.000 A 
ATOM     15  C   UNL     1       1.274   6.838  20.725  0.00  0.00    +0.000 A 
ATOM     16  C   UNL     1       1.642   7.931  19.882  0.00  0.00    +0.000 A 
ATOM     17  C   UNL     1       1.392   9.372  20.088  0.00  0.00    +0.000 A 
ATOM     18  N   UNL     1       0.874   9.924  21.278  0.00  0.00    +0.000 N 
ATOM     19  C   UNL     1       1.016   9.330  22.611  0.00  0.00    +0.000 C 
ENDROOT
BRANCH   1  21
ATOM     20  C   UNL     1      -1.925  11.858  20.227  0.00  0.00    +0.000 C 
ATOM     21  C   UNL     1      -1.167  11.316  21.429  0.00  0.00    +0.000 C 
BRANCH  21  22
ATOM     22  N   UNL     1      -1.602  12.014  22.693  0.00  0.00    +0.000 N 
ATOM     23  O   UNL     1      -2.800  12.067  22.969  0.00  0.00    +0.000 OA
ATOM     24  O   UNL     1      -0.691  12.507  23.384  0.00  0.00    +0.000 OA
ENDBRANCH  21  22
ENDBRANCH   1  21
TORSDOF 2
ENDMDL
MODEL 9
REMARK VINA RESULT:      -6.2     10.260     11.379
REMARK  Name = 
REMARK  4 active torsions:
REMARK  status: ('A' for Active; 'I' for Inactive)
REMARK    1  A    between atoms: C_1  and  C_2
REMARK    2  A    between atoms: C_2  and  C_3
REMARK    3  A    between atoms: C_2  and  N_22
REMARK    4  A    between atoms: N_20  and  C_21
REMARK                            x       y       z     vdW  Elec       q    Type
REMARK                         _______ _______ _______ _____ _____    ______ ____
ROOT
ATOM      1  C   UNL     1      10.238  14.792  20.030  0.00  0.00    +0.000 C 
ATOM      2  C   UNL     1      10.215  13.366  19.513  0.00  0.00    +0.000 A 
ATOM      3  C   UNL     1      10.819  13.053  18.272  0.00  0.00    +0.000 A 
ATOM      4  C   UNL     1      10.664  11.801  17.681  0.00  0.00    +0.000 A 
ATOM      5  C   UNL     1       9.923  10.835  18.334  0.00  0.00    +0.000 A 
ATOM      6  C   UNL     1       9.394  11.114  19.596  0.00  0.00    +0.000 A 
ATOM      7  C   UNL     1       9.551  12.368  20.230  0.00  0.00    +0.000 A 
ATOM      8  C   UNL     1       9.084  12.656  21.612  0.00  0.00    +0.000 A 
ATOM      9  C   UNL     1       8.477  11.624  22.353  0.00  0.00    +0.000 A 
ATOM     10  C   UNL     1       8.092  11.778  23.670  0.00  0.00    +0.000 A 
ATOM     11  C   UNL     1       8.248  12.995  24.306  0.00  0.00    +0.000 A 
ATOM     12  C   UNL     1       7.810  13.054  25.642  0.00  0.00    +0.000 A 
ATOM     13  C   UNL     1       7.878  14.230  26.368  0.00  0.00    +0.000 A 
ATOM     14  C   UNL     1       8.339  15.367  25.733  0.00  0.00    +0.000 A 
ATOM     15  C   UNL     1       8.752  15.313  24.388  0.00  0.00    +0.000 A 
ATOM     16  C   UNL     1       8.804  14.113  23.614  0.00  0.00    +0.000 A 
ATOM     17  C   UNL     1       9.307  13.930  22.238  0.00  0.00    +0.000 A 
ATOM     18  N   UNL     1       9.993  14.923  21.507  0.00  0.00    +0.000 N 
ATOM     19  C   UNL     1      10.780  16.009  22.100  0.00  0.00    +0.000 C 
ENDROOT
BRANCH   1  21
ATOM     20  C   UNL     1       8.063  15.199  18.640  0.00  0.00    +0.000 C 
ATOM     21  C   UNL     1       9.307  15.786  19.291  0.00  0.00    +0.000 C 
BRANCH  21  22
ATOM     22  N   UNL     1      10.117  16.565  18.287  0.00  0.00    +0.000 N 
ATOM     23  O   UNL     1       9.960  16.346  17.087  0.00  0.00    +0.000 OA
ATOM     24  O   UNL     1      10.917  17.396  18.759  0.00  0.00    +0.000 OA
ENDBRANCH  21  22
ENDBRANCH   1  21
TORSDOF 2
ENDMDL
