MODEL 1
REMARK VINA RESULT:      -5.5      0.000      0.000
REMARK  Name = 
REMARK  6 active torsions:
REMARK  status: ('A' for Active; 'I' for Inactive)
REMARK    1  A    between atoms: C_1  and  C_2
REMARK    2  A    between atoms: C_4  and  C_5
REMARK    3  A    between atoms: C_5  and  N_6
REMARK    4  A    between atoms: N_14  and  C_15
REMARK    5  A    between atoms: C_15  and  C_16
REMARK    6  A    between atoms: C_21  and  C_22
REMARK                            x       y       z     vdW  Elec       q    Type
REMARK                         _______ _______ _______ _____ _____    ______ ____
ROOT
ATOM      1  N   UNL     1       1.297   8.821  20.010  0.00  0.00    +0.000 N 
ATOM      2  C   UNL     1       0.758   9.021  21.293  0.00  0.00    +0.000 C 
ATOM      3  O   UNL     1       1.280   8.647  22.338  0.00  0.00    +0.000 OA
ATOM      4  C   UNL     1      -0.644   9.603  21.261  0.00  0.00    +0.000 C 
ATOM      5  O   UNL     1      -0.838  10.664  20.356  0.00  0.00    +0.000 OA
ATOM      6  C   UNL     1      -0.360  10.416  19.012  0.00  0.00    +0.000 C 
ATOM      7  C   UNL     1      -1.226   9.364  18.283  0.00  0.00    +0.000 C 
ATOM      8  C   UNL     1      -2.675   9.822  18.142  0.00  0.00    +0.000 C 
ATOM      9  N   UNL     1      -2.816  11.130  17.490  0.00  0.00    +0.000 NA
ATOM     10  C   UNL     1      -2.040  12.139  18.232  0.00  0.00    +0.000 C 
ATOM     11  C   UNL     1      -0.544  11.792  18.339  0.00  0.00    +0.000 C 
ATOM     12  C   UNL     1       1.143   9.968  19.074  0.00  0.00    +0.000 C 
ATOM     13  C   UNL     1       1.751   9.727  17.678  0.00  0.00    +0.000 C 
ENDROOT
BRANCH   1  14
ATOM     14  C   UNL     1       2.497   7.996  19.976  0.00  0.00    +0.000 C 
BRANCH  14  18
ATOM     15  C   UNL     1       1.043   3.300  20.703  0.00  0.00    +0.000 C 
ATOM     16  C   UNL     1       1.536   4.496  19.968  0.00  0.00    +0.000 A 
ATOM     17  N   UNL     1       1.838   5.648  20.530  0.00  0.00    +0.000 NA
ATOM     18  C   UNL     1       2.205   6.574  19.552  0.00  0.00    +0.000 A 
ATOM     19  C   UNL     1       2.284   6.044  18.276  0.00  0.00    +0.000 A 
ATOM     20  S   UNL     1       1.753   4.420  18.267  0.00  0.00    +0.000 S 
ENDBRANCH  14  18
ENDBRANCH   1  14
BRANCH   9  21
ATOM     21  C   UNL     1      -2.463  11.146  16.066  0.00  0.00    +0.000 C 
BRANCH  21  22
ATOM     22  C   UNL     1      -3.015   9.965  15.328  0.00  0.00    +0.000 C 
ATOM     23  C   UNL     1      -4.094  10.181  14.296  0.00  0.00    +0.000 C 
ATOM     24  C   UNL     1      -2.716   9.770  13.860  0.00  0.00    +0.000 C 
ENDBRANCH  21  22
ENDBRANCH   9  21
TORSDOF 4
ENDMDL
MODEL 2
REMARK VINA RESULT:      -5.4      5.049      7.741
REMARK  Name = 
REMARK  6 active torsions:
REMARK  status: ('A' for Active; 'I' for Inactive)
REMARK    1  A    between atoms: C_1  and  C_2
REMARK    2  A    between atoms: C_4  and  C_5
REMARK    3  A    between atoms: C_5  and  N_6
REMARK    4  A    between atoms: N_14  and  C_15
REMARK    5  A    between atoms: C_15  and  C_16
REMARK    6  A    between atoms: C_21  and  C_22
REMARK                            x       y       z     vdW  Elec       q    Type
REMARK                         _______ _______ _______ _____ _____    ______ ____
ROOT
ATOM      1  N   UNL     1      -3.049  13.841  22.770  0.00  0.00    +0.000 N 
ATOM      2  C   UNL     1      -2.867  15.163  22.327  0.00  0.00    +0.000 C 
ATOM      3  O   UNL     1      -3.392  16.149  22.834  0.00  0.00    +0.000 OA
ATOM      4  C   UNL     1      -2.082  15.250  21.031  0.00  0.00    +0.000 C 
ATOM      5  O   UNL     1      -0.939  14.430  20.961  0.00  0.00    +0.000 OA
ATOM      6  C   UNL     1      -1.155  13.047  21.333  0.00  0.00    +0.000 C 
ATOM      7  C   UNL     1      -2.008  12.300  20.284  0.00  0.00    +0.000 C 
ATOM      8  C   UNL     1      -1.330  12.273  18.917  0.00  0.00    +0.000 C 
ATOM      9  N   UNL     1       0.029  11.718  18.947  0.00  0.00    +0.000 NA
ATOM     10  C   UNL     1       0.853  12.481  19.901  0.00  0.00    +0.000 C 
ATOM     11  C   UNL     1       0.280  12.479  21.330  0.00  0.00    +0.000 C 
ATOM     12  C   UNL     1      -1.825  12.994  22.751  0.00  0.00    +0.000 C 
ATOM     13  C   UNL     1      -2.049  11.553  23.250  0.00  0.00    +0.000 C 
ENDROOT
BRANCH   1  14
ATOM     14  C   UNL     1      -4.039  13.685  23.827  0.00  0.00    +0.000 C 
BRANCH  14  18
ATOM     15  C   UNL     1      -7.123  11.420  20.656  0.00  0.00    +0.000 C 
ATOM     16  C   UNL     1      -6.697  12.234  21.825  0.00  0.00    +0.000 A 
ATOM     17  N   UNL     1      -5.453  12.577  22.087  0.00  0.00    +0.000 NA
ATOM     18  C   UNL     1      -5.394  13.281  23.290  0.00  0.00    +0.000 A 
ATOM     19  C   UNL     1      -6.633  13.555  23.844  0.00  0.00    +0.000 A 
ATOM     20  S   UNL     1      -7.873  12.801  22.941  0.00  0.00    +0.000 S 
ENDBRANCH  14  18
ENDBRANCH   1  14
BRANCH   9  21
ATOM     21  C   UNL     1       0.099  10.281  19.233  0.00  0.00    +0.000 C 
BRANCH  21  22
ATOM     22  C   UNL     1       0.762   9.512  18.132  0.00  0.00    +0.000 C 
ATOM     23  C   UNL     1       2.201   9.808  17.790  0.00  0.00    +0.000 C 
ATOM     24  C   UNL     1       1.843   8.504  18.443  0.00  0.00    +0.000 C 
ENDBRANCH  21  22
ENDBRANCH   9  21
TORSDOF 4
ENDMDL
MODEL 3
REMARK VINA RESULT:      -5.3      4.963      7.401
REMARK  Name = 
REMARK  6 active torsions:
REMARK  status: ('A' for Active; 'I' for Inactive)
REMARK    1  A    between atoms: C_1  and  C_2
REMARK    2  A    between atoms: C_4  and  C_5
REMARK    3  A    between atoms: C_5  and  N_6
REMARK    4  A    between atoms: N_14  and  C_15
REMARK    5  A    between atoms: C_15  and  C_16
REMARK    6  A    between atoms: C_21  and  C_22
REMARK                            x       y       z     vdW  Elec       q    Type
REMARK                         _______ _______ _______ _____ _____    ______ ____
ROOT
ATOM      1  N   UNL     1      -0.787  11.978  20.604  0.00  0.00    +0.000 N 
ATOM      2  C   UNL     1      -0.316  10.926  21.410  0.00  0.00    +0.000 C 
ATOM      3  O   UNL     1       0.425  10.028  21.024  0.00  0.00    +0.000 OA
ATOM      4  C   UNL     1      -0.957  10.902  22.786  0.00  0.00    +0.000 C 
ATOM      5  O   UNL     1      -1.057  12.152  23.428  0.00  0.00    +0.000 OA
ATOM      6  C   UNL     1      -1.627  13.210  22.620  0.00  0.00    +0.000 C 
ATOM      7  C   UNL     1      -3.135  12.987  22.369  0.00  0.00    +0.000 C 
ATOM      8  C   UNL     1      -3.930  12.969  23.671  0.00  0.00    +0.000 C 
ATOM      9  N   UNL     1      -3.729  14.166  24.498  0.00  0.00    +0.000 NA
ATOM     10  C   UNL     1      -2.294  14.331  24.788  0.00  0.00    +0.000 C 
ATOM     11  C   UNL     1      -1.431  14.449  23.518  0.00  0.00    +0.000 C 
ATOM     12  C   UNL     1      -0.835  13.309  21.269  0.00  0.00    +0.000 C 
ATOM     13  C   UNL     1      -1.346  14.446  20.362  0.00  0.00    +0.000 C 
ENDROOT
BRANCH   1  14
ATOM     14  C   UNL     1      -0.439  11.868  19.195  0.00  0.00    +0.000 C 
BRANCH  14  18
ATOM     15  C   UNL     1      -5.059  11.574  17.390  0.00  0.00    +0.000 C 
ATOM     16  C   UNL     1      -3.637  11.201  17.613  0.00  0.00    +0.000 A 
ATOM     17  N   UNL     1      -2.828  11.805  18.458  0.00  0.00    +0.000 NA
ATOM     18  C   UNL     1      -1.550  11.251  18.374  0.00  0.00    +0.000 A 
ATOM     19  C   UNL     1      -1.466  10.150  17.539  0.00  0.00    +0.000 A 
ATOM     20  S   UNL     1      -2.953   9.892  16.737  0.00  0.00    +0.000 S 
ENDBRANCH  14  18
ENDBRANCH   1  14
BRANCH   9  21
ATOM     21  C   UNL     1      -4.292  15.399  23.937  0.00  0.00    +0.000 C 
BRANCH  21  22
ATOM     22  C   UNL     1      -4.229  16.545  24.901  0.00  0.00    +0.000 C 
ATOM     23  C   UNL     1      -3.848  17.913  24.394  0.00  0.00    +0.000 C 
ATOM     24  C   UNL     1      -5.256  17.651  24.846  0.00  0.00    +0.000 C 
ENDBRANCH  21  22
ENDBRANCH   9  21
TORSDOF 4
ENDMDL
MODEL 4
REMARK VINA RESULT:      -5.3      0.896      1.102
REMARK  Name = 
REMARK  6 active torsions:
REMARK  status: ('A' for Active; 'I' for Inactive)
REMARK    1  A    between atoms: C_1  and  C_2
REMARK    2  A    between atoms: C_4  and  C_5
REMARK    3  A    between atoms: C_5  and  N_6
REMARK    4  A    between atoms: N_14  and  C_15
REMARK    5  A    between atoms: C_15  and  C_16
REMARK    6  A    between atoms: C_21  and  C_22
REMARK                            x       y       z     vdW  Elec       q    Type
REMARK                         _______ _______ _______ _____ _____    ______ ____
ROOT
ATOM      1  N   UNL     1       1.339   8.729  20.047  0.00  0.00    +0.000 N 
ATOM      2  C   UNL     1       0.868   8.991  21.346  0.00  0.00    +0.000 C 
ATOM      3  O   UNL     1       1.405   8.600  22.377  0.00  0.00    +0.000 OA
ATOM      4  C   UNL     1      -0.490   9.670  21.356  0.00  0.00    +0.000 C 
ATOM      5  O   UNL     1      -0.645  10.726  20.437  0.00  0.00    +0.000 OA
ATOM      6  C   UNL     1      -0.241  10.420  19.081  0.00  0.00    +0.000 C 
ATOM      7  C   UNL     1      -1.207   9.419  18.409  0.00  0.00    +0.000 C 
ATOM      8  C   UNL     1      -2.625   9.976  18.316  0.00  0.00    +0.000 C 
ATOM      9  N   UNL     1      -2.701  11.278  17.642  0.00  0.00    +0.000 NA
ATOM     10  C   UNL     1      -1.826  12.243  18.332  0.00  0.00    +0.000 C 
ATOM     11  C   UNL     1      -0.355  11.792  18.387  0.00  0.00    +0.000 C 
ATOM     12  C   UNL     1       1.229   9.867  19.094  0.00  0.00    +0.000 C 
ATOM     13  C   UNL     1       1.760   9.558  17.681  0.00  0.00    +0.000 C 
ENDROOT
BRANCH   1  14
ATOM     14  C   UNL     1       2.475   7.821  19.984  0.00  0.00    +0.000 C 
BRANCH  14  18
ATOM     15  C   UNL     1       2.079   3.551  17.474  0.00  0.00    +0.000 C 
ATOM     16  C   UNL     1       1.924   4.512  18.598  0.00  0.00    +0.000 A 
ATOM     17  N   UNL     1       2.269   5.782  18.551  0.00  0.00    +0.000 NA
ATOM     18  C   UNL     1       2.051   6.382  19.792  0.00  0.00    +0.000 A 
ATOM     19  C   UNL     1       1.425   5.560  20.713  0.00  0.00    +0.000 A 
ATOM     20  S   UNL     1       1.243   3.982  20.082  0.00  0.00    +0.000 S 
ENDBRANCH  14  18
ENDBRANCH   1  14
BRANCH   9  21
ATOM     21  C   UNL     1      -2.405  11.243  16.206  0.00  0.00    +0.000 C 
BRANCH  21  22
ATOM     22  C   UNL     1      -2.982  10.035  15.534  0.00  0.00    +0.000 C 
ATOM     23  C   UNL     1      -4.034  10.217  14.468  0.00  0.00    +0.000 C 
ATOM     24  C   UNL     1      -2.663   9.735  14.088  0.00  0.00    +0.000 C 
ENDBRANCH  21  22
ENDBRANCH   9  21
TORSDOF 4
ENDMDL
MODEL 5
REMARK VINA RESULT:      -5.2      5.361      7.924
REMARK  Name = 
REMARK  6 active torsions:
REMARK  status: ('A' for Active; 'I' for Inactive)
REMARK    1  A    between atoms: C_1  and  C_2
REMARK    2  A    between atoms: C_4  and  C_5
REMARK    3  A    between atoms: C_5  and  N_6
REMARK    4  A    between atoms: N_14  and  C_15
REMARK    5  A    between atoms: C_15  and  C_16
REMARK    6  A    between atoms: C_21  and  C_22
REMARK                            x       y       z     vdW  Elec       q    Type
REMARK                         _______ _______ _______ _____ _____    ______ ____
ROOT
ATOM      1  N   UNL     1      -1.326  14.189  23.267  0.00  0.00    +0.000 N 
ATOM      2  C   UNL     1      -0.194  15.018  23.176  0.00  0.00    +0.000 C 
ATOM      3  O   UNL     1       0.060  15.942  23.942  0.00  0.00    +0.000 OA
ATOM      4  C   UNL     1       0.618  14.774  21.917  0.00  0.00    +0.000 C 
ATOM      5  O   UNL     1       0.837  13.421  21.591  0.00  0.00    +0.000 OA
ATOM      6  C   UNL     1      -0.350  12.592  21.599  0.00  0.00    +0.000 C 
ATOM      7  C   UNL     1      -1.295  12.936  20.426  0.00  0.00    +0.000 C 
ATOM      8  C   UNL     1      -0.626  12.709  19.073  0.00  0.00    +0.000 C 
ATOM      9  N   UNL     1      -0.087  11.354  18.905  0.00  0.00    +0.000 NA
ATOM     10  C   UNL     1       0.864  11.061  19.991  0.00  0.00    +0.000 C 
ATOM     11  C   UNL     1       0.236  11.180  21.392  0.00  0.00    +0.000 C 
ATOM     12  C   UNL     1      -1.079  12.749  22.980  0.00  0.00    +0.000 C 
ATOM     13  C   UNL     1      -2.333  11.860  23.095  0.00  0.00    +0.000 C 
ENDROOT
BRANCH   1  14
ATOM     14  C   UNL     1      -2.289  14.584  24.285  0.00  0.00    +0.000 C 
BRANCH  14  18
ATOM     15  C   UNL     1      -5.212  16.183  20.598  0.00  0.00    +0.000 C 
ATOM     16  C   UNL     1      -4.725  15.990  21.990  0.00  0.00    +0.000 A 
ATOM     17  N   UNL     1      -3.595  15.394  22.312  0.00  0.00    +0.000 NA
ATOM     18  C   UNL     1      -3.473  15.322  23.700  0.00  0.00    +0.000 A 
ATOM     19  C   UNL     1      -4.474  15.985  24.389  0.00  0.00    +0.000 A 
ATOM     20  S   UNL     1      -5.658  16.574  23.307  0.00  0.00    +0.000 S 
ENDBRANCH  14  18
ENDBRANCH   1  14
BRANCH   9  21
ATOM     21  C   UNL     1      -1.102  10.299  18.804  0.00  0.00    +0.000 C 
BRANCH  21  22
ATOM     22  C   UNL     1      -2.233  10.680  17.899  0.00  0.00    +0.000 C 
ATOM     23  C   UNL     1      -2.308  10.074  16.520  0.00  0.00    +0.000 C 
ATOM     24  C   UNL     1      -3.316   9.682  17.562  0.00  0.00    +0.000 C 
ENDBRANCH  21  22
ENDBRANCH   9  21
TORSDOF 4
ENDMDL
MODEL 6
REMARK VINA RESULT:      -5.2      5.070      7.515
REMARK  Name = 
REMARK  6 active torsions:
REMARK  status: ('A' for Active; 'I' for Inactive)
REMARK    1  A    between atoms: C_1  and  C_2
REMARK    2  A    between atoms: C_4  and  C_5
REMARK    3  A    between atoms: C_5  and  N_6
REMARK    4  A    between atoms: N_14  and  C_15
REMARK    5  A    between atoms: C_15  and  C_16
REMARK    6  A    between atoms: C_21  and  C_22
REMARK                            x       y       z     vdW  Elec       q    Type
REMARK                         _______ _______ _______ _____ _____    ______ ____
ROOT
ATOM      1  N   UNL     1      -1.100  12.321  20.563  0.00  0.00    +0.000 N 
ATOM      2  C   UNL     1      -0.677  11.214  21.321  0.00  0.00    +0.000 C 
ATOM      3  O   UNL     1      -0.080  10.243  20.867  0.00  0.00    +0.000 OA
ATOM      4  C   UNL     1      -1.185  11.248  22.751  0.00  0.00    +0.000 C 
ATOM      5  O   UNL     1      -1.085  12.494  23.399  0.00  0.00    +0.000 OA
ATOM      6  C   UNL     1      -1.606  13.617  22.649  0.00  0.00    +0.000 C 
ATOM      7  C   UNL     1      -3.146  13.566  22.539  0.00  0.00    +0.000 C 
ATOM      8  C   UNL     1      -3.814  13.623  23.910  0.00  0.00    +0.000 C 
ATOM      9  N   UNL     1      -3.404  14.781  24.715  0.00  0.00    +0.000 NA
ATOM     10  C   UNL     1      -1.939  14.783  24.869  0.00  0.00    +0.000 C 
ATOM     11  C   UNL     1      -1.190  14.817  23.524  0.00  0.00    +0.000 C 
ATOM     12  C   UNL     1      -0.937  13.642  21.229  0.00  0.00    +0.000 C 
ATOM     13  C   UNL     1      -1.399  14.839  20.374  0.00  0.00    +0.000 C 
ENDROOT
BRANCH   1  14
ATOM     14  C   UNL     1      -0.899  12.188  19.127  0.00  0.00    +0.000 C 
BRANCH  14  18
ATOM     15  C   UNL     1      -3.540  10.476  15.281  0.00  0.00    +0.000 C 
ATOM     16  C   UNL     1      -3.271  11.033  16.634  0.00  0.00    +0.000 A 
ATOM     17  N   UNL     1      -2.084  11.400  17.071  0.00  0.00    +0.000 NA
ATOM     18  C   UNL     1      -2.172  11.815  18.400  0.00  0.00    +0.000 A 
ATOM     19  C   UNL     1      -3.465  11.861  18.892  0.00  0.00    +0.000 A 
ATOM     20  S   UNL     1      -4.566  11.240  17.742  0.00  0.00    +0.000 S 
ENDBRANCH  14  18
ENDBRANCH   1  14
BRANCH   9  21
ATOM     21  C   UNL     1      -3.875  16.076  24.209  0.00  0.00    +0.000 C 
BRANCH  21  22
ATOM     22  C   UNL     1      -5.370  16.162  24.165  0.00  0.00    +0.000 C 
ATOM     23  C   UNL     1      -6.023  17.502  23.938  0.00  0.00    +0.000 C 
ATOM     24  C   UNL     1      -6.084  16.451  22.866  0.00  0.00    +0.000 C 
ENDBRANCH  21  22
ENDBRANCH   9  21
TORSDOF 4
ENDMDL
MODEL 7
REMARK VINA RESULT:      -5.2      6.075      8.607
REMARK  Name = 
REMARK  6 active torsions:
REMARK  status: ('A' for Active; 'I' for Inactive)
REMARK    1  A    between atoms: C_1  and  C_2
REMARK    2  A    between atoms: C_4  and  C_5
REMARK    3  A    between atoms: C_5  and  N_6
REMARK    4  A    between atoms: N_14  and  C_15
REMARK    5  A    between atoms: C_15  and  C_16
REMARK    6  A    between atoms: C_21  and  C_22
REMARK                            x       y       z     vdW  Elec       q    Type
REMARK                         _______ _______ _______ _____ _____    ______ ____
ROOT
ATOM      1  N   UNL     1       6.668   5.454  17.436  0.00  0.00    +0.000 N 
ATOM      2  C   UNL     1       6.587   5.324  16.038  0.00  0.00    +0.000 C 
ATOM      3  O   UNL     1       7.518   5.518  15.263  0.00  0.00    +0.000 OA
ATOM      4  C   UNL     1       5.171   5.085  15.547  0.00  0.00    +0.000 C 
ATOM      5  O   UNL     1       4.428   4.141  16.282  0.00  0.00    +0.000 OA
ATOM      6  C   UNL     1       4.442   4.334  17.717  0.00  0.00    +0.000 C 
ATOM      7  C   UNL     1       3.645   5.591  18.132  0.00  0.00    +0.000 C 
ATOM      8  C   UNL     1       2.176   5.488  17.730  0.00  0.00    +0.000 C 
ATOM      9  N   UNL     1       1.512   4.280  18.237  0.00  0.00    +0.000 NA
ATOM     10  C   UNL     1       2.243   3.085  17.779  0.00  0.00    +0.000 C 
ATOM     11  C   UNL     1       3.716   3.071  18.225  0.00  0.00    +0.000 C 
ATOM     12  C   UNL     1       5.930   4.418  18.210  0.00  0.00    +0.000 C 
ATOM     13  C   UNL     1       6.042   4.577  19.739  0.00  0.00    +0.000 C 
ENDROOT
BRANCH   1  14
ATOM     14  C   UNL     1       7.934   5.979  17.926  0.00  0.00    +0.000 C 
BRANCH  14  18
ATOM     15  C   UNL     1       9.517  10.384  19.595  0.00  0.00    +0.000 C 
ATOM     16  C   UNL     1       8.710   9.413  18.808  0.00  0.00    +0.000 A 
ATOM     17  N   UNL     1       8.773   8.105  18.942  0.00  0.00    +0.000 NA
ATOM     18  C   UNL     1       7.937   7.489  18.009  0.00  0.00    +0.000 A 
ATOM     19  C   UNL     1       7.168   8.373  17.272  0.00  0.00    +0.000 A 
ATOM     20  S   UNL     1       7.596   9.987  17.634  0.00  0.00    +0.000 S 
ENDBRANCH  14  18
ENDBRANCH   1  14
BRANCH   9  21
ATOM     21  C   UNL     1       1.324   4.249  19.692  0.00  0.00    +0.000 C 
BRANCH  21  22
ATOM     22  C   UNL     1       1.641   2.908  20.279  0.00  0.00    +0.000 C 
ATOM     23  C   UNL     1       2.678   2.808  21.369  0.00  0.00    +0.000 C 
ATOM     24  C   UNL     1       1.231   2.573  21.694  0.00  0.00    +0.000 C 
ENDBRANCH  21  22
ENDBRANCH   9  21
TORSDOF 4
ENDMDL
MODEL 8
REMARK VINA RESULT:      -5.1      4.867      7.326
REMARK  Name = 
REMARK  6 active torsions:
REMARK  status: ('A' for Active; 'I' for Inactive)
REMARK    1  A    between atoms: C_1  and  C_2
REMARK    2  A    between atoms: C_4  and  C_5
REMARK    3  A    between atoms: C_5  and  N_6
REMARK    4  A    between atoms: N_14  and  C_15
REMARK    5  A    between atoms: C_15  and  C_16
REMARK    6  A    between atoms: C_21  and  C_22
REMARK                            x       y       z     vdW  Elec       q    Type
REMARK                         _______ _______ _______ _____ _____    ______ ____
ROOT
ATOM      1  N   UNL     1      -0.715  11.648  20.228  0.00  0.00    +0.000 N 
ATOM      2  C   UNL     1      -0.318  10.599  21.078  0.00  0.00    +0.000 C 
ATOM      3  O   UNL     1       0.230   9.567  20.706  0.00  0.00    +0.000 OA
ATOM      4  C   UNL     1      -0.792  10.786  22.508  0.00  0.00    +0.000 C 
ATOM      5  O   UNL     1      -0.629  12.081  23.035  0.00  0.00    +0.000 OA
ATOM      6  C   UNL     1      -1.122  13.151  22.193  0.00  0.00    +0.000 C 
ATOM      7  C   UNL     1      -2.665  13.153  22.118  0.00  0.00    +0.000 C 
ATOM      8  C   UNL     1      -3.299  13.365  23.490  0.00  0.00    +0.000 C 
ATOM      9  N   UNL     1      -2.826  14.574  24.175  0.00  0.00    +0.000 NA
ATOM     10  C   UNL     1      -1.359  14.530  24.301  0.00  0.00    +0.000 C 
ATOM     11  C   UNL     1      -0.640  14.409  22.945  0.00  0.00    +0.000 C 
ATOM     12  C   UNL     1      -0.485  13.017  20.765  0.00  0.00    +0.000 C 
ATOM     13  C   UNL     1      -0.919  14.147  19.811  0.00  0.00    +0.000 C 
ENDROOT
BRANCH   1  14
ATOM     14  C   UNL     1      -0.551  11.374  18.807  0.00  0.00    +0.000 C 
BRANCH  14  18
ATOM     15  C   UNL     1      -3.507  10.208  14.987  0.00  0.00    +0.000 C 
ATOM     16  C   UNL     1      -3.122  10.716  16.331  0.00  0.00    +0.000 A 
ATOM     17  N   UNL     1      -1.883  10.827  16.763  0.00  0.00    +0.000 NA
ATOM     18  C   UNL     1      -1.876  11.272  18.085  0.00  0.00    +0.000 A 
ATOM     19  C   UNL     1      -3.128  11.601  18.575  0.00  0.00    +0.000 A 
ATOM     20  S   UNL     1      -4.340  11.212  17.434  0.00  0.00    +0.000 S 
ENDBRANCH  14  18
ENDBRANCH   1  14
BRANCH   9  21
ATOM     21  C   UNL     1      -3.257  15.834  23.560  0.00  0.00    +0.000 C 
BRANCH  21  22
ATOM     22  C   UNL     1      -3.629  16.869  24.578  0.00  0.00    +0.000 C 
ATOM     23  C   UNL     1      -4.287  18.147  24.123  0.00  0.00    +0.000 C 
ATOM     24  C   UNL     1      -5.078  17.138  24.906  0.00  0.00    +0.000 C 
ENDBRANCH  21  22
ENDBRANCH   9  21
TORSDOF 4
ENDMDL
MODEL 9
REMARK VINA RESULT:      -5.1      6.028      8.009
REMARK  Name = 
REMARK  6 active torsions:
REMARK  status: ('A' for Active; 'I' for Inactive)
REMARK    1  A    between atoms: C_1  and  C_2
REMARK    2  A    between atoms: C_4  and  C_5
REMARK    3  A    between atoms: C_5  and  N_6
REMARK    4  A    between atoms: N_14  and  C_15
REMARK    5  A    between atoms: C_15  and  C_16
REMARK    6  A    between atoms: C_21  and  C_22
REMARK                            x       y       z     vdW  Elec       q    Type
REMARK                         _______ _______ _______ _____ _____    ______ ____
ROOT
ATOM      1  N   UNL     1      -6.142  13.895  22.490  0.00  0.00    +0.000 N 
ATOM      2  C   UNL     1      -7.312  13.258  22.941  0.00  0.00    +0.000 C 
ATOM      3  O   UNL     1      -7.813  13.418  24.049  0.00  0.00    +0.000 OA
ATOM      4  C   UNL     1      -7.817  12.199  21.978  0.00  0.00    +0.000 C 
ATOM      5  O   UNL     1      -7.820  12.570  20.619  0.00  0.00    +0.000 OA
ATOM      6  C   UNL     1      -6.581  13.143  20.139  0.00  0.00    +0.000 C 
ATOM      7  C   UNL     1      -5.455  12.088  20.061  0.00  0.00    +0.000 C 
ATOM      8  C   UNL     1      -5.804  10.958  19.095  0.00  0.00    +0.000 C 
ATOM      9  N   UNL     1      -6.152  11.424  17.747  0.00  0.00    +0.000 NA
ATOM     10  C   UNL     1      -7.271  12.380  17.828  0.00  0.00    +0.000 C 
ATOM     11  C   UNL     1      -6.960  13.599  18.715  0.00  0.00    +0.000 C 
ATOM     12  C   UNL     1      -6.172  14.340  21.070  0.00  0.00    +0.000 C 
ATOM     13  C   UNL     1      -4.883  15.043  20.603  0.00  0.00    +0.000 C 
ENDROOT
BRANCH   1  14
ATOM     14  C   UNL     1      -5.456  14.691  23.498  0.00  0.00    +0.000 C 
BRANCH  14  18
ATOM     15  C   UNL     1      -1.500  11.718  23.051  0.00  0.00    +0.000 C 
ATOM     16  C   UNL     1      -2.275  12.947  23.367  0.00  0.00    +0.000 A 
ATOM     17  N   UNL     1      -3.588  13.039  23.311  0.00  0.00    +0.000 NA
ATOM     18  C   UNL     1      -3.988  14.343  23.604  0.00  0.00    +0.000 A 
ATOM     19  C   UNL     1      -2.953  15.176  23.994  0.00  0.00    +0.000 A 
ATOM     20  S   UNL     1      -1.451  14.372  23.852  0.00  0.00    +0.000 S 
ENDBRANCH  14  18
ENDBRANCH   1  14
BRANCH   9  21
ATOM     21  C   UNL     1      -5.033  11.997  16.989  0.00  0.00    +0.000 C 
BRANCH  21  22
ATOM     22  C   UNL     1      -3.750  11.259  17.221  0.00  0.00    +0.000 C 
ATOM     23  C   UNL     1      -3.497   9.971  16.478  0.00  0.00    +0.000 C 
ATOM     24  C   UNL     1      -2.695  11.195  16.142  0.00  0.00    +0.000 C 
ENDBRANCH  21  22
ENDBRANCH   9  21
TORSDOF 4
ENDMDL
