MODEL 1
REMARK VINA RESULT:      -7.0      0.000      0.000
REMARK  Name = 
REMARK  7 active torsions:
REMARK  status: ('A' for Active; 'I' for Inactive)
REMARK    1  A    between atoms: C_1  and  O_2
REMARK    2  A    between atoms: O_2  and  C_3
REMARK    3  A    between atoms: C_9  and  N_10
REMARK    4  A    between atoms: C_11  and  O_13
REMARK    5  A    between atoms: O_13  and  C_14
REMARK    6  A    between atoms: C_17  and  N_18
REMARK    7  A    between atoms: C_19  and  C_20
REMARK                            x       y       z     vdW  Elec       q    Type
REMARK                         _______ _______ _______ _____ _____    ______ ____
ROOT
ATOM      1  N   UNL     1       2.521   6.397  20.501  0.00  0.00    +0.000 N 
ATOM      2  C   UNL     1       1.916   5.153  20.528  0.00  0.00    +0.000 C 
ATOM      3  O   UNL     1       0.712   4.934  20.492  0.00  0.00    +0.000 OA
ATOM      4  H   UNL     1       3.523   6.425  20.639  0.00  0.00    +0.000 HD
ENDROOT
BRANCH   1  11
ATOM      5  C   UNL     1       1.806   8.087  18.871  0.00  0.00    +0.000 A 
ATOM      6  C   UNL     1       1.129   9.284  18.570  0.00  0.00    +0.000 A 
ATOM      7  C   UNL     1       0.562  10.053  19.585  0.00  0.00    +0.000 A 
ATOM      8  C   UNL     1       0.651   9.624  20.899  0.00  0.00    +0.000 A 
ATOM      9 CL   UNL     1      -0.053  10.571  22.153  0.00  0.00    +0.000 Cl
ATOM     10  C   UNL     1       1.295   8.426  21.211  0.00  0.00    +0.000 A 
ATOM     11  C   UNL     1       1.884   7.640  20.214  0.00  0.00    +0.000 A 
BRANCH   5  13
ATOM     12  C   UNL     1       3.768   7.625  17.615  0.00  0.00    +0.000 C 
ATOM     13  O   UNL     1       2.403   7.305  17.907  0.00  0.00    +0.000 OA
ENDBRANCH   5  13
ENDBRANCH   1  11
BRANCH   2  14
ATOM     14  O   UNL     1       2.871   4.127  20.565  0.00  0.00    +0.000 OA
BRANCH  14  15
ATOM     15  C   UNL     1       3.605   3.954  19.368  0.00  0.00    +0.000 A 
ATOM     16  C   UNL     1       2.942   3.628  18.187  0.00  0.00    +0.000 A 
ATOM     17  C   UNL     1       3.637   3.567  16.980  0.00  0.00    +0.000 A 
ATOM     18  C   UNL     1       4.999   3.868  16.912  0.00  0.00    +0.000 A 
ATOM     19  C   UNL     1       5.667   4.179  18.109  0.00  0.00    +0.000 A 
ATOM     20  C   UNL     1       4.971   4.229  19.336  0.00  0.00    +0.000 A 
BRANCH  18  21
ATOM     21  N   UNL     1       5.716   3.912  15.689  0.00  0.00    +0.000 N 
ATOM     22  C   UNL     1       6.049   5.057  14.972  0.00  0.00    +0.000 C 
ATOM     23  C   UNL     1       6.900   4.791  13.760  0.00  0.00    +0.000 C 
ATOM     24  O   UNL     1       5.715   6.212  15.229  0.00  0.00    +0.000 OA
ATOM     25  H   UNL     1       6.056   3.027  15.336  0.00  0.00    +0.000 HD
ENDBRANCH  18  21
ENDBRANCH  14  15
ENDBRANCH   2  14
TORSDOF 5
ENDMDL
MODEL 2
REMARK VINA RESULT:      -6.7      1.212      1.388
REMARK  Name = 
REMARK  7 active torsions:
REMARK  status: ('A' for Active; 'I' for Inactive)
REMARK    1  A    between atoms: C_1  and  O_2
REMARK    2  A    between atoms: O_2  and  C_3
REMARK    3  A    between atoms: C_9  and  N_10
REMARK    4  A    between atoms: C_11  and  O_13
REMARK    5  A    between atoms: O_13  and  C_14
REMARK    6  A    between atoms: C_17  and  N_18
REMARK    7  A    between atoms: C_19  and  C_20
REMARK                            x       y       z     vdW  Elec       q    Type
REMARK                         _______ _______ _______ _____ _____    ______ ____
ROOT
ATOM      1  N   UNL     1       3.112   6.078  19.860  0.00  0.00    +0.000 N 
ATOM      2  C   UNL     1       2.674   4.800  19.565  0.00  0.00    +0.000 C 
ATOM      3  O   UNL     1       1.515   4.464  19.354  0.00  0.00    +0.000 OA
ATOM      4  H   UNL     1       4.087   6.184  20.109  0.00  0.00    +0.000 HD
ENDROOT
BRANCH   1  11
ATOM      5  C   UNL     1       2.247   7.944  18.521  0.00  0.00    +0.000 A 
ATOM      6  C   UNL     1       1.446   9.095  18.404  0.00  0.00    +0.000 A 
ATOM      7  C   UNL     1       0.773   9.607  19.512  0.00  0.00    +0.000 A 
ATOM      8  C   UNL     1       0.880   8.964  20.734  0.00  0.00    +0.000 A 
ATOM      9 CL   UNL     1       0.045   9.591  22.102  0.00  0.00    +0.000 Cl
ATOM     10  C   UNL     1       1.649   7.805  20.861  0.00  0.00    +0.000 A 
ATOM     11  C   UNL     1       2.345   7.276  19.768  0.00  0.00    +0.000 A 
BRANCH   5  13
ATOM     12  C   UNL     1       4.317   7.829  17.363  0.00  0.00    +0.000 C 
ATOM     13  O   UNL     1       2.951   7.414  17.461  0.00  0.00    +0.000 OA
ENDBRANCH   5  13
ENDBRANCH   1  11
BRANCH   2  14
ATOM     14  O   UNL     1       3.747   3.900  19.495  0.00  0.00    +0.000 OA
BRANCH  14  15
ATOM     15  C   UNL     1       4.631   4.114  18.411  0.00  0.00    +0.000 A 
ATOM     16  C   UNL     1       4.162   4.026  17.103  0.00  0.00    +0.000 A 
ATOM     17  C   UNL     1       4.994   4.346  16.030  0.00  0.00    +0.000 A 
ATOM     18  C   UNL     1       6.299   4.800  16.235  0.00  0.00    +0.000 A 
ATOM     19  C   UNL     1       6.773   4.870  17.557  0.00  0.00    +0.000 A 
ATOM     20  C   UNL     1       5.940   4.534  18.645  0.00  0.00    +0.000 A 
BRANCH  18  21
ATOM     21  N   UNL     1       7.139   5.227  15.176  0.00  0.00    +0.000 N 
ATOM     22  C   UNL     1       7.144   4.725  13.878  0.00  0.00    +0.000 C 
ATOM     23  C   UNL     1       8.083   5.447  12.949  0.00  0.00    +0.000 C 
ATOM     24  O   UNL     1       6.485   3.780  13.449  0.00  0.00    +0.000 OA
ATOM     25  H   UNL     1       7.756   6.003  15.376  0.00  0.00    +0.000 HD
ENDBRANCH  18  21
ENDBRANCH  14  15
ENDBRANCH   2  14
TORSDOF 5
ENDMDL
MODEL 3
REMARK VINA RESULT:      -6.7      1.075      1.118
REMARK  Name = 
REMARK  7 active torsions:
REMARK  status: ('A' for Active; 'I' for Inactive)
REMARK    1  A    between atoms: C_1  and  O_2
REMARK    2  A    between atoms: O_2  and  C_3
REMARK    3  A    between atoms: C_9  and  N_10
REMARK    4  A    between atoms: C_11  and  O_13
REMARK    5  A    between atoms: O_13  and  C_14
REMARK    6  A    between atoms: C_17  and  N_18
REMARK    7  A    between atoms: C_19  and  C_20
REMARK                            x       y       z     vdW  Elec       q    Type
REMARK                         _______ _______ _______ _____ _____    ______ ____
ROOT
ATOM      1  N   UNL     1       2.258   6.665  21.016  0.00  0.00    +0.000 N 
ATOM      2  C   UNL     1       1.803   5.390  20.734  0.00  0.00    +0.000 C 
ATOM      3  O   UNL     1       0.640   5.068  20.525  0.00  0.00    +0.000 OA
ATOM      4  H   UNL     1       3.234   6.761  21.265  0.00  0.00    +0.000 HD
ENDROOT
BRANCH   1  11
ATOM      5  C   UNL     1       1.515   8.590  19.688  0.00  0.00    +0.000 A 
ATOM      6  C   UNL     1       0.732   9.753  19.554  0.00  0.00    +0.000 A 
ATOM      7  C   UNL     1      -0.026  10.225  20.624  0.00  0.00    +0.000 A 
ATOM      8  C   UNL     1      -0.022   9.533  21.824  0.00  0.00    +0.000 A 
ATOM      9 CL   UNL     1      -0.961  10.112  23.145  0.00  0.00    +0.000 Cl
ATOM     10  C   UNL     1       0.728   8.363  21.965  0.00  0.00    +0.000 A 
ATOM     11  C   UNL     1       1.508   7.873  20.911  0.00  0.00    +0.000 A 
BRANCH   5  13
ATOM     12  C   UNL     1       2.267   8.851  17.451  0.00  0.00    +0.000 C 
ATOM     13  O   UNL     1       2.299   8.097  18.668  0.00  0.00    +0.000 OA
ENDBRANCH   5  13
ENDBRANCH   1  11
BRANCH   2  14
ATOM     14  O   UNL     1       2.864   4.476  20.673  0.00  0.00    +0.000 OA
BRANCH  14  15
ATOM     15  C   UNL     1       3.592   4.490  19.461  0.00  0.00    +0.000 A 
ATOM     16  C   UNL     1       3.146   3.743  18.373  0.00  0.00    +0.000 A 
ATOM     17  C   UNL     1       3.790   3.837  17.139  0.00  0.00    +0.000 A 
ATOM     18  C   UNL     1       4.865   4.707  16.947  0.00  0.00    +0.000 A 
ATOM     19  C   UNL     1       5.323   5.445  18.053  0.00  0.00    +0.000 A 
ATOM     20  C   UNL     1       4.685   5.342  19.308  0.00  0.00    +0.000 A 
BRANCH  18  21
ATOM     21  N   UNL     1       5.480   4.901  15.685  0.00  0.00    +0.000 N 
ATOM     22  C   UNL     1       6.830   4.726  15.392  0.00  0.00    +0.000 C 
ATOM     23  C   UNL     1       7.167   4.914  13.938  0.00  0.00    +0.000 C 
ATOM     24  O   UNL     1       7.728   4.453  16.186  0.00  0.00    +0.000 OA
ATOM     25  H   UNL     1       4.866   5.142  14.918  0.00  0.00    +0.000 HD
ENDBRANCH  18  21
ENDBRANCH  14  15
ENDBRANCH   2  14
TORSDOF 5
ENDMDL
MODEL 4
REMARK VINA RESULT:      -6.7      0.406      1.082
REMARK  Name = 
REMARK  7 active torsions:
REMARK  status: ('A' for Active; 'I' for Inactive)
REMARK    1  A    between atoms: C_1  and  O_2
REMARK    2  A    between atoms: O_2  and  C_3
REMARK    3  A    between atoms: C_9  and  N_10
REMARK    4  A    between atoms: C_11  and  O_13
REMARK    5  A    between atoms: O_13  and  C_14
REMARK    6  A    between atoms: C_17  and  N_18
REMARK    7  A    between atoms: C_19  and  C_20
REMARK                            x       y       z     vdW  Elec       q    Type
REMARK                         _______ _______ _______ _____ _____    ______ ____
ROOT
ATOM      1  N   UNL     1       2.456   6.609  20.525  0.00  0.00    +0.000 N 
ATOM      2  C   UNL     1       1.930   5.331  20.553  0.00  0.00    +0.000 C 
ATOM      3  O   UNL     1       0.742   5.039  20.626  0.00  0.00    +0.000 OA
ATOM      4  H   UNL     1       3.464   6.694  20.564  0.00  0.00    +0.000 HD
ENDROOT
BRANCH   1  11
ATOM      5  C   UNL     1       1.516   8.340  19.060  0.00  0.00    +0.000 A 
ATOM      6  C   UNL     1       0.745   9.504  18.884  0.00  0.00    +0.000 A 
ATOM      7  C   UNL     1       0.208  10.173  19.983  0.00  0.00    +0.000 A 
ATOM      8  C   UNL     1       0.422   9.675  21.258  0.00  0.00    +0.000 A 
ATOM      9 CL   UNL     1      -0.245  10.497  22.615  0.00  0.00    +0.000 Cl
ATOM     10  C   UNL     1       1.162   8.506  21.447  0.00  0.00    +0.000 A 
ATOM     11  C   UNL     1       1.722   7.821  20.363  0.00  0.00    +0.000 A 
BRANCH   5  13
ATOM     12  C   UNL     1       3.407   8.080  17.647  0.00  0.00    +0.000 C 
ATOM     13  O   UNL     1       2.088   7.657  18.008  0.00  0.00    +0.000 OA
ENDBRANCH   5  13
ENDBRANCH   1  11
BRANCH   2  14
ATOM     14  O   UNL     1       2.941   4.365  20.445  0.00  0.00    +0.000 OA
BRANCH  14  15
ATOM     15  C   UNL     1       3.619   4.350  19.204  0.00  0.00    +0.000 A 
ATOM     16  C   UNL     1       4.996   4.551  19.160  0.00  0.00    +0.000 A 
ATOM     17  C   UNL     1       5.692   4.425  17.958  0.00  0.00    +0.000 A 
ATOM     18  C   UNL     1       5.041   4.056  16.779  0.00  0.00    +0.000 A 
ATOM     19  C   UNL     1       3.647   3.871  16.825  0.00  0.00    +0.000 A 
ATOM     20  C   UNL     1       2.936   4.011  18.036  0.00  0.00    +0.000 A 
BRANCH  18  21
ATOM     21  N   UNL     1       5.729   3.823  15.563  0.00  0.00    +0.000 N 
ATOM     22  C   UNL     1       6.207   4.796  14.689  0.00  0.00    +0.000 C 
ATOM     23  C   UNL     1       6.984   4.242  13.525  0.00  0.00    +0.000 C 
ATOM     24  O   UNL     1       6.046   6.011  14.780  0.00  0.00    +0.000 OA
ATOM     25  H   UNL     1       5.932   2.858  15.338  0.00  0.00    +0.000 HD
ENDBRANCH  18  21
ENDBRANCH  14  15
ENDBRANCH   2  14
TORSDOF 5
ENDMDL
MODEL 5
REMARK VINA RESULT:      -6.6      1.199      1.554
REMARK  Name = 
REMARK  7 active torsions:
REMARK  status: ('A' for Active; 'I' for Inactive)
REMARK    1  A    between atoms: C_1  and  O_2
REMARK    2  A    between atoms: O_2  and  C_3
REMARK    3  A    between atoms: C_9  and  N_10
REMARK    4  A    between atoms: C_11  and  O_13
REMARK    5  A    between atoms: O_13  and  C_14
REMARK    6  A    between atoms: C_17  and  N_18
REMARK    7  A    between atoms: C_19  and  C_20
REMARK                            x       y       z     vdW  Elec       q    Type
REMARK                         _______ _______ _______ _____ _____    ______ ____
ROOT
ATOM      1  N   UNL     1       2.303   7.142  20.763  0.00  0.00    +0.000 N 
ATOM      2  C   UNL     1       1.968   5.818  20.549  0.00  0.00    +0.000 C 
ATOM      3  O   UNL     1       0.834   5.355  20.513  0.00  0.00    +0.000 OA
ATOM      4  H   UNL     1       3.286   7.358  20.865  0.00  0.00    +0.000 HD
ENDROOT
BRANCH   1  11
ATOM      5  C   UNL     1       1.152   8.948  19.564  0.00  0.00    +0.000 A 
ATOM      6  C   UNL     1       0.224  10.006  19.549  0.00  0.00    +0.000 A 
ATOM      7  C   UNL     1      -0.427  10.397  20.718  0.00  0.00    +0.000 A 
ATOM      8  C   UNL     1      -0.169   9.724  21.901  0.00  0.00    +0.000 A 
ATOM      9 CL   UNL     1      -0.976  10.202  23.345  0.00  0.00    +0.000 Cl
ATOM     10  C   UNL     1       0.729   8.655  21.928  0.00  0.00    +0.000 A 
ATOM     11  C   UNL     1       1.405   8.249  20.772  0.00  0.00    +0.000 A 
BRANCH   5  13
ATOM     12  C   UNL     1       2.261   9.593  17.566  0.00  0.00    +0.000 C 
ATOM     13  O   UNL     1       1.838   8.541  18.440  0.00  0.00    +0.000 OA
ENDBRANCH   5  13
ENDBRANCH   1  11
BRANCH   2  14
ATOM     14  O   UNL     1       3.112   5.036  20.330  0.00  0.00    +0.000 OA
BRANCH  14  15
ATOM     15  C   UNL     1       3.543   4.976  18.985  0.00  0.00    +0.000 A 
ATOM     16  C   UNL     1       4.208   6.061  18.418  0.00  0.00    +0.000 A 
ATOM     17  C   UNL     1       4.738   5.972  17.131  0.00  0.00    +0.000 A 
ATOM     18  C   UNL     1       4.655   4.790  16.394  0.00  0.00    +0.000 A 
ATOM     19  C   UNL     1       3.968   3.703  16.963  0.00  0.00    +0.000 A 
ATOM     20  C   UNL     1       3.417   3.792  18.259  0.00  0.00    +0.000 A 
BRANCH  18  21
ATOM     21  N   UNL     1       5.266   4.632  15.124  0.00  0.00    +0.000 N 
ATOM     22  C   UNL     1       6.635   4.595  14.869  0.00  0.00    +0.000 C 
ATOM     23  C   UNL     1       6.979   4.318  13.431  0.00  0.00    +0.000 C 
ATOM     24  O   UNL     1       7.541   4.771  15.681  0.00  0.00    +0.000 OA
ATOM     25  H   UNL     1       4.644   4.484  14.341  0.00  0.00    +0.000 HD
ENDBRANCH  18  21
ENDBRANCH  14  15
ENDBRANCH   2  14
TORSDOF 5
ENDMDL
MODEL 6
REMARK VINA RESULT:      -6.5      4.276      8.322
REMARK  Name = 
REMARK  7 active torsions:
REMARK  status: ('A' for Active; 'I' for Inactive)
REMARK    1  A    between atoms: C_1  and  O_2
REMARK    2  A    between atoms: O_2  and  C_3
REMARK    3  A    between atoms: C_9  and  N_10
REMARK    4  A    between atoms: C_11  and  O_13
REMARK    5  A    between atoms: O_13  and  C_14
REMARK    6  A    between atoms: C_17  and  N_18
REMARK    7  A    between atoms: C_19  and  C_20
REMARK                            x       y       z     vdW  Elec       q    Type
REMARK                         _______ _______ _______ _____ _____    ______ ____
ROOT
ATOM      1  N   UNL     1       2.207   7.772  19.202  0.00  0.00    +0.000 N 
ATOM      2  C   UNL     1       1.830   8.932  18.551  0.00  0.00    +0.000 C 
ATOM      3  O   UNL     1       2.121   9.244  17.403  0.00  0.00    +0.000 OA
ATOM      4  H   UNL     1       1.974   7.698  20.184  0.00  0.00    +0.000 HD
ENDROOT
BRANCH   1  11
ATOM      5  C   UNL     1       2.436   5.334  19.033  0.00  0.00    +0.000 A 
ATOM      6  C   UNL     1       2.992   4.200  18.412  0.00  0.00    +0.000 A 
ATOM      7  C   UNL     1       3.944   4.338  17.403  0.00  0.00    +0.000 A 
ATOM      8  C   UNL     1       4.331   5.604  16.997  0.00  0.00    +0.000 A 
ATOM      9 CL   UNL     1       5.503   5.776  15.748  0.00  0.00    +0.000 Cl
ATOM     10  C   UNL     1       3.769   6.739  17.584  0.00  0.00    +0.000 A 
ATOM     11  C   UNL     1       2.820   6.630  18.606  0.00  0.00    +0.000 A 
BRANCH   5  13
ATOM     12  C   UNL     1       1.205   3.922  20.492  0.00  0.00    +0.000 C 
ATOM     13  O   UNL     1       1.510   5.249  20.050  0.00  0.00    +0.000 OA
ENDBRANCH   5  13
ENDBRANCH   1  11
BRANCH   2  14
ATOM     14  O   UNL     1       1.013   9.727  19.367  0.00  0.00    +0.000 OA
BRANCH  14  15
ATOM     15  C   UNL     1      -0.092  10.316  18.709  0.00  0.00    +0.000 A 
ATOM     16  C   UNL     1      -0.970   9.522  17.975  0.00  0.00    +0.000 A 
ATOM     17  C   UNL     1      -2.124  10.071  17.418  0.00  0.00    +0.000 A 
ATOM     18  C   UNL     1      -2.453  11.414  17.611  0.00  0.00    +0.000 A 
ATOM     19  C   UNL     1      -1.555  12.216  18.337  0.00  0.00    +0.000 A 
ATOM     20  C   UNL     1      -0.379  11.669  18.892  0.00  0.00    +0.000 A 
BRANCH  18  21
ATOM     21  N   UNL     1      -3.664  11.983  17.143  0.00  0.00    +0.000 N 
ATOM     22  C   UNL     1      -4.936  11.752  17.662  0.00  0.00    +0.000 C 
ATOM     23  C   UNL     1      -6.016  12.576  17.016  0.00  0.00    +0.000 C 
ATOM     24  O   UNL     1      -5.236  10.962  18.555  0.00  0.00    +0.000 OA
ATOM     25  H   UNL     1      -3.585  12.656  16.393  0.00  0.00    +0.000 HD
ENDBRANCH  18  21
ENDBRANCH  14  15
ENDBRANCH   2  14
TORSDOF 5
ENDMDL
MODEL 7
REMARK VINA RESULT:      -6.5      4.092      6.017
REMARK  Name = 
REMARK  7 active torsions:
REMARK  status: ('A' for Active; 'I' for Inactive)
REMARK    1  A    between atoms: C_1  and  O_2
REMARK    2  A    between atoms: O_2  and  C_3
REMARK    3  A    between atoms: C_9  and  N_10
REMARK    4  A    between atoms: C_11  and  O_13
REMARK    5  A    between atoms: O_13  and  C_14
REMARK    6  A    between atoms: C_17  and  N_18
REMARK    7  A    between atoms: C_19  and  C_20
REMARK                            x       y       z     vdW  Elec       q    Type
REMARK                         _______ _______ _______ _____ _____    ______ ____
ROOT
ATOM      1  N   UNL     1      -0.872  10.170  18.566  0.00  0.00    +0.000 N 
ATOM      2  C   UNL     1       0.208  10.981  18.863  0.00  0.00    +0.000 C 
ATOM      3  O   UNL     1       0.410  12.106  18.421  0.00  0.00    +0.000 OA
ATOM      4  H   UNL     1      -0.853   9.226  18.929  0.00  0.00    +0.000 HD
ENDROOT
BRANCH   1  11
ATOM      5  C   UNL     1      -3.004  11.385  18.516  0.00  0.00    +0.000 A 
ATOM      6  C   UNL     1      -4.145  11.822  17.817  0.00  0.00    +0.000 A 
ATOM      7  C   UNL     1      -4.367  11.421  16.500  0.00  0.00    +0.000 A 
ATOM      8  C   UNL     1      -3.446  10.601  15.870  0.00  0.00    +0.000 A 
ATOM      9 CL   UNL     1      -3.716  10.110  14.243  0.00  0.00    +0.000 Cl
ATOM     10  C   UNL     1      -2.295  10.181  16.541  0.00  0.00    +0.000 A 
ATOM     11  C   UNL     1      -2.053  10.558  17.867  0.00  0.00    +0.000 A 
BRANCH   5  13
ATOM     12  C   UNL     1      -3.447  12.895  20.295  0.00  0.00    +0.000 C 
ATOM     13  O   UNL     1      -2.753  11.734  19.825  0.00  0.00    +0.000 OA
ENDBRANCH   5  13
ENDBRANCH   1  11
BRANCH   2  14
ATOM     14  O   UNL     1       1.062  10.367  19.790  0.00  0.00    +0.000 OA
BRANCH  14  15
ATOM     15  C   UNL     1       1.492   9.068  19.433  0.00  0.00    +0.000 A 
ATOM     16  C   UNL     1       2.029   8.836  18.169  0.00  0.00    +0.000 A 
ATOM     17  C   UNL     1       2.561   7.588  17.844  0.00  0.00    +0.000 A 
ATOM     18  C   UNL     1       2.609   6.555  18.782  0.00  0.00    +0.000 A 
ATOM     19  C   UNL     1       2.050   6.789  20.051  0.00  0.00    +0.000 A 
ATOM     20  C   UNL     1       1.498   8.045  20.380  0.00  0.00    +0.000 A 
BRANCH  18  21
ATOM     21  N   UNL     1       3.229   5.308  18.520  0.00  0.00    +0.000 N 
ATOM     22  C   UNL     1       2.657   4.229  17.852  0.00  0.00    +0.000 C 
ATOM     23  C   UNL     1       3.598   3.074  17.640  0.00  0.00    +0.000 C 
ATOM     24  O   UNL     1       1.499   4.142  17.448  0.00  0.00    +0.000 OA
ATOM     25  H   UNL     1       4.196   5.218  18.804  0.00  0.00    +0.000 HD
ENDBRANCH  18  21
ENDBRANCH  14  15
ENDBRANCH   2  14
TORSDOF 5
ENDMDL
MODEL 8
REMARK VINA RESULT:      -6.5      3.291      4.921
REMARK  Name = 
REMARK  7 active torsions:
REMARK  status: ('A' for Active; 'I' for Inactive)
REMARK    1  A    between atoms: C_1  and  O_2
REMARK    2  A    between atoms: O_2  and  C_3
REMARK    3  A    between atoms: C_9  and  N_10
REMARK    4  A    between atoms: C_11  and  O_13
REMARK    5  A    between atoms: O_13  and  C_14
REMARK    6  A    between atoms: C_17  and  N_18
REMARK    7  A    between atoms: C_19  and  C_20
REMARK                            x       y       z     vdW  Elec       q    Type
REMARK                         _______ _______ _______ _____ _____    ______ ____
ROOT
ATOM      1  N   UNL     1       0.462   9.888  19.457  0.00  0.00    +0.000 N 
ATOM      2  C   UNL     1       0.544   9.060  20.561  0.00  0.00    +0.000 C 
ATOM      3  O   UNL     1      -0.364   8.802  21.341  0.00  0.00    +0.000 OA
ATOM      4  H   UNL     1       1.323  10.085  18.963  0.00  0.00    +0.000 HD
ENDROOT
BRANCH   1  11
ATOM      5  C   UNL     1      -1.355  11.536  19.520  0.00  0.00    +0.000 A 
ATOM      6  C   UNL     1      -2.501  12.114  18.942  0.00  0.00    +0.000 A 
ATOM      7  C   UNL     1      -3.050  11.586  17.775  0.00  0.00    +0.000 A 
ATOM      8  C   UNL     1      -2.450  10.493  17.170  0.00  0.00    +0.000 A 
ATOM      9 CL   UNL     1      -3.123   9.843  15.726  0.00  0.00    +0.000 Cl
ATOM     10  C   UNL     1      -1.297   9.925  17.717  0.00  0.00    +0.000 A 
ATOM     11  C   UNL     1      -0.732  10.428  18.894  0.00  0.00    +0.000 A 
BRANCH   5  13
ATOM     12  C   UNL     1      -1.694  12.170  21.784  0.00  0.00    +0.000 C 
ATOM     13  O   UNL     1      -0.790  12.007  20.686  0.00  0.00    +0.000 OA
ENDBRANCH   5  13
ENDBRANCH   1  11
BRANCH   2  14
ATOM     14  O   UNL     1       1.823   8.494  20.675  0.00  0.00    +0.000 OA
BRANCH  14  15
ATOM     15  C   UNL     1       1.954   7.203  20.112  0.00  0.00    +0.000 A 
ATOM     16  C   UNL     1       2.568   7.043  18.872  0.00  0.00    +0.000 A 
ATOM     17  C   UNL     1       2.805   5.768  18.360  0.00  0.00    +0.000 A 
ATOM     18  C   UNL     1       2.475   4.623  19.086  0.00  0.00    +0.000 A 
ATOM     19  C   UNL     1       1.839   4.789  20.329  0.00  0.00    +0.000 A 
ATOM     20  C   UNL     1       1.584   6.077  20.846  0.00  0.00    +0.000 A 
BRANCH  18  21
ATOM     21  N   UNL     1       2.790   3.314  18.640  0.00  0.00    +0.000 N 
ATOM     22  C   UNL     1       3.912   2.572  18.997  0.00  0.00    +0.000 C 
ATOM     23  C   UNL     1       3.922   1.175  18.439  0.00  0.00    +0.000 C 
ATOM     24  O   UNL     1       4.856   2.948  19.688  0.00  0.00    +0.000 OA
ATOM     25  H   UNL     1       2.105   2.864  18.047  0.00  0.00    +0.000 HD
ENDBRANCH  18  21
ENDBRANCH  14  15
ENDBRANCH   2  14
TORSDOF 5
ENDMDL
MODEL 9
REMARK VINA RESULT:      -6.5      5.970      7.367
REMARK  Name = 
REMARK  7 active torsions:
REMARK  status: ('A' for Active; 'I' for Inactive)
REMARK    1  A    between atoms: C_1  and  O_2
REMARK    2  A    between atoms: O_2  and  C_3
REMARK    3  A    between atoms: C_9  and  N_10
REMARK    4  A    between atoms: C_11  and  O_13
REMARK    5  A    between atoms: O_13  and  C_14
REMARK    6  A    between atoms: C_17  and  N_18
REMARK    7  A    between atoms: C_19  and  C_20
REMARK                            x       y       z     vdW  Elec       q    Type
REMARK                         _______ _______ _______ _____ _____    ______ ____
ROOT
ATOM      1  N   UNL     1       9.274   9.669  19.138  0.00  0.00    +0.000 N 
ATOM      2  C   UNL     1       8.336   9.521  18.133  0.00  0.00    +0.000 C 
ATOM      3  O   UNL     1       7.474  10.334  17.823  0.00  0.00    +0.000 OA
ATOM      4  H   UNL     1       9.859   8.870  19.344  0.00  0.00    +0.000 HD
ENDROOT
BRANCH   1  11
ATOM      5  C   UNL     1      10.345  11.875  19.252  0.00  0.00    +0.000 A 
ATOM      6  C   UNL     1      10.582  13.084  19.933  0.00  0.00    +0.000 A 
ATOM      7  C   UNL     1      10.076  13.287  21.216  0.00  0.00    +0.000 A 
ATOM      8  C   UNL     1       9.318  12.295  21.817  0.00  0.00    +0.000 A 
ATOM      9 CL   UNL     1       8.689  12.547  23.399  0.00  0.00    +0.000 Cl
ATOM     10  C   UNL     1       9.052  11.101  21.144  0.00  0.00    +0.000 A 
ATOM     11  C   UNL     1       9.556  10.866  19.861  0.00  0.00    +0.000 A 
BRANCH   5  13
ATOM     12  C   UNL     1      11.844  12.531  17.531  0.00  0.00    +0.000 C 
ATOM     13  O   UNL     1      10.843  11.617  17.993  0.00  0.00    +0.000 OA
ENDBRANCH   5  13
ENDBRANCH   1  11
BRANCH   2  14
ATOM     14  O   UNL     1       8.510   8.307  17.454  0.00  0.00    +0.000 OA
BRANCH  14  15
ATOM     15  C   UNL     1       7.665   7.258  17.886  0.00  0.00    +0.000 A 
ATOM     16  C   UNL     1       6.503   6.963  17.177  0.00  0.00    +0.000 A 
ATOM     17  C   UNL     1       5.722   5.861  17.525  0.00  0.00    +0.000 A 
ATOM     18  C   UNL     1       6.100   5.003  18.558  0.00  0.00    +0.000 A 
ATOM     19  C   UNL     1       7.265   5.314  19.283  0.00  0.00    +0.000 A 
ATOM     20  C   UNL     1       8.051   6.436  18.944  0.00  0.00    +0.000 A 
BRANCH  18  21
ATOM     21  N   UNL     1       5.385   3.821  18.875  0.00  0.00    +0.000 N 
ATOM     22  C   UNL     1       4.132   3.755  19.478  0.00  0.00    +0.000 C 
ATOM     23  C   UNL     1       3.586   2.357  19.598  0.00  0.00    +0.000 C 
ATOM     24  O   UNL     1       3.470   4.697  19.908  0.00  0.00    +0.000 OA
ATOM     25  H   UNL     1       5.809   2.948  18.590  0.00  0.00    +0.000 HD
ENDBRANCH  18  21
ENDBRANCH  14  15
ENDBRANCH   2  14
TORSDOF 5
ENDMDL
