MODEL 1
REMARK VINA RESULT:      -7.7      0.000      0.000
REMARK  Name = 
REMARK  14 active torsions:
REMARK  status: ('A' for Active; 'I' for Inactive)
REMARK    1  A    between atoms: C_1  and  O_2
REMARK    2  A    between atoms: O_2  and  C_3
REMARK    3  A    between atoms: C_6  and  C_7
REMARK    4  A    between atoms: C_7  and  C_8
REMARK    5  A    between atoms: C_8  and  N_9
REMARK    6  A    between atoms: N_9  and  C_10
REMARK    7  A    between atoms: C_10  and  C_11
REMARK    8  A    between atoms: C_10  and  C_12
REMARK    9  A    between atoms: C_12  and  O_13
REMARK   10  A    between atoms: C_12  and  C_14
REMARK   11  A    between atoms: C_14  and  O_15
REMARK   12  A    between atoms: O_15  and  C_16
REMARK   13  A    between atoms: C_27  and  O_28
REMARK   14  A    between atoms: O_28  and  C_29
REMARK                            x       y       z     vdW  Elec       q    Type
REMARK                         _______ _______ _______ _____ _____    ______ ____
ROOT
ATOM      1  C   UNL     1       1.482   3.030  20.535  0.00  0.00    +0.000 C 
ATOM      2  C   UNL     1       1.225   2.368  19.174  0.00  0.00    +0.000 C 
ENDROOT
BRANCH   1   3
ATOM      3  N   UNL     1       1.121   4.471  20.508  0.00  0.00    +0.000 NA
ATOM      4  H   UNL     1       0.108   4.582  20.494  0.00  0.00    +0.000 HD
BRANCH   3   5
ATOM      5  C   UNL     1       1.638   5.155  19.313  0.00  0.00    +0.000 C 
BRANCH   5   6
ATOM      6  C   UNL     1       2.718   6.188  19.673  0.00  0.00    +0.000 C 
BRANCH   6  10
ATOM      7  C   UNL     1       0.861  10.003  18.865  0.00  0.00    +0.000 A 
ATOM      8  C   UNL     1       1.596   9.338  17.869  0.00  0.00    +0.000 A 
ATOM      9  C   UNL     1       2.234   8.128  18.136  0.00  0.00    +0.000 A 
ATOM     10  C   UNL     1       2.182   7.576  19.416  0.00  0.00    +0.000 A 
ATOM     11  C   UNL     1       1.527   8.283  20.431  0.00  0.00    +0.000 A 
ATOM     12  C   UNL     1       0.867   9.496  20.173  0.00  0.00    +0.000 A 
BRANCH   7  14
ATOM     13  C   UNL     1      -1.215  10.962  18.242  0.00  0.00    +0.000 C 
ATOM     14  O   UNL     1       0.159  11.144  18.582  0.00  0.00    +0.000 OA
ENDBRANCH   7  14
BRANCH  12  15
ATOM     15  O   UNL     1       0.274  10.003  21.299  0.00  0.00    +0.000 OA
ATOM     16  C   UNL     1      -0.305   9.108  22.234  0.00  0.00    +0.000 C 
ENDBRANCH  12  15
ENDBRANCH   6  10
ENDBRANCH   5   6
ENDBRANCH   3   5
ENDBRANCH   1   3
BRANCH   1  17
ATOM     17  C   UNL     1       2.980   2.829  20.944  0.00  0.00    +0.000 C 
BRANCH  17  18
ATOM     18  O   UNL     1       3.067   2.029  22.126  0.00  0.00    +0.000 OA
ATOM     19  H   UNL     1       3.633   1.270  21.901  0.00  0.00    +0.000 HD
ENDBRANCH  17  18
BRANCH  17  20
ATOM     20  C   UNL     1       3.762   2.178  19.790  0.00  0.00    +0.000 C 
BRANCH  20  21
ATOM     21  O   UNL     1       5.006   2.810  19.553  0.00  0.00    +0.000 OA
BRANCH  21  22
ATOM     22  C   UNL     1       5.090   3.768  18.567  0.00  0.00    +0.000 A 
ATOM     23  C   UNL     1       4.176   3.476  17.541  0.00  0.00    +0.000 A 
ATOM     24  C   UNL     1       4.135   4.234  16.380  0.00  0.00    +0.000 A 
ATOM     25  C   UNL     1       5.058   5.256  16.204  0.00  0.00    +0.000 A 
ATOM     26  C   UNL     1       5.996   5.569  17.199  0.00  0.00    +0.000 A 
ATOM     27  C   UNL     1       6.959   6.558  16.929  0.00  0.00    +0.000 A 
ATOM     28  C   UNL     1       7.889   6.949  17.887  0.00  0.00    +0.000 A 
ATOM     29  C   UNL     1       7.815   6.418  19.159  0.00  0.00    +0.000 A 
ATOM     30  C   UNL     1       6.864   5.426  19.434  0.00  0.00    +0.000 A 
ATOM     31  C   UNL     1       5.981   4.891  18.447  0.00  0.00    +0.000 A 
ENDBRANCH  21  22
ENDBRANCH  20  21
ENDBRANCH  17  20
ENDBRANCH   1  17
TORSDOF 11
ENDMDL
MODEL 2
REMARK VINA RESULT:      -7.4      4.786      7.754
REMARK  Name = 
REMARK  14 active torsions:
REMARK  status: ('A' for Active; 'I' for Inactive)
REMARK    1  A    between atoms: C_1  and  O_2
REMARK    2  A    between atoms: O_2  and  C_3
REMARK    3  A    between atoms: C_6  and  C_7
REMARK    4  A    between atoms: C_7  and  C_8
REMARK    5  A    between atoms: C_8  and  N_9
REMARK    6  A    between atoms: N_9  and  C_10
REMARK    7  A    between atoms: C_10  and  C_11
REMARK    8  A    between atoms: C_10  and  C_12
REMARK    9  A    between atoms: C_12  and  O_13
REMARK   10  A    between atoms: C_12  and  C_14
REMARK   11  A    between atoms: C_14  and  O_15
REMARK   12  A    between atoms: O_15  and  C_16
REMARK   13  A    between atoms: C_27  and  O_28
REMARK   14  A    between atoms: O_28  and  C_29
REMARK                            x       y       z     vdW  Elec       q    Type
REMARK                         _______ _______ _______ _____ _____    ______ ____
ROOT
ATOM      1  C   UNL     1       7.555   6.247  17.836  0.00  0.00    +0.000 C 
ATOM      2  C   UNL     1       7.108   5.670  19.186  0.00  0.00    +0.000 C 
ENDROOT
BRANCH   1   3
ATOM      3  N   UNL     1       7.220   7.691  17.732  0.00  0.00    +0.000 NA
ATOM      4  H   UNL     1       7.187   7.977  16.753  0.00  0.00    +0.000 HD
BRANCH   3   5
ATOM      5  C   UNL     1       8.220   8.546  18.389  0.00  0.00    +0.000 C 
BRANCH   5   6
ATOM      6  C   UNL     1       8.329   9.919  17.705  0.00  0.00    +0.000 C 
BRANCH   6  10
ATOM      7  C   UNL     1      11.276  12.503  19.519  0.00  0.00    +0.000 A 
ATOM      8  C   UNL     1      11.425  12.066  18.192  0.00  0.00    +0.000 A 
ATOM      9  C   UNL     1      10.501  11.197  17.614  0.00  0.00    +0.000 A 
ATOM     10  C   UNL     1       9.428  10.716  18.365  0.00  0.00    +0.000 A 
ATOM     11  C   UNL     1       9.330  11.079  19.714  0.00  0.00    +0.000 A 
ATOM     12  C   UNL     1      10.245  11.965  20.305  0.00  0.00    +0.000 A 
BRANCH   7  14
ATOM     13  C   UNL     1      12.333  14.612  19.293  0.00  0.00    +0.000 C 
ATOM     14  O   UNL     1      12.131  13.425  20.060  0.00  0.00    +0.000 OA
ENDBRANCH   7  14
BRANCH  12  15
ATOM     15  O   UNL     1       9.950  12.201  21.621  0.00  0.00    +0.000 OA
ATOM     16  C   UNL     1       8.653  11.889  22.102  0.00  0.00    +0.000 C 
ENDBRANCH  12  15
ENDBRANCH   6  10
ENDBRANCH   5   6
ENDBRANCH   3   5
ENDBRANCH   1   3
BRANCH   1  17
ATOM     17  C   UNL     1       6.902   5.429  16.672  0.00  0.00    +0.000 C 
BRANCH  17  18
ATOM     18  O   UNL     1       6.876   4.037  17.000  0.00  0.00    +0.000 OA
ATOM     19  H   UNL     1       7.209   3.566  16.216  0.00  0.00    +0.000 HD
ENDBRANCH  17  18
BRANCH  17  20
ATOM     20  C   UNL     1       5.482   5.947  16.390  0.00  0.00    +0.000 C 
BRANCH  20  21
ATOM     21  O   UNL     1       4.486   4.977  16.657  0.00  0.00    +0.000 OA
BRANCH  21  22
ATOM     22  C   UNL     1       3.550   5.235  17.634  0.00  0.00    +0.000 A 
ATOM     23  C   UNL     1       3.636   6.578  18.034  0.00  0.00    +0.000 A 
ATOM     24  C   UNL     1       2.867   7.065  19.081  0.00  0.00    +0.000 A 
ATOM     25  C   UNL     1       2.050   6.191  19.786  0.00  0.00    +0.000 A 
ATOM     26  C   UNL     1       1.948   4.840  19.427  0.00  0.00    +0.000 A 
ATOM     27  C   UNL     1       1.170   3.986  20.229  0.00  0.00    +0.000 A 
ATOM     28  C   UNL     1       0.989   2.646  19.905  0.00  0.00    +0.000 A 
ATOM     29  C   UNL     1       1.514   2.158  18.725  0.00  0.00    +0.000 A 
ATOM     30  C   UNL     1       2.297   2.999  17.923  0.00  0.00    +0.000 A 
ATOM     31  C   UNL     1       2.628   4.341  18.284  0.00  0.00    +0.000 A 
ENDBRANCH  21  22
ENDBRANCH  20  21
ENDBRANCH  17  20
ENDBRANCH   1  17
TORSDOF 11
ENDMDL
MODEL 3
REMARK VINA RESULT:      -7.3      2.169      6.389
REMARK  Name = 
REMARK  14 active torsions:
REMARK  status: ('A' for Active; 'I' for Inactive)
REMARK    1  A    between atoms: C_1  and  O_2
REMARK    2  A    between atoms: O_2  and  C_3
REMARK    3  A    between atoms: C_6  and  C_7
REMARK    4  A    between atoms: C_7  and  C_8
REMARK    5  A    between atoms: C_8  and  N_9
REMARK    6  A    between atoms: N_9  and  C_10
REMARK    7  A    between atoms: C_10  and  C_11
REMARK    8  A    between atoms: C_10  and  C_12
REMARK    9  A    between atoms: C_12  and  O_13
REMARK   10  A    between atoms: C_12  and  C_14
REMARK   11  A    between atoms: C_14  and  O_15
REMARK   12  A    between atoms: O_15  and  C_16
REMARK   13  A    between atoms: C_27  and  O_28
REMARK   14  A    between atoms: O_28  and  C_29
REMARK                            x       y       z     vdW  Elec       q    Type
REMARK                         _______ _______ _______ _____ _____    ______ ____
ROOT
ATOM      1  C   UNL     1       1.439   2.558  19.481  0.00  0.00    +0.000 C 
ATOM      2  C   UNL     1       1.560   2.554  21.011  0.00  0.00    +0.000 C 
ENDROOT
BRANCH   1   3
ATOM      3  N   UNL     1       2.327   1.536  18.869  0.00  0.00    +0.000 NA
ATOM      4  H   UNL     1       2.741   0.947  19.592  0.00  0.00    +0.000 HD
BRANCH   3   5
ATOM      5  C   UNL     1       3.444   2.139  18.125  0.00  0.00    +0.000 C 
BRANCH   5   6
ATOM      6  C   UNL     1       4.514   2.708  19.071  0.00  0.00    +0.000 C 
BRANCH   6  10
ATOM      7  C   UNL     1       6.482   6.109  17.280  0.00  0.00    +0.000 A 
ATOM      8  C   UNL     1       6.459   5.948  18.676  0.00  0.00    +0.000 A 
ATOM      9  C   UNL     1       5.788   4.876  19.263  0.00  0.00    +0.000 A 
ATOM     10  C   UNL     1       5.094   3.964  18.467  0.00  0.00    +0.000 A 
ATOM     11  C   UNL     1       5.041   4.176  17.084  0.00  0.00    +0.000 A 
ATOM     12  C   UNL     1       5.724   5.243  16.478  0.00  0.00    +0.000 A 
BRANCH   7  14
ATOM     13  C   UNL     1       7.747   8.090  17.585  0.00  0.00    +0.000 C 
ATOM     14  O   UNL     1       7.214   7.109  16.697  0.00  0.00    +0.000 OA
ENDBRANCH   7  14
BRANCH  12  15
ATOM     15  O   UNL     1       5.557   5.249  15.119  0.00  0.00    +0.000 OA
ATOM     16  C   UNL     1       6.271   4.309  14.333  0.00  0.00    +0.000 C 
ENDBRANCH  12  15
ENDBRANCH   6  10
ENDBRANCH   5   6
ENDBRANCH   3   5
ENDBRANCH   1   3
BRANCH   1  17
ATOM     17  C   UNL     1       1.758   3.989  18.930  0.00  0.00    +0.000 C 
BRANCH  17  18
ATOM     18  O   UNL     1       0.934   4.278  17.799  0.00  0.00    +0.000 OA
ATOM     19  H   UNL     1       1.010   3.512  17.203  0.00  0.00    +0.000 HD
ENDBRANCH  17  18
BRANCH  17  20
ATOM     20  C   UNL     1       1.554   5.040  20.034  0.00  0.00    +0.000 C 
BRANCH  20  21
ATOM     21  O   UNL     1       2.482   6.105  19.949  0.00  0.00    +0.000 OA
BRANCH  21  22
ATOM     22  C   UNL     1       2.044   7.337  19.517  0.00  0.00    +0.000 A 
ATOM     23  C   UNL     1       2.462   7.555  18.195  0.00  0.00    +0.000 A 
ATOM     24  C   UNL     1       2.235   8.769  17.562  0.00  0.00    +0.000 A 
ATOM     25  C   UNL     1       1.644   9.804  18.272  0.00  0.00    +0.000 A 
ATOM     26  C   UNL     1       1.225   9.630  19.599  0.00  0.00    +0.000 A 
ATOM     27  C   UNL     1       0.709  10.739  20.294  0.00  0.00    +0.000 A 
ATOM     28  C   UNL     1       0.233  10.626  21.596  0.00  0.00    +0.000 A 
ATOM     29  C   UNL     1       0.187   9.383  22.194  0.00  0.00    +0.000 A 
ATOM     30  C   UNL     1       0.705   8.274  21.513  0.00  0.00    +0.000 A 
ATOM     31  C   UNL     1       1.332   8.363  20.232  0.00  0.00    +0.000 A 
ENDBRANCH  21  22
ENDBRANCH  20  21
ENDBRANCH  17  20
ENDBRANCH   1  17
TORSDOF 11
ENDMDL
MODEL 4
REMARK VINA RESULT:      -7.3      4.680      7.527
REMARK  Name = 
REMARK  14 active torsions:
REMARK  status: ('A' for Active; 'I' for Inactive)
REMARK    1  A    between atoms: C_1  and  O_2
REMARK    2  A    between atoms: O_2  and  C_3
REMARK    3  A    between atoms: C_6  and  C_7
REMARK    4  A    between atoms: C_7  and  C_8
REMARK    5  A    between atoms: C_8  and  N_9
REMARK    6  A    between atoms: N_9  and  C_10
REMARK    7  A    between atoms: C_10  and  C_11
REMARK    8  A    between atoms: C_10  and  C_12
REMARK    9  A    between atoms: C_12  and  O_13
REMARK   10  A    between atoms: C_12  and  C_14
REMARK   11  A    between atoms: C_14  and  O_15
REMARK   12  A    between atoms: O_15  and  C_16
REMARK   13  A    between atoms: C_27  and  O_28
REMARK   14  A    between atoms: O_28  and  C_29
REMARK                            x       y       z     vdW  Elec       q    Type
REMARK                         _______ _______ _______ _____ _____    ______ ____
ROOT
ATOM      1  C   UNL     1       7.518   6.131  17.362  0.00  0.00    +0.000 C 
ATOM      2  C   UNL     1       7.253   5.747  18.824  0.00  0.00    +0.000 C 
ENDROOT
BRANCH   1   3
ATOM      3  N   UNL     1       7.240   7.572  17.126  0.00  0.00    +0.000 NA
ATOM      4  H   UNL     1       7.547   7.843  16.192  0.00  0.00    +0.000 HD
BRANCH   3   5
ATOM      5  C   UNL     1       7.952   8.442  18.074  0.00  0.00    +0.000 C 
BRANCH   5   6
ATOM      6  C   UNL     1       8.618   9.631  17.362  0.00  0.00    +0.000 C 
BRANCH   6  10
ATOM      7  C   UNL     1       9.920  12.646  20.167  0.00  0.00    +0.000 A 
ATOM      8  C   UNL     1       9.741  11.314  20.578  0.00  0.00    +0.000 A 
ATOM      9  C   UNL     1       9.279  10.345  19.689  0.00  0.00    +0.000 A 
ATOM     10  C   UNL     1       8.950  10.696  18.379  0.00  0.00    +0.000 A 
ATOM     11  C   UNL     1       9.042  12.040  17.996  0.00  0.00    +0.000 A 
ATOM     12  C   UNL     1       9.520  13.023  18.877  0.00  0.00    +0.000 A 
BRANCH   7  14
ATOM     13  C   UNL     1       9.610  14.023  22.071  0.00  0.00    +0.000 C 
ATOM     14  O   UNL     1      10.458  13.579  21.012  0.00  0.00    +0.000 OA
ENDBRANCH   7  14
BRANCH  12  15
ATOM     15  O   UNL     1       9.550  14.261  18.291  0.00  0.00    +0.000 OA
ATOM     16  C   UNL     1       8.530  15.196  18.603  0.00  0.00    +0.000 C 
ENDBRANCH  12  15
ENDBRANCH   6  10
ENDBRANCH   5   6
ENDBRANCH   3   5
ENDBRANCH   1   3
BRANCH   1  17
ATOM     17  C   UNL     1       6.660   5.226  16.415  0.00  0.00    +0.000 C 
BRANCH  17  18
ATOM     18  O   UNL     1       6.580   3.899  16.940  0.00  0.00    +0.000 OA
ATOM     19  H   UNL     1       7.301   3.396  16.521  0.00  0.00    +0.000 HD
ENDBRANCH  17  18
BRANCH  17  20
ATOM     20  C   UNL     1       5.256   5.826  16.237  0.00  0.00    +0.000 C 
BRANCH  20  21
ATOM     21  O   UNL     1       4.228   4.921  16.597  0.00  0.00    +0.000 OA
BRANCH  21  22
ATOM     22  C   UNL     1       3.385   5.249  17.635  0.00  0.00    +0.000 A 
ATOM     23  C   UNL     1       3.558   6.599  17.981  0.00  0.00    +0.000 A 
ATOM     24  C   UNL     1       2.896   7.150  19.069  0.00  0.00    +0.000 A 
ATOM     25  C   UNL     1       2.102   6.335  19.864  0.00  0.00    +0.000 A 
ATOM     26  C   UNL     1       1.916   4.979  19.559  0.00  0.00    +0.000 A 
ATOM     27  C   UNL     1       1.168   4.185  20.449  0.00  0.00    +0.000 A 
ATOM     28  C   UNL     1       0.907   2.845  20.184  0.00  0.00    +0.000 A 
ATOM     29  C   UNL     1       1.316   2.300  18.984  0.00  0.00    +0.000 A 
ATOM     30  C   UNL     1       2.067   3.080  18.096  0.00  0.00    +0.000 A 
ATOM     31  C   UNL     1       2.481   4.417  18.384  0.00  0.00    +0.000 A 
ENDBRANCH  21  22
ENDBRANCH  20  21
ENDBRANCH  17  20
ENDBRANCH   1  17
TORSDOF 11
ENDMDL
MODEL 5
REMARK VINA RESULT:      -7.3      2.286      6.560
REMARK  Name = 
REMARK  14 active torsions:
REMARK  status: ('A' for Active; 'I' for Inactive)
REMARK    1  A    between atoms: C_1  and  O_2
REMARK    2  A    between atoms: O_2  and  C_3
REMARK    3  A    between atoms: C_6  and  C_7
REMARK    4  A    between atoms: C_7  and  C_8
REMARK    5  A    between atoms: C_8  and  N_9
REMARK    6  A    between atoms: N_9  and  C_10
REMARK    7  A    between atoms: C_10  and  C_11
REMARK    8  A    between atoms: C_10  and  C_12
REMARK    9  A    between atoms: C_12  and  O_13
REMARK   10  A    between atoms: C_12  and  C_14
REMARK   11  A    between atoms: C_14  and  O_15
REMARK   12  A    between atoms: O_15  and  C_16
REMARK   13  A    between atoms: C_27  and  O_28
REMARK   14  A    between atoms: O_28  and  C_29
REMARK                            x       y       z     vdW  Elec       q    Type
REMARK                         _______ _______ _______ _____ _____    ______ ____
ROOT
ATOM      1  C   UNL     1       1.681   3.200  19.235  0.00  0.00    +0.000 C 
ATOM      2  C   UNL     1       0.400   2.380  19.027  0.00  0.00    +0.000 C 
ENDROOT
BRANCH   1   3
ATOM      3  N   UNL     1       2.877   2.321  19.299  0.00  0.00    +0.000 NA
ATOM      4  H   UNL     1       3.508   2.633  20.037  0.00  0.00    +0.000 HD
BRANCH   3   5
ATOM      5  C   UNL     1       3.651   2.336  18.048  0.00  0.00    +0.000 C 
BRANCH   5   6
ATOM      6  C   UNL     1       3.365   3.600  17.220  0.00  0.00    +0.000 C 
BRANCH   6  10
ATOM      7  C   UNL     1       6.823   5.132  15.135  0.00  0.00    +0.000 A 
ATOM      8  C   UNL     1       6.330   3.846  14.857  0.00  0.00    +0.000 A 
ATOM      9  C   UNL     1       5.241   3.329  15.557  0.00  0.00    +0.000 A 
ATOM     10  C   UNL     1       4.647   4.072  16.577  0.00  0.00    +0.000 A 
ATOM     11  C   UNL     1       5.195   5.314  16.916  0.00  0.00    +0.000 A 
ATOM     12  C   UNL     1       6.282   5.855  16.209  0.00  0.00    +0.000 A 
BRANCH   7  14
ATOM     13  C   UNL     1       7.935   5.214  13.044  0.00  0.00    +0.000 C 
ATOM     14  O   UNL     1       7.834   5.678  14.390  0.00  0.00    +0.000 OA
ENDBRANCH   7  14
BRANCH  12  15
ATOM     15  O   UNL     1       6.641   7.086  16.690  0.00  0.00    +0.000 OA
ATOM     16  C   UNL     1       7.674   7.173  17.658  0.00  0.00    +0.000 C 
ENDBRANCH  12  15
ENDBRANCH   6  10
ENDBRANCH   5   6
ENDBRANCH   3   5
ENDBRANCH   1   3
BRANCH   1  17
ATOM     17  C   UNL     1       1.546   4.068  20.531  0.00  0.00    +0.000 C 
BRANCH  17  18
ATOM     18  O   UNL     1       1.734   3.254  21.692  0.00  0.00    +0.000 OA
ATOM     19  H   UNL     1       1.793   2.336  21.375  0.00  0.00    +0.000 HD
ENDBRANCH  17  18
BRANCH  17  20
ATOM     20  C   UNL     1       2.563   5.221  20.506  0.00  0.00    +0.000 C 
BRANCH  20  21
ATOM     21  O   UNL     1       1.992   6.458  20.890  0.00  0.00    +0.000 OA
BRANCH  21  22
ATOM     22  C   UNL     1       1.832   7.441  19.939  0.00  0.00    +0.000 A 
ATOM     23  C   UNL     1       2.579   7.123  18.794  0.00  0.00    +0.000 A 
ATOM     24  C   UNL     1       2.668   8.006  17.728  0.00  0.00    +0.000 A 
ATOM     25  C   UNL     1       2.062   9.251  17.826  0.00  0.00    +0.000 A 
ATOM     26  C   UNL     1       1.318   9.612  18.958  0.00  0.00    +0.000 A 
ATOM     27  C   UNL     1       0.798  10.916  19.036  0.00  0.00    +0.000 A 
ATOM     28  C   UNL     1       0.013  11.325  20.110  0.00  0.00    +0.000 A 
ATOM     29  C   UNL     1      -0.334  10.409  21.081  0.00  0.00    +0.000 A 
ATOM     30  C   UNL     1       0.186   9.109  21.017  0.00  0.00    +0.000 A 
ATOM     31  C   UNL     1       1.107   8.682  20.012  0.00  0.00    +0.000 A 
ENDBRANCH  21  22
ENDBRANCH  20  21
ENDBRANCH  17  20
ENDBRANCH   1  17
TORSDOF 11
ENDMDL
MODEL 6
REMARK VINA RESULT:      -7.2      5.053      8.199
REMARK  Name = 
REMARK  14 active torsions:
REMARK  status: ('A' for Active; 'I' for Inactive)
REMARK    1  A    between atoms: C_1  and  O_2
REMARK    2  A    between atoms: O_2  and  C_3
REMARK    3  A    between atoms: C_6  and  C_7
REMARK    4  A    between atoms: C_7  and  C_8
REMARK    5  A    between atoms: C_8  and  N_9
REMARK    6  A    between atoms: N_9  and  C_10
REMARK    7  A    between atoms: C_10  and  C_11
REMARK    8  A    between atoms: C_10  and  C_12
REMARK    9  A    between atoms: C_12  and  O_13
REMARK   10  A    between atoms: C_12  and  C_14
REMARK   11  A    between atoms: C_14  and  O_15
REMARK   12  A    between atoms: O_15  and  C_16
REMARK   13  A    between atoms: C_27  and  O_28
REMARK   14  A    between atoms: O_28  and  C_29
REMARK                            x       y       z     vdW  Elec       q    Type
REMARK                         _______ _______ _______ _____ _____    ______ ____
ROOT
ATOM      1  C   UNL     1       7.517   6.785  17.380  0.00  0.00    +0.000 C 
ATOM      2  C   UNL     1       7.755   6.191  18.775  0.00  0.00    +0.000 C 
ENDROOT
BRANCH   1   3
ATOM      3  N   UNL     1       7.128   8.217  17.464  0.00  0.00    +0.000 NA
ATOM      4  H   UNL     1       6.641   8.503  16.615  0.00  0.00    +0.000 HD
BRANCH   3   5
ATOM      5  C   UNL     1       8.292   9.106  17.604  0.00  0.00    +0.000 C 
BRANCH   5   6
ATOM      6  C   UNL     1       8.743   9.224  19.069  0.00  0.00    +0.000 C 
BRANCH   6  10
ATOM      7  C   UNL     1      11.168  12.744  19.687  0.00  0.00    +0.000 A 
ATOM      8  C   UNL     1      10.342  12.253  20.712  0.00  0.00    +0.000 A 
ATOM      9  C   UNL     1       9.523  11.144  20.505  0.00  0.00    +0.000 A 
ATOM     10  C   UNL     1       9.487  10.524  19.256  0.00  0.00    +0.000 A 
ATOM     11  C   UNL     1      10.241  11.068  18.209  0.00  0.00    +0.000 A 
ATOM     12  C   UNL     1      11.080  12.176  18.407  0.00  0.00    +0.000 A 
BRANCH   7  14
ATOM     13  C   UNL     1      11.447  15.067  20.064  0.00  0.00    +0.000 C 
ATOM     14  O   UNL     1      12.038  13.776  19.914  0.00  0.00    +0.000 OA
ENDBRANCH   7  14
BRANCH  12  15
ATOM     15  O   UNL     1      11.742  12.526  17.260  0.00  0.00    +0.000 OA
ATOM     16  C   UNL     1      11.338  13.691  16.560  0.00  0.00    +0.000 C 
ENDBRANCH  12  15
ENDBRANCH   6  10
ENDBRANCH   5   6
ENDBRANCH   3   5
ENDBRANCH   1   3
BRANCH   1  17
ATOM     17  C   UNL     1       6.430   5.946  16.628  0.00  0.00    +0.000 C 
BRANCH  17  18
ATOM     18  O   UNL     1       6.411   4.605  17.123  0.00  0.00    +0.000 OA
ATOM     19  H   UNL     1       6.869   4.625  17.982  0.00  0.00    +0.000 HD
ENDBRANCH  17  18
BRANCH  17  20
ATOM     20  C   UNL     1       5.049   6.603  16.788  0.00  0.00    +0.000 C 
BRANCH  20  21
ATOM     21  O   UNL     1       4.000   5.655  16.853  0.00  0.00    +0.000 OA
BRANCH  21  22
ATOM     22  C   UNL     1       3.143   5.682  17.931  0.00  0.00    +0.000 A 
ATOM     23  C   UNL     1       3.123   6.969  18.492  0.00  0.00    +0.000 A 
ATOM     24  C   UNL     1       2.414   7.235  19.654  0.00  0.00    +0.000 A 
ATOM     25  C   UNL     1       1.769   6.193  20.307  0.00  0.00    +0.000 A 
ATOM     26  C   UNL     1       1.777   4.891  19.787  0.00  0.00    +0.000 A 
ATOM     27  C   UNL     1       1.177   3.862  20.535  0.00  0.00    +0.000 A 
ATOM     28  C   UNL     1       1.109   2.558  20.057  0.00  0.00    +0.000 A 
ATOM     29  C   UNL     1       1.565   2.279  18.784  0.00  0.00    +0.000 A 
ATOM     30  C   UNL     1       2.171   3.296  18.034  0.00  0.00    +0.000 A 
ATOM     31  C   UNL     1       2.390   4.615  18.535  0.00  0.00    +0.000 A 
ENDBRANCH  21  22
ENDBRANCH  20  21
ENDBRANCH  17  20
ENDBRANCH   1  17
TORSDOF 11
ENDMDL
MODEL 7
REMARK VINA RESULT:      -7.1      2.149      6.742
REMARK  Name = 
REMARK  14 active torsions:
REMARK  status: ('A' for Active; 'I' for Inactive)
REMARK    1  A    between atoms: C_1  and  O_2
REMARK    2  A    between atoms: O_2  and  C_3
REMARK    3  A    between atoms: C_6  and  C_7
REMARK    4  A    between atoms: C_7  and  C_8
REMARK    5  A    between atoms: C_8  and  N_9
REMARK    6  A    between atoms: N_9  and  C_10
REMARK    7  A    between atoms: C_10  and  C_11
REMARK    8  A    between atoms: C_10  and  C_12
REMARK    9  A    between atoms: C_12  and  O_13
REMARK   10  A    between atoms: C_12  and  C_14
REMARK   11  A    between atoms: C_14  and  O_15
REMARK   12  A    between atoms: O_15  and  C_16
REMARK   13  A    between atoms: C_27  and  O_28
REMARK   14  A    between atoms: O_28  and  C_29
REMARK                            x       y       z     vdW  Elec       q    Type
REMARK                         _______ _______ _______ _____ _____    ______ ____
ROOT
ATOM      1  C   UNL     1       2.118   3.397  20.043  0.00  0.00    +0.000 C 
ATOM      2  C   UNL     1       1.303   2.454  20.939  0.00  0.00    +0.000 C 
ENDROOT
BRANCH   1   3
ATOM      3  N   UNL     1       3.577   3.195  20.237  0.00  0.00    +0.000 NA
ATOM      4  H   UNL     1       4.066   4.089  20.208  0.00  0.00    +0.000 HD
BRANCH   3   5
ATOM      5  C   UNL     1       4.170   2.354  19.186  0.00  0.00    +0.000 C 
BRANCH   5   6
ATOM      6  C   UNL     1       3.863   2.901  17.782  0.00  0.00    +0.000 C 
BRANCH   6  10
ATOM      7  C   UNL     1       6.705   6.046  16.961  0.00  0.00    +0.000 A 
ATOM      8  C   UNL     1       6.328   5.748  18.281  0.00  0.00    +0.000 A 
ATOM      9  C   UNL     1       5.378   4.764  18.550  0.00  0.00    +0.000 A 
ATOM     10  C   UNL     1       4.759   4.083  17.502  0.00  0.00    +0.000 A 
ATOM     11  C   UNL     1       5.067   4.444  16.185  0.00  0.00    +0.000 A 
ATOM     12  C   UNL     1       6.033   5.423  15.899  0.00  0.00    +0.000 A 
BRANCH   7  14
ATOM     13  C   UNL     1       7.863   7.995  17.653  0.00  0.00    +0.000 C 
ATOM     14  O   UNL     1       7.701   6.948  16.697  0.00  0.00    +0.000 OA
ENDBRANCH   7  14
BRANCH  12  15
ATOM     15  O   UNL     1       6.195   5.600  14.551  0.00  0.00    +0.000 OA
ATOM     16  C   UNL     1       7.135   4.795  13.858  0.00  0.00    +0.000 C 
ENDBRANCH  12  15
ENDBRANCH   6  10
ENDBRANCH   5   6
ENDBRANCH   3   5
ENDBRANCH   1   3
BRANCH   1  17
ATOM     17  C   UNL     1       1.709   4.881  20.329  0.00  0.00    +0.000 C 
BRANCH  17  18
ATOM     18  O   UNL     1       2.365   5.356  21.507  0.00  0.00    +0.000 OA
ATOM     19  H   UNL     1       2.262   6.324  21.505  0.00  0.00    +0.000 HD
ENDBRANCH  17  18
BRANCH  17  20
ATOM     20  C   UNL     1       2.052   5.768  19.121  0.00  0.00    +0.000 C 
BRANCH  20  21
ATOM     21  O   UNL     1       2.665   6.987  19.499  0.00  0.00    +0.000 OA
BRANCH  21  22
ATOM     22  C   UNL     1       1.951   8.158  19.373  0.00  0.00    +0.000 A 
ATOM     23  C   UNL     1       2.168   8.715  18.103  0.00  0.00    +0.000 A 
ATOM     24  C   UNL     1       1.642   9.952  17.762  0.00  0.00    +0.000 A 
ATOM     25  C   UNL     1       0.945  10.679  18.718  0.00  0.00    +0.000 A 
ATOM     26  C   UNL     1       0.719  10.164  20.003  0.00  0.00    +0.000 A 
ATOM     27  C   UNL     1       0.080  10.980  20.954  0.00  0.00    +0.000 A 
ATOM     28  C   UNL     1      -0.216  10.516  22.231  0.00  0.00    +0.000 A 
ATOM     29  C   UNL     1       0.046   9.199  22.550  0.00  0.00    +0.000 A 
ATOM     30  C   UNL     1       0.690   8.380  21.612  0.00  0.00    +0.000 A 
ATOM     31  C   UNL     1       1.139   8.850  20.340  0.00  0.00    +0.000 A 
ENDBRANCH  21  22
ENDBRANCH  20  21
ENDBRANCH  17  20
ENDBRANCH   1  17
TORSDOF 11
ENDMDL
MODEL 8
REMARK VINA RESULT:      -7.1      2.033      6.502
REMARK  Name = 
REMARK  14 active torsions:
REMARK  status: ('A' for Active; 'I' for Inactive)
REMARK    1  A    between atoms: C_1  and  O_2
REMARK    2  A    between atoms: O_2  and  C_3
REMARK    3  A    between atoms: C_6  and  C_7
REMARK    4  A    between atoms: C_7  and  C_8
REMARK    5  A    between atoms: C_8  and  N_9
REMARK    6  A    between atoms: N_9  and  C_10
REMARK    7  A    between atoms: C_10  and  C_11
REMARK    8  A    between atoms: C_10  and  C_12
REMARK    9  A    between atoms: C_12  and  O_13
REMARK   10  A    between atoms: C_12  and  C_14
REMARK   11  A    between atoms: C_14  and  O_15
REMARK   12  A    between atoms: O_15  and  C_16
REMARK   13  A    between atoms: C_27  and  O_28
REMARK   14  A    between atoms: O_28  and  C_29
REMARK                            x       y       z     vdW  Elec       q    Type
REMARK                         _______ _______ _______ _____ _____    ______ ____
ROOT
ATOM      1  C   UNL     1       2.357   2.235  20.244  0.00  0.00    +0.000 C 
ATOM      2  C   UNL     1       3.862   2.398  20.498  0.00  0.00    +0.000 C 
ENDROOT
BRANCH   1   3
ATOM      3  N   UNL     1       2.031   2.421  18.807  0.00  0.00    +0.000 NA
ATOM      4  H   UNL     1       1.312   1.757  18.518  0.00  0.00    +0.000 HD
BRANCH   3   5
ATOM      5  C   UNL     1       3.193   2.191  17.935  0.00  0.00    +0.000 C 
BRANCH   5   6
ATOM      6  C   UNL     1       3.257   3.218  16.793  0.00  0.00    +0.000 C 
BRANCH   6  10
ATOM      7  C   UNL     1       6.694   5.681  17.669  0.00  0.00    +0.000 A 
ATOM      8  C   UNL     1       5.609   5.621  18.560  0.00  0.00    +0.000 A 
ATOM      9  C   UNL     1       4.478   4.863  18.263  0.00  0.00    +0.000 A 
ATOM     10  C   UNL     1       4.392   4.178  17.050  0.00  0.00    +0.000 A 
ATOM     11  C   UNL     1       5.433   4.312  16.124  0.00  0.00    +0.000 A 
ATOM     12  C   UNL     1       6.585   5.060  16.416  0.00  0.00    +0.000 A 
BRANCH   7  14
ATOM     13  C   UNL     1       7.832   7.759  17.756  0.00  0.00    +0.000 C 
ATOM     14  O   UNL     1       7.841   6.352  17.997  0.00  0.00    +0.000 OA
ENDBRANCH   7  14
BRANCH  12  15
ATOM     15  O   UNL     1       7.484   5.037  15.382  0.00  0.00    +0.000 OA
ATOM     16  C   UNL     1       7.010   4.822  14.063  0.00  0.00    +0.000 C 
ENDBRANCH  12  15
ENDBRANCH   6  10
ENDBRANCH   5   6
ENDBRANCH   3   5
ENDBRANCH   1   3
BRANCH   1  17
ATOM     17  C   UNL     1       1.559   3.242  21.140  0.00  0.00    +0.000 C 
BRANCH  17  18
ATOM     18  O   UNL     1       2.313   3.565  22.312  0.00  0.00    +0.000 OA
ATOM     19  H   UNL     1       2.623   4.480  22.193  0.00  0.00    +0.000 HD
ENDBRANCH  17  18
BRANCH  17  20
ATOM     20  C   UNL     1       1.225   4.513  20.342  0.00  0.00    +0.000 C 
BRANCH  20  21
ATOM     21  O   UNL     1       1.854   5.666  20.868  0.00  0.00    +0.000 OA
BRANCH  21  22
ATOM     22  C   UNL     1       1.635   6.881  20.258  0.00  0.00    +0.000 A 
ATOM     23  C   UNL     1       2.176   6.870  18.963  0.00  0.00    +0.000 A 
ATOM     24  C   UNL     1       2.176   8.012  18.175  0.00  0.00    +0.000 A 
ATOM     25  C   UNL     1       1.693   9.201  18.704  0.00  0.00    +0.000 A 
ATOM     26  C   UNL     1       1.157   9.256  19.999  0.00  0.00    +0.000 A 
ATOM     27  C   UNL     1       0.760  10.505  20.511  0.00  0.00    +0.000 A 
ATOM     28  C   UNL     1       0.179  10.626  21.769  0.00  0.00    +0.000 A 
ATOM     29  C   UNL     1      -0.093   9.487  22.500  0.00  0.00    +0.000 A 
ATOM     30  C   UNL     1       0.306   8.240  22.002  0.00  0.00    +0.000 A 
ATOM     31  C   UNL     1       1.031   8.078  20.782  0.00  0.00    +0.000 A 
ENDBRANCH  21  22
ENDBRANCH  20  21
ENDBRANCH  17  20
ENDBRANCH   1  17
TORSDOF 11
ENDMDL
MODEL 9
REMARK VINA RESULT:      -7.1      4.904      7.817
REMARK  Name = 
REMARK  14 active torsions:
REMARK  status: ('A' for Active; 'I' for Inactive)
REMARK    1  A    between atoms: C_1  and  O_2
REMARK    2  A    between atoms: O_2  and  C_3
REMARK    3  A    between atoms: C_6  and  C_7
REMARK    4  A    between atoms: C_7  and  C_8
REMARK    5  A    between atoms: C_8  and  N_9
REMARK    6  A    between atoms: N_9  and  C_10
REMARK    7  A    between atoms: C_10  and  C_11
REMARK    8  A    between atoms: C_10  and  C_12
REMARK    9  A    between atoms: C_12  and  O_13
REMARK   10  A    between atoms: C_12  and  C_14
REMARK   11  A    between atoms: C_14  and  O_15
REMARK   12  A    between atoms: O_15  and  C_16
REMARK   13  A    between atoms: C_27  and  O_28
REMARK   14  A    between atoms: O_28  and  C_29
REMARK                            x       y       z     vdW  Elec       q    Type
REMARK                         _______ _______ _______ _____ _____    ______ ____
ROOT
ATOM      1  C   UNL     1       7.607   6.689  17.596  0.00  0.00    +0.000 C 
ATOM      2  C   UNL     1       7.629   5.941  18.936  0.00  0.00    +0.000 C 
ENDROOT
BRANCH   1   3
ATOM      3  N   UNL     1       7.091   8.073  17.762  0.00  0.00    +0.000 NA
ATOM      4  H   UNL     1       6.377   8.271  17.062  0.00  0.00    +0.000 HD
BRANCH   3   5
ATOM      5  C   UNL     1       8.144   9.086  17.592  0.00  0.00    +0.000 C 
BRANCH   5   6
ATOM      6  C   UNL     1       8.840   9.410  18.923  0.00  0.00    +0.000 C 
BRANCH   6  10
ATOM      7  C   UNL     1      10.328  13.441  18.489  0.00  0.00    +0.000 A 
ATOM      8  C   UNL     1      10.731  12.429  17.602  0.00  0.00    +0.000 A 
ATOM      9  C   UNL     1      10.289  11.117  17.762  0.00  0.00    +0.000 A 
ATOM     10  C   UNL     1       9.465  10.782  18.837  0.00  0.00    +0.000 A 
ATOM     11  C   UNL     1       9.138  11.771  19.773  0.00  0.00    +0.000 A 
ATOM     12  C   UNL     1       9.564  13.100  19.615  0.00  0.00    +0.000 A 
BRANCH   7  14
ATOM     13  C   UNL     1      12.067  15.051  18.484  0.00  0.00    +0.000 C 
ATOM     14  O   UNL     1      10.688  14.746  18.283  0.00  0.00    +0.000 OA
ENDBRANCH   7  14
BRANCH  12  15
ATOM     15  O   UNL     1       9.112  13.903  20.629  0.00  0.00    +0.000 OA
ATOM     16  C   UNL     1      10.010  14.282  21.659  0.00  0.00    +0.000 C 
ENDBRANCH  12  15
ENDBRANCH   6  10
ENDBRANCH   5   6
ENDBRANCH   3   5
ENDBRANCH   1   3
BRANCH   1  17
ATOM     17  C   UNL     1       6.752   5.887  16.558  0.00  0.00    +0.000 C 
BRANCH  17  18
ATOM     18  O   UNL     1       7.583   4.984  15.825  0.00  0.00    +0.000 OA
ATOM     19  H   UNL     1       7.081   4.153  15.747  0.00  0.00    +0.000 HD
ENDBRANCH  17  18
BRANCH  17  20
ATOM     20  C   UNL     1       5.623   5.127  17.275  0.00  0.00    +0.000 C 
BRANCH  20  21
ATOM     21  O   UNL     1       4.340   5.633  16.957  0.00  0.00    +0.000 OA
BRANCH  21  22
ATOM     22  C   UNL     1       3.366   5.638  17.931  0.00  0.00    +0.000 A 
ATOM     23  C   UNL     1       3.300   6.904  18.533  0.00  0.00    +0.000 A 
ATOM     24  C   UNL     1       2.467   7.141  19.616  0.00  0.00    +0.000 A 
ATOM     25  C   UNL     1       1.737   6.089  20.153  0.00  0.00    +0.000 A 
ATOM     26  C   UNL     1       1.787   4.806  19.589  0.00  0.00    +0.000 A 
ATOM     27  C   UNL     1       1.091   3.762  20.226  0.00  0.00    +0.000 A 
ATOM     28  C   UNL     1       1.061   2.477  19.696  0.00  0.00    +0.000 A 
ATOM     29  C   UNL     1       1.655   2.235  18.473  0.00  0.00    +0.000 A 
ATOM     30  C   UNL     1       2.356   3.266  17.835  0.00  0.00    +0.000 A 
ATOM     31  C   UNL     1       2.535   4.563  18.406  0.00  0.00    +0.000 A 
ENDBRANCH  21  22
ENDBRANCH  20  21
ENDBRANCH  17  20
ENDBRANCH   1  17
TORSDOF 11
ENDMDL
