MODEL 1
REMARK VINA RESULT:      -7.6      0.000      0.000
REMARK  Name = 
REMARK  5 active torsions:
REMARK  status: ('A' for Active; 'I' for Inactive)
REMARK    1  A    between atoms: C_1  and  C_2
REMARK    2  A    between atoms: C_2  and  C_3
REMARK    3  A    between atoms: C_6  and  C_7
REMARK    4  A    between atoms: N_14  and  C_15
REMARK    5  A    between atoms: C_15  and  C_16
REMARK                            x       y       z     vdW  Elec       q    Type
REMARK                         _______ _______ _______ _____ _____    ______ ____
ROOT
ATOM      1  C   UNL     1       7.496   7.314  17.161  0.00  0.00    +0.000 C 
ATOM      2  C   UNL     1       6.479   6.191  17.332  0.00  0.00    +0.000 C 
ATOM      3  N   UNL     1       6.807   5.324  18.446  0.00  0.00    +0.000 N 
ATOM      4  C   UNL     1       5.717   5.067  19.244  0.00  0.00    +0.000 C 
ATOM      5  O   UNL     1       5.712   4.227  20.128  0.00  0.00    +0.000 OA
ATOM      6  N   UNL     1       4.715   5.913  18.895  0.00  0.00    +0.000 N 
ATOM      7  C   UNL     1       5.122   6.722  17.870  0.00  0.00    +0.000 C 
ATOM      8  O   UNL     1       4.496   7.675  17.420  0.00  0.00    +0.000 OA
ATOM      9  H   UNL     1       7.623   4.733  18.515  0.00  0.00    +0.000 HD
ENDROOT
BRANCH   2  10
ATOM     10  C   UNL     1       6.320   5.386  16.037  0.00  0.00    +0.000 A 
ATOM     11  C   UNL     1       7.300   5.448  15.024  0.00  0.00    +0.000 A 
ATOM     12  C   UNL     1       7.171   4.697  13.852  0.00  0.00    +0.000 A 
ATOM     13  C   UNL     1       6.055   3.885  13.656  0.00  0.00    +0.000 A 
ATOM     14  C   UNL     1       5.060   3.836  14.633  0.00  0.00    +0.000 A 
ATOM     15  C   UNL     1       5.188   4.586  15.806  0.00  0.00    +0.000 A 
BRANCH  13  16
ATOM     16  C   UNL     1       5.927   3.108  12.459  0.00  0.00    +0.000 C 
ATOM     17  N   UNL     1       5.830   2.479  11.487  0.00  0.00    +0.000 NA
ENDBRANCH  13  16
ENDBRANCH   2  10
BRANCH   6  18
ATOM     18  C   UNL     1       3.441   5.998  19.569  0.00  0.00    +0.000 C 
BRANCH  18  19
ATOM     19  C   UNL     1       2.577   4.785  19.295  0.00  0.00    +0.000 A 
ATOM     20  C   UNL     1       2.369   4.346  17.976  0.00  0.00    +0.000 A 
ATOM     21  C   UNL     1       1.542   3.252  17.716  0.00  0.00    +0.000 A 
ATOM     22  C   UNL     1       0.920   2.597  18.771  0.00  0.00    +0.000 A 
ATOM     23  F   UNL     1       0.115   1.556  18.519  0.00  0.00    +0.000 F 
ATOM     24  C   UNL     1       1.116   3.010  20.084  0.00  0.00    +0.000 A 
ATOM     25  C   UNL     1       1.942   4.106  20.347  0.00  0.00    +0.000 A 
ENDBRANCH  18  19
ENDBRANCH   6  18
TORSDOF 4
ENDMDL
MODEL 2
REMARK VINA RESULT:      -7.5      0.094      1.397
REMARK  Name = 
REMARK  5 active torsions:
REMARK  status: ('A' for Active; 'I' for Inactive)
REMARK    1  A    between atoms: C_1  and  C_2
REMARK    2  A    between atoms: C_2  and  C_3
REMARK    3  A    between atoms: C_6  and  C_7
REMARK    4  A    between atoms: N_14  and  C_15
REMARK    5  A    between atoms: C_15  and  C_16
REMARK                            x       y       z     vdW  Elec       q    Type
REMARK                         _______ _______ _______ _____ _____    ______ ____
ROOT
ATOM      1  C   UNL     1       7.507   7.258  17.144  0.00  0.00    +0.000 C 
ATOM      2  C   UNL     1       6.456   6.166  17.311  0.00  0.00    +0.000 C 
ATOM      3  N   UNL     1       6.744   5.303  18.439  0.00  0.00    +0.000 N 
ATOM      4  C   UNL     1       5.634   5.086  19.224  0.00  0.00    +0.000 C 
ATOM      5  O   UNL     1       5.593   4.257  20.117  0.00  0.00    +0.000 OA
ATOM      6  N   UNL     1       4.663   5.955  18.850  0.00  0.00    +0.000 N 
ATOM      7  C   UNL     1       5.107   6.740  17.823  0.00  0.00    +0.000 C 
ATOM      8  O   UNL     1       4.515   7.705  17.352  0.00  0.00    +0.000 OA
ATOM      9  H   UNL     1       7.541   4.690  18.528  0.00  0.00    +0.000 HD
ENDROOT
BRANCH   2  10
ATOM     10  C   UNL     1       6.295   5.350  16.023  0.00  0.00    +0.000 A 
ATOM     11  C   UNL     1       5.147   4.559  15.810  0.00  0.00    +0.000 A 
ATOM     12  C   UNL     1       4.985   3.832  14.627  0.00  0.00    +0.000 A 
ATOM     13  C   UNL     1       5.971   3.862  13.642  0.00  0.00    +0.000 A 
ATOM     14  C   UNL     1       7.127   4.613  13.850  0.00  0.00    +0.000 A 
ATOM     15  C   UNL     1       7.291   5.342  15.032  0.00  0.00    +0.000 A 
BRANCH  13  16
ATOM     16  C   UNL     1       5.800   3.125  12.425  0.00  0.00    +0.000 C 
ATOM     17  N   UNL     1       5.661   2.522  11.442  0.00  0.00    +0.000 NA
ENDBRANCH  13  16
ENDBRANCH   2  10
BRANCH   6  18
ATOM     18  C   UNL     1       3.381   6.083  19.503  0.00  0.00    +0.000 C 
BRANCH  18  19
ATOM     19  C   UNL     1       2.494   4.885  19.243  0.00  0.00    +0.000 A 
ATOM     20  C   UNL     1       1.870   4.219  20.312  0.00  0.00    +0.000 A 
ATOM     21  C   UNL     1       1.084   3.089  20.080  0.00  0.00    +0.000 A 
ATOM     22  C   UNL     1       0.920   2.622  18.783  0.00  0.00    +0.000 A 
ATOM     23  F   UNL     1       0.177   1.529  18.563  0.00  0.00    +0.000 F 
ATOM     24  C   UNL     1       1.523   3.268  17.710  0.00  0.00    +0.000 A 
ATOM     25  C   UNL     1       2.313   4.398  17.939  0.00  0.00    +0.000 A 
ENDBRANCH  18  19
ENDBRANCH   6  18
TORSDOF 4
ENDMDL
MODEL 3
REMARK VINA RESULT:      -7.2      3.545      7.000
REMARK  Name = 
REMARK  5 active torsions:
REMARK  status: ('A' for Active; 'I' for Inactive)
REMARK    1  A    between atoms: C_1  and  C_2
REMARK    2  A    between atoms: C_2  and  C_3
REMARK    3  A    between atoms: C_6  and  C_7
REMARK    4  A    between atoms: N_14  and  C_15
REMARK    5  A    between atoms: C_15  and  C_16
REMARK                            x       y       z     vdW  Elec       q    Type
REMARK                         _______ _______ _______ _____ _____    ______ ____
ROOT
ATOM      1  C   UNL     1       1.431   3.846  17.617  0.00  0.00    +0.000 C 
ATOM      2  C   UNL     1       2.633   4.391  18.381  0.00  0.00    +0.000 C 
ATOM      3  N   UNL     1       3.174   3.420  19.310  0.00  0.00    +0.000 N 
ATOM      4  C   UNL     1       4.544   3.328  19.228  0.00  0.00    +0.000 C 
ATOM      5  O   UNL     1       5.227   2.714  20.030  0.00  0.00    +0.000 OA
ATOM      6  N   UNL     1       4.957   3.990  18.118  0.00  0.00    +0.000 N 
ATOM      7  C   UNL     1       3.881   4.527  17.467  0.00  0.00    +0.000 C 
ATOM      8  O   UNL     1       3.909   5.071  16.368  0.00  0.00    +0.000 OA
ATOM      9  H   UNL     1       2.700   3.048  20.120  0.00  0.00    +0.000 HD
ENDROOT
BRANCH   2  10
ATOM     10  C   UNL     1       2.286   5.702  19.097  0.00  0.00    +0.000 A 
ATOM     11  C   UNL     1       2.443   6.943  18.447  0.00  0.00    +0.000 A 
ATOM     12  C   UNL     1       2.107   8.139  19.088  0.00  0.00    +0.000 A 
ATOM     13  C   UNL     1       1.625   8.124  20.396  0.00  0.00    +0.000 A 
ATOM     14  C   UNL     1       1.494   6.908  21.067  0.00  0.00    +0.000 A 
ATOM     15  C   UNL     1       1.830   5.711  20.427  0.00  0.00    +0.000 A 
BRANCH  13  16
ATOM     16  C   UNL     1       1.271   9.349  21.050  0.00  0.00    +0.000 C 
ATOM     17  N   UNL     1       0.986  10.340  21.584  0.00  0.00    +0.000 NA
ENDBRANCH  13  16
ENDBRANCH   2  10
BRANCH   6  18
ATOM     18  C   UNL     1       6.324   4.041  17.654  0.00  0.00    +0.000 C 
BRANCH  18  19
ATOM     19  C   UNL     1       6.969   5.377  17.953  0.00  0.00    +0.000 A 
ATOM     20  C   UNL     1       6.848   6.442  17.044  0.00  0.00    +0.000 A 
ATOM     21  C   UNL     1       7.475   7.663  17.296  0.00  0.00    +0.000 A 
ATOM     22  C   UNL     1       8.225   7.823  18.455  0.00  0.00    +0.000 A 
ATOM     23  F   UNL     1       8.838   8.991  18.689  0.00  0.00    +0.000 F 
ATOM     24  C   UNL     1       8.353   6.786  19.371  0.00  0.00    +0.000 A 
ATOM     25  C   UNL     1       7.729   5.561  19.120  0.00  0.00    +0.000 A 
ENDBRANCH  18  19
ENDBRANCH   6  18
TORSDOF 4
ENDMDL
MODEL 4
REMARK VINA RESULT:      -7.2      5.155      7.668
REMARK  Name = 
REMARK  5 active torsions:
REMARK  status: ('A' for Active; 'I' for Inactive)
REMARK    1  A    between atoms: C_1  and  C_2
REMARK    2  A    between atoms: C_2  and  C_3
REMARK    3  A    between atoms: C_6  and  C_7
REMARK    4  A    between atoms: N_14  and  C_15
REMARK    5  A    between atoms: C_15  and  C_16
REMARK                            x       y       z     vdW  Elec       q    Type
REMARK                         _______ _______ _______ _____ _____    ______ ____
ROOT
ATOM      1  C   UNL     1      -0.593  10.209  18.109  0.00  0.00    +0.000 C 
ATOM      2  C   UNL     1       0.633  10.074  19.005  0.00  0.00    +0.000 C 
ATOM      3  N   UNL     1       0.300   9.524  20.304  0.00  0.00    +0.000 N 
ATOM      4  C   UNL     1       1.164   8.523  20.682  0.00  0.00    +0.000 C 
ATOM      5  O   UNL     1       1.188   8.042  21.802  0.00  0.00    +0.000 OA
ATOM      6  N   UNL     1       1.918   8.173  19.610  0.00  0.00    +0.000 N 
ATOM      7  C   UNL     1       1.572   8.934  18.527  0.00  0.00    +0.000 C 
ATOM      8  O   UNL     1       1.977   8.772  17.382  0.00  0.00    +0.000 OA
ATOM      9  H   UNL     1      -0.287   9.962  20.999  0.00  0.00    +0.000 HD
ENDROOT
BRANCH   2  10
ATOM     10  C   UNL     1       1.365  11.414  19.148  0.00  0.00    +0.000 A 
ATOM     11  C   UNL     1       1.233  12.186  20.322  0.00  0.00    +0.000 A 
ATOM     12  C   UNL     1       1.917  13.397  20.466  0.00  0.00    +0.000 A 
ATOM     13  C   UNL     1       2.729  13.873  19.437  0.00  0.00    +0.000 A 
ATOM     14  C   UNL     1       2.845  13.139  18.257  0.00  0.00    +0.000 A 
ATOM     15  C   UNL     1       2.162  11.928  18.111  0.00  0.00    +0.000 A 
BRANCH  13  16
ATOM     16  C   UNL     1       3.437  15.109  19.589  0.00  0.00    +0.000 C 
ATOM     17  N   UNL     1       4.015  16.109  19.715  0.00  0.00    +0.000 NA
ENDBRANCH  13  16
ENDBRANCH   2  10
BRANCH   6  18
ATOM     18  C   UNL     1       2.881   7.097  19.600  0.00  0.00    +0.000 C 
BRANCH  18  19
ATOM     19  C   UNL     1       2.224   5.756  19.350  0.00  0.00    +0.000 A 
ATOM     20  C   UNL     1       2.130   5.245  18.044  0.00  0.00    +0.000 A 
ATOM     21  C   UNL     1       1.490   4.028  17.805  0.00  0.00    +0.000 A 
ATOM     22  C   UNL     1       0.942   3.321  18.867  0.00  0.00    +0.000 A 
ATOM     23  F   UNL     1       0.315   2.160  18.634  0.00  0.00    +0.000 F 
ATOM     24  C   UNL     1       1.028   3.804  20.167  0.00  0.00    +0.000 A 
ATOM     25  C   UNL     1       1.666   5.024  20.410  0.00  0.00    +0.000 A 
ENDBRANCH  18  19
ENDBRANCH   6  18
TORSDOF 4
ENDMDL
MODEL 5
REMARK VINA RESULT:      -7.2      5.165      7.696
REMARK  Name = 
REMARK  5 active torsions:
REMARK  status: ('A' for Active; 'I' for Inactive)
REMARK    1  A    between atoms: C_1  and  C_2
REMARK    2  A    between atoms: C_2  and  C_3
REMARK    3  A    between atoms: C_6  and  C_7
REMARK    4  A    between atoms: N_14  and  C_15
REMARK    5  A    between atoms: C_15  and  C_16
REMARK                            x       y       z     vdW  Elec       q    Type
REMARK                         _______ _______ _______ _____ _____    ______ ____
ROOT
ATOM      1  C   UNL     1      -0.603  10.227  18.103  0.00  0.00    +0.000 C 
ATOM      2  C   UNL     1       0.620  10.083  19.002  0.00  0.00    +0.000 C 
ATOM      3  N   UNL     1       0.280   9.533  20.299  0.00  0.00    +0.000 N 
ATOM      4  C   UNL     1       1.137   8.526  20.678  0.00  0.00    +0.000 C 
ATOM      5  O   UNL     1       1.156   8.044  21.798  0.00  0.00    +0.000 OA
ATOM      6  N   UNL     1       1.891   8.172  19.607  0.00  0.00    +0.000 N 
ATOM      7  C   UNL     1       1.552   8.936  18.524  0.00  0.00    +0.000 C 
ATOM      8  O   UNL     1       1.958   8.773  17.379  0.00  0.00    +0.000 OA
ATOM      9  H   UNL     1      -0.304   9.974  20.994  0.00  0.00    +0.000 HD
ENDROOT
BRANCH   2  10
ATOM     10  C   UNL     1       1.360  11.417  19.148  0.00  0.00    +0.000 A 
ATOM     11  C   UNL     1       2.177  11.907  18.107  0.00  0.00    +0.000 A 
ATOM     12  C   UNL     1       2.836  13.134  18.227  0.00  0.00    +0.000 A 
ATOM     13  C   UNL     1       2.710  13.889  19.392  0.00  0.00    +0.000 A 
ATOM     14  C   UNL     1       1.933  13.405  20.444  0.00  0.00    +0.000 A 
ATOM     15  C   UNL     1       1.273  12.178  20.327  0.00  0.00    +0.000 A 
BRANCH  13  16
ATOM     16  C   UNL     1       3.378  15.151  19.511  0.00  0.00    +0.000 C 
ATOM     17  N   UNL     1       3.923  16.173  19.604  0.00  0.00    +0.000 NA
ENDBRANCH  13  16
ENDBRANCH   2  10
BRANCH   6  18
ATOM     18  C   UNL     1       2.846   7.089  19.597  0.00  0.00    +0.000 C 
BRANCH  18  19
ATOM     19  C   UNL     1       2.182   5.755  19.334  0.00  0.00    +0.000 A 
ATOM     20  C   UNL     1       1.670   4.995  20.400  0.00  0.00    +0.000 A 
ATOM     21  C   UNL     1       1.092   3.747  20.165  0.00  0.00    +0.000 A 
ATOM     22  C   UNL     1       1.027   3.254  18.868  0.00  0.00    +0.000 A 
ATOM     23  F   UNL     1       0.485   2.048  18.647  0.00  0.00    +0.000 F 
ATOM     24  C   UNL     1       1.522   3.990  17.799  0.00  0.00    +0.000 A 
ATOM     25  C   UNL     1       2.103   5.240  18.030  0.00  0.00    +0.000 A 
ENDBRANCH  18  19
ENDBRANCH   6  18
TORSDOF 4
ENDMDL
MODEL 6
REMARK VINA RESULT:      -7.0      3.454      7.082
REMARK  Name = 
REMARK  5 active torsions:
REMARK  status: ('A' for Active; 'I' for Inactive)
REMARK    1  A    between atoms: C_1  and  C_2
REMARK    2  A    between atoms: C_2  and  C_3
REMARK    3  A    between atoms: C_6  and  C_7
REMARK    4  A    between atoms: N_14  and  C_15
REMARK    5  A    between atoms: C_15  and  C_16
REMARK                            x       y       z     vdW  Elec       q    Type
REMARK                         _______ _______ _______ _____ _____    ______ ____
ROOT
ATOM      1  C   UNL     1       1.146   3.389  18.274  0.00  0.00    +0.000 C 
ATOM      2  C   UNL     1       2.417   4.072  18.767  0.00  0.00    +0.000 C 
ATOM      3  N   UNL     1       3.144   3.251  19.715  0.00  0.00    +0.000 N 
ATOM      4  C   UNL     1       4.489   3.196  19.432  0.00  0.00    +0.000 C 
ATOM      5  O   UNL     1       5.317   2.718  20.189  0.00  0.00    +0.000 OA
ATOM      6  N   UNL     1       4.694   3.720  18.198  0.00  0.00    +0.000 N 
ATOM      7  C   UNL     1       3.505   4.129  17.660  0.00  0.00    +0.000 C 
ATOM      8  O   UNL     1       3.338   4.522  16.511  0.00  0.00    +0.000 OA
ATOM      9  H   UNL     1       2.817   2.973  20.629  0.00  0.00    +0.000 HD
ENDROOT
BRANCH   2  10
ATOM     10  C   UNL     1       2.111   5.453  19.358  0.00  0.00    +0.000 A 
ATOM     11  C   UNL     1       1.460   5.576  20.603  0.00  0.00    +0.000 A 
ATOM     12  C   UNL     1       1.199   6.833  21.157  0.00  0.00    +0.000 A 
ATOM     13  C   UNL     1       1.564   7.992  20.474  0.00  0.00    +0.000 A 
ATOM     14  C   UNL     1       2.180   7.890  19.227  0.00  0.00    +0.000 A 
ATOM     15  C   UNL     1       2.442   6.634  18.671  0.00  0.00    +0.000 A 
BRANCH  13  16
ATOM     16  C   UNL     1       1.306   9.280  21.046  0.00  0.00    +0.000 C 
ATOM     17  N   UNL     1       1.090  10.323  21.510  0.00  0.00    +0.000 NA
ENDBRANCH  13  16
ENDBRANCH   2  10
BRANCH   6  18
ATOM     18  C   UNL     1       5.971   3.756  17.524  0.00  0.00    +0.000 C 
BRANCH  18  19
ATOM     19  C   UNL     1       6.679   5.077  17.732  0.00  0.00    +0.000 A 
ATOM     20  C   UNL     1       7.542   5.254  18.828  0.00  0.00    +0.000 A 
ATOM     21  C   UNL     1       8.166   6.484  19.046  0.00  0.00    +0.000 A 
ATOM     22  C   UNL     1       7.930   7.538  18.172  0.00  0.00    +0.000 A 
ATOM     23  F   UNL     1       8.518   8.721  18.391  0.00  0.00    +0.000 F 
ATOM     24  C   UNL     1       7.086   7.383  17.079  0.00  0.00    +0.000 A 
ATOM     25  C   UNL     1       6.457   6.155  16.860  0.00  0.00    +0.000 A 
ENDBRANCH  18  19
ENDBRANCH   6  18
TORSDOF 4
ENDMDL
MODEL 7
REMARK VINA RESULT:      -6.6      3.341      6.982
REMARK  Name = 
REMARK  5 active torsions:
REMARK  status: ('A' for Active; 'I' for Inactive)
REMARK    1  A    between atoms: C_1  and  C_2
REMARK    2  A    between atoms: C_2  and  C_3
REMARK    3  A    between atoms: C_6  and  C_7
REMARK    4  A    between atoms: N_14  and  C_15
REMARK    5  A    between atoms: C_15  and  C_16
REMARK                            x       y       z     vdW  Elec       q    Type
REMARK                         _______ _______ _______ _____ _____    ______ ____
ROOT
ATOM      1  C   UNL     1       0.691   2.973  19.001  0.00  0.00    +0.000 C 
ATOM      2  C   UNL     1       2.027   3.688  19.169  0.00  0.00    +0.000 C 
ATOM      3  N   UNL     1       2.937   2.948  20.021  0.00  0.00    +0.000 N 
ATOM      4  C   UNL     1       4.199   2.861  19.481  0.00  0.00    +0.000 C 
ATOM      5  O   UNL     1       5.166   2.445  20.096  0.00  0.00    +0.000 OA
ATOM      6  N   UNL     1       4.148   3.273  18.190  0.00  0.00    +0.000 N 
ATOM      7  C   UNL     1       2.872   3.641  17.867  0.00  0.00    +0.000 C 
ATOM      8  O   UNL     1       2.475   3.934  16.744  0.00  0.00    +0.000 OA
ATOM      9  H   UNL     1       2.802   2.753  21.002  0.00  0.00    +0.000 HD
ENDROOT
BRANCH   2  10
ATOM     10  C   UNL     1       1.829   5.117  19.688  0.00  0.00    +0.000 A 
ATOM     11  C   UNL     1       2.431   6.212  19.034  0.00  0.00    +0.000 A 
ATOM     12  C   UNL     1       2.235   7.518  19.490  0.00  0.00    +0.000 A 
ATOM     13  C   UNL     1       1.451   7.760  20.617  0.00  0.00    +0.000 A 
ATOM     14  C   UNL     1       0.874   6.686  21.295  0.00  0.00    +0.000 A 
ATOM     15  C   UNL     1       1.069   5.379  20.841  0.00  0.00    +0.000 A 
BRANCH  13  16
ATOM     16  C   UNL     1       1.241   9.100  21.079  0.00  0.00    +0.000 C 
ATOM     17  N   UNL     1       1.068  10.185  21.456  0.00  0.00    +0.000 NA
ENDBRANCH  13  16
ENDBRANCH   2  10
BRANCH   6  18
ATOM     18  C   UNL     1       5.265   3.243  17.274  0.00  0.00    +0.000 C 
BRANCH  18  19
ATOM     19  C   UNL     1       6.025   4.553  17.270  0.00  0.00    +0.000 A 
ATOM     20  C   UNL     1       5.710   5.552  16.334  0.00  0.00    +0.000 A 
ATOM     21  C   UNL     1       6.434   6.745  16.301  0.00  0.00    +0.000 A 
ATOM     22  C   UNL     1       7.474   6.941  17.201  0.00  0.00    +0.000 A 
ATOM     23  F   UNL     1       8.178   8.080  17.159  0.00  0.00    +0.000 F 
ATOM     24  C   UNL     1       7.799   5.969  18.140  0.00  0.00    +0.000 A 
ATOM     25  C   UNL     1       7.077   4.772  18.174  0.00  0.00    +0.000 A 
ENDBRANCH  18  19
ENDBRANCH   6  18
TORSDOF 4
ENDMDL
MODEL 8
REMARK VINA RESULT:      -6.5      3.278      6.550
REMARK  Name = 
REMARK  5 active torsions:
REMARK  status: ('A' for Active; 'I' for Inactive)
REMARK    1  A    between atoms: C_1  and  C_2
REMARK    2  A    between atoms: C_2  and  C_3
REMARK    3  A    between atoms: C_6  and  C_7
REMARK    4  A    between atoms: N_14  and  C_15
REMARK    5  A    between atoms: C_15  and  C_16
REMARK                            x       y       z     vdW  Elec       q    Type
REMARK                         _______ _______ _______ _____ _____    ______ ____
ROOT
ATOM      1  C   UNL     1       0.991   4.260  20.708  0.00  0.00    +0.000 C 
ATOM      2  C   UNL     1       2.114   4.716  19.782  0.00  0.00    +0.000 C 
ATOM      3  N   UNL     1       3.422   4.374  20.303  0.00  0.00    +0.000 N 
ATOM      4  C   UNL     1       4.231   3.806  19.346  0.00  0.00    +0.000 C 
ATOM      5  O   UNL     1       5.423   3.605  19.505  0.00  0.00    +0.000 OA
ATOM      6  N   UNL     1       3.472   3.499  18.264  0.00  0.00    +0.000 N 
ATOM      7  C   UNL     1       2.173   3.863  18.486  0.00  0.00    +0.000 C 
ATOM      8  O   UNL     1       1.223   3.602  17.756  0.00  0.00    +0.000 OA
ATOM      9  H   UNL     1       3.835   4.736  21.150  0.00  0.00    +0.000 HD
ENDROOT
BRANCH   2  10
ATOM     10  C   UNL     1       2.015   6.218  19.491  0.00  0.00    +0.000 A 
ATOM     11  C   UNL     1       2.347   6.730  18.219  0.00  0.00    +0.000 A 
ATOM     12  C   UNL     1       2.236   8.095  17.942  0.00  0.00    +0.000 A 
ATOM     13  C   UNL     1       1.811   8.982  18.931  0.00  0.00    +0.000 A 
ATOM     14  C   UNL     1       1.510   8.498  20.204  0.00  0.00    +0.000 A 
ATOM     15  C   UNL     1       1.620   7.132  20.483  0.00  0.00    +0.000 A 
BRANCH  13  16
ATOM     16  C   UNL     1       1.689  10.380  18.644  0.00  0.00    +0.000 C 
ATOM     17  N   UNL     1       1.584  11.513  18.411  0.00  0.00    +0.000 NA
ENDBRANCH  13  16
ENDBRANCH   2  10
BRANCH   6  18
ATOM     18  C   UNL     1       3.957   2.811  17.091  0.00  0.00    +0.000 C 
BRANCH  18  19
ATOM     19  C   UNL     1       4.844   3.699  16.244  0.00  0.00    +0.000 A 
ATOM     20  C   UNL     1       5.699   3.136  15.282  0.00  0.00    +0.000 A 
ATOM     21  C   UNL     1       6.547   3.948  14.527  0.00  0.00    +0.000 A 
ATOM     22  C   UNL     1       6.544   5.322  14.733  0.00  0.00    +0.000 A 
ATOM     23  F   UNL     1       7.369   6.098  14.018  0.00  0.00    +0.000 F 
ATOM     24  C   UNL     1       5.702   5.901  15.675  0.00  0.00    +0.000 A 
ATOM     25  C   UNL     1       4.854   5.090  16.434  0.00  0.00    +0.000 A 
ENDBRANCH  18  19
ENDBRANCH   6  18
TORSDOF 4
ENDMDL
MODEL 9
REMARK VINA RESULT:      -6.4      3.329      6.621
REMARK  Name = 
REMARK  5 active torsions:
REMARK  status: ('A' for Active; 'I' for Inactive)
REMARK    1  A    between atoms: C_1  and  C_2
REMARK    2  A    between atoms: C_2  and  C_3
REMARK    3  A    between atoms: C_6  and  C_7
REMARK    4  A    between atoms: N_14  and  C_15
REMARK    5  A    between atoms: C_15  and  C_16
REMARK                            x       y       z     vdW  Elec       q    Type
REMARK                         _______ _______ _______ _____ _____    ______ ____
ROOT
ATOM      1  C   UNL     1       1.176   4.622  20.836  0.00  0.00    +0.000 C 
ATOM      2  C   UNL     1       2.231   5.045  19.819  0.00  0.00    +0.000 C 
ATOM      3  N   UNL     1       3.574   4.742  20.271  0.00  0.00    +0.000 N 
ATOM      4  C   UNL     1       4.328   4.136  19.293  0.00  0.00    +0.000 C 
ATOM      5  O   UNL     1       5.530   3.956  19.384  0.00  0.00    +0.000 OA
ATOM      6  N   UNL     1       3.506   3.769  18.278  0.00  0.00    +0.000 N 
ATOM      7  C   UNL     1       2.219   4.130  18.565  0.00  0.00    +0.000 C 
ATOM      8  O   UNL     1       1.228   3.824  17.911  0.00  0.00    +0.000 OA
ATOM      9  H   UNL     1       4.035   5.150  21.071  0.00  0.00    +0.000 HD
ENDROOT
BRANCH   2  10
ATOM     10  C   UNL     1       2.093   6.529  19.463  0.00  0.00    +0.000 A 
ATOM     11  C   UNL     1       1.587   7.453  20.402  0.00  0.00    +0.000 A 
ATOM     12  C   UNL     1       1.481   8.811  20.089  0.00  0.00    +0.000 A 
ATOM     13  C   UNL     1       1.859   9.275  18.829  0.00  0.00    +0.000 A 
ATOM     14  C   UNL     1       2.331   8.371  17.878  0.00  0.00    +0.000 A 
ATOM     15  C   UNL     1       2.437   7.012  18.188  0.00  0.00    +0.000 A 
BRANCH  13  16
ATOM     16  C   UNL     1       1.759  10.668  18.512  0.00  0.00    +0.000 C 
ATOM     17  N   UNL     1       1.675  11.799  18.259  0.00  0.00    +0.000 NA
ENDBRANCH  13  16
ENDBRANCH   2  10
BRANCH   6  18
ATOM     18  C   UNL     1       3.925   3.030  17.110  0.00  0.00    +0.000 C 
BRANCH  18  19
ATOM     19  C   UNL     1       4.877   3.831  16.248  0.00  0.00    +0.000 A 
ATOM     20  C   UNL     1       4.795   5.233  16.215  0.00  0.00    +0.000 A 
ATOM     21  C   UNL     1       5.645   5.973  15.392  0.00  0.00    +0.000 A 
ATOM     22  C   UNL     1       6.578   5.314  14.600  0.00  0.00    +0.000 A 
ATOM     23  F   UNL     1       7.384   6.025  13.800  0.00  0.00    +0.000 F 
ATOM     24  C   UNL     1       6.682   3.929  14.622  0.00  0.00    +0.000 A 
ATOM     25  C   UNL     1       5.830   3.185  15.443  0.00  0.00    +0.000 A 
ENDBRANCH  18  19
ENDBRANCH   6  18
TORSDOF 4
ENDMDL
