MODEL 1
REMARK VINA RESULT:      -7.9      0.000      0.000
REMARK  Name = 
REMARK  7 active torsions:
REMARK  status: ('A' for Active; 'I' for Inactive)
REMARK    1  A    between atoms: C_1  and  C_2
REMARK    2  A    between atoms: N_6  and  C_7
REMARK    3  A    between atoms: C_7  and  C_8
REMARK    4  A    between atoms: C_8  and  C_9
REMARK    5  A    between atoms: C_9  and  C_10
REMARK    6  A    between atoms: C_9  and  C_13
REMARK    7  A    between atoms: C_9  and  C_19
REMARK                            x       y       z     vdW  Elec       q    Type
REMARK                         _______ _______ _______ _____ _____    ______ ____
ROOT
ATOM      1  C   UNL     1       5.518   5.161  18.296  0.00  0.00    +0.000 C 
ENDROOT
BRANCH   1   2
ATOM      2  C   UNL     1       5.791   4.769  16.802  0.00  0.00    +0.000 A 
ATOM      3  C   UNL     1       7.066   4.923  16.213  0.00  0.00    +0.000 A 
ATOM      4  C   UNL     1       7.289   4.696  14.851  0.00  0.00    +0.000 A 
ATOM      5  C   UNL     1       6.263   4.223  14.048  0.00  0.00    +0.000 A 
ATOM      6  C   UNL     1       5.009   3.997  14.606  0.00  0.00    +0.000 A 
ATOM      7  C   UNL     1       4.767   4.295  15.954  0.00  0.00    +0.000 A 
ENDBRANCH   1   2
BRANCH   1   8
ATOM      8  C   UNL     1       4.323   6.179  18.424  0.00  0.00    +0.000 A 
ATOM      9  C   UNL     1       3.493   6.253  19.556  0.00  0.00    +0.000 A 
ATOM     10  C   UNL     1       2.409   7.138  19.616  0.00  0.00    +0.000 A 
ATOM     11  C   UNL     1       2.138   7.998  18.559  0.00  0.00    +0.000 A 
ATOM     12  C   UNL     1       2.983   8.009  17.460  0.00  0.00    +0.000 A 
ATOM     13  C   UNL     1       4.069   7.132  17.411  0.00  0.00    +0.000 A 
ENDBRANCH   1   8
BRANCH   1  14
ATOM     14  C   UNL     1       6.821   5.704  19.038  0.00  0.00    +0.000 C 
ATOM     15  N   UNL     1       7.585   6.684  18.475  0.00  0.00    +0.000 N 
ATOM     16  O   UNL     1       7.296   5.178  20.049  0.00  0.00    +0.000 OA
ATOM     17  H   UNL     1       7.268   7.310  17.752  0.00  0.00    +0.000 HD
ATOM     18  H   UNL     1       8.403   6.965  19.007  0.00  0.00    +0.000 HD
ENDBRANCH   1  14
BRANCH   1  19
ATOM     19  C   UNL     1       5.210   3.881  19.180  0.00  0.00    +0.000 C 
BRANCH  19  20
ATOM     20  C   UNL     1       4.114   2.925  18.704  0.00  0.00    +0.000 C 
BRANCH  20  26
ATOM     21  C   UNL     1       1.394   3.967  17.652  0.00  0.00    +0.000 C 
ATOM     22  C   UNL     1       1.657   3.463  19.025  0.00  0.00    +0.000 A 
ATOM     23  N   UNL     1       0.750   3.335  19.973  0.00  0.00    +0.000 NA
ATOM     24  C   UNL     1       1.406   2.801  21.049  0.00  0.00    +0.000 A 
ATOM     25  C   UNL     1       2.733   2.605  20.758  0.00  0.00    +0.000 A 
ATOM     26  N   UNL     1       2.885   3.038  19.475  0.00  0.00    +0.000 N 
ENDBRANCH  20  26
ENDBRANCH  19  20
ENDBRANCH   1  19
TORSDOF 6
ENDMDL
MODEL 2
REMARK VINA RESULT:      -7.7      1.733      5.668
REMARK  Name = 
REMARK  7 active torsions:
REMARK  status: ('A' for Active; 'I' for Inactive)
REMARK    1  A    between atoms: C_1  and  C_2
REMARK    2  A    between atoms: N_6  and  C_7
REMARK    3  A    between atoms: C_7  and  C_8
REMARK    4  A    between atoms: C_8  and  C_9
REMARK    5  A    between atoms: C_9  and  C_10
REMARK    6  A    between atoms: C_9  and  C_13
REMARK    7  A    between atoms: C_9  and  C_19
REMARK                            x       y       z     vdW  Elec       q    Type
REMARK                         _______ _______ _______ _____ _____    ______ ____
ROOT
ATOM      1  C   UNL     1       3.548   5.065  18.485  0.00  0.00    +0.000 C 
ENDROOT
BRANCH   1   2
ATOM      2  C   UNL     1       2.982   6.517  18.665  0.00  0.00    +0.000 A 
ATOM      3  C   UNL     1       2.321   6.916  19.848  0.00  0.00    +0.000 A 
ATOM      4  C   UNL     1       1.705   8.166  19.971  0.00  0.00    +0.000 A 
ATOM      5  C   UNL     1       1.802   9.092  18.945  0.00  0.00    +0.000 A 
ATOM      6  C   UNL     1       2.499   8.759  17.789  0.00  0.00    +0.000 A 
ATOM      7  C   UNL     1       3.054   7.481  17.638  0.00  0.00    +0.000 A 
ENDBRANCH   1   2
BRANCH   1   8
ATOM      8  C   UNL     1       2.526   3.974  18.985  0.00  0.00    +0.000 A 
ATOM      9  C   UNL     1       1.746   3.194  18.113  0.00  0.00    +0.000 A 
ATOM     10  C   UNL     1       0.813   2.267  18.594  0.00  0.00    +0.000 A 
ATOM     11  C   UNL     1       0.652   2.067  19.960  0.00  0.00    +0.000 A 
ATOM     12  C   UNL     1       1.461   2.760  20.846  0.00  0.00    +0.000 A 
ATOM     13  C   UNL     1       2.398   3.675  20.360  0.00  0.00    +0.000 A 
ENDBRANCH   1   8
BRANCH   1  14
ATOM     14  C   UNL     1       4.977   4.872  19.165  0.00  0.00    +0.000 C 
ATOM     15  N   UNL     1       5.479   3.624  19.390  0.00  0.00    +0.000 N 
ATOM     16  O   UNL     1       5.621   5.799  19.665  0.00  0.00    +0.000 OA
ATOM     17  H   UNL     1       5.163   2.789  18.922  0.00  0.00    +0.000 HD
ATOM     18  H   UNL     1       6.389   3.589  19.838  0.00  0.00    +0.000 HD
ENDBRANCH   1  14
BRANCH   1  19
ATOM     19  C   UNL     1       3.920   4.775  16.971  0.00  0.00    +0.000 C 
BRANCH  19  20
ATOM     20  C   UNL     1       5.131   3.887  16.685  0.00  0.00    +0.000 C 
BRANCH  20  26
ATOM     21  C   UNL     1       7.276   6.114  16.861  0.00  0.00    +0.000 C 
ATOM     22  C   UNL     1       6.932   5.337  15.642  0.00  0.00    +0.000 A 
ATOM     23  N   UNL     1       7.535   5.448  14.475  0.00  0.00    +0.000 NA
ATOM     24  C   UNL     1       6.939   4.528  13.656  0.00  0.00    +0.000 A 
ATOM     25  C   UNL     1       5.954   3.848  14.329  0.00  0.00    +0.000 A 
ATOM     26  N   UNL     1       5.949   4.375  15.585  0.00  0.00    +0.000 N 
ENDBRANCH  20  26
ENDBRANCH  19  20
ENDBRANCH   1  19
TORSDOF 6
ENDMDL
MODEL 3
REMARK VINA RESULT:      -7.7      0.136      1.388
REMARK  Name = 
REMARK  7 active torsions:
REMARK  status: ('A' for Active; 'I' for Inactive)
REMARK    1  A    between atoms: C_1  and  C_2
REMARK    2  A    between atoms: N_6  and  C_7
REMARK    3  A    between atoms: C_7  and  C_8
REMARK    4  A    between atoms: C_8  and  C_9
REMARK    5  A    between atoms: C_9  and  C_10
REMARK    6  A    between atoms: C_9  and  C_13
REMARK    7  A    between atoms: C_9  and  C_19
REMARK                            x       y       z     vdW  Elec       q    Type
REMARK                         _______ _______ _______ _____ _____    ______ ____
ROOT
ATOM      1  C   UNL     1       5.491   5.246  18.201  0.00  0.00    +0.000 C 
ENDROOT
BRANCH   1   2
ATOM      2  C   UNL     1       5.776   4.917  16.693  0.00  0.00    +0.000 A 
ATOM      3  C   UNL     1       4.787   4.358  15.854  0.00  0.00    +0.000 A 
ATOM      4  C   UNL     1       5.066   3.946  14.547  0.00  0.00    +0.000 A 
ATOM      5  C   UNL     1       6.324   4.157  14.005  0.00  0.00    +0.000 A 
ATOM      6  C   UNL     1       7.307   4.763  14.779  0.00  0.00    +0.000 A 
ATOM      7  C   UNL     1       7.048   5.109  16.113  0.00  0.00    +0.000 A 
ENDBRANCH   1   2
BRANCH   1   8
ATOM      8  C   UNL     1       4.281   6.243  18.361  0.00  0.00    +0.000 A 
ATOM      9  C   UNL     1       3.904   7.161  17.365  0.00  0.00    +0.000 A 
ATOM     10  C   UNL     1       2.852   8.065  17.561  0.00  0.00    +0.000 A 
ATOM     11  C   UNL     1       2.125   8.060  18.745  0.00  0.00    +0.000 A 
ATOM     12  C   UNL     1       2.417   7.114  19.716  0.00  0.00    +0.000 A 
ATOM     13  C   UNL     1       3.459   6.208  19.510  0.00  0.00    +0.000 A 
ENDBRANCH   1   8
BRANCH   1  14
ATOM     14  C   UNL     1       6.783   5.778  18.969  0.00  0.00    +0.000 C 
ATOM     15  N   UNL     1       7.550   6.772  18.438  0.00  0.00    +0.000 N 
ATOM     16  O   UNL     1       7.247   5.231  19.974  0.00  0.00    +0.000 OA
ATOM     17  H   UNL     1       7.240   7.413  17.724  0.00  0.00    +0.000 HD
ATOM     18  H   UNL     1       8.360   7.044  18.985  0.00  0.00    +0.000 HD
ENDBRANCH   1  14
BRANCH   1  19
ATOM     19  C   UNL     1       5.196   3.929  19.032  0.00  0.00    +0.000 C 
BRANCH  19  20
ATOM     20  C   UNL     1       4.092   2.995  18.533  0.00  0.00    +0.000 C 
BRANCH  20  26
ATOM     21  C   UNL     1       1.326   4.013  17.585  0.00  0.00    +0.000 C 
ATOM     22  C   UNL     1       1.634   3.473  18.934  0.00  0.00    +0.000 A 
ATOM     23  N   UNL     1       0.756   3.298  19.901  0.00  0.00    +0.000 NA
ATOM     24  C   UNL     1       1.451   2.745  20.943  0.00  0.00    +0.000 A 
ATOM     25  C   UNL     1       2.774   2.584  20.610  0.00  0.00    +0.000 A 
ATOM     26  N   UNL     1       2.883   3.059  19.339  0.00  0.00    +0.000 N 
ENDBRANCH  20  26
ENDBRANCH  19  20
ENDBRANCH   1  19
TORSDOF 6
ENDMDL
MODEL 4
REMARK VINA RESULT:      -7.6      0.710      1.208
REMARK  Name = 
REMARK  7 active torsions:
REMARK  status: ('A' for Active; 'I' for Inactive)
REMARK    1  A    between atoms: C_1  and  C_2
REMARK    2  A    between atoms: N_6  and  C_7
REMARK    3  A    between atoms: C_7  and  C_8
REMARK    4  A    between atoms: C_8  and  C_9
REMARK    5  A    between atoms: C_9  and  C_10
REMARK    6  A    between atoms: C_9  and  C_13
REMARK    7  A    between atoms: C_9  and  C_19
REMARK                            x       y       z     vdW  Elec       q    Type
REMARK                         _______ _______ _______ _____ _____    ______ ____
ROOT
ATOM      1  C   UNL     1       5.647   5.243  17.965  0.00  0.00    +0.000 C 
ENDROOT
BRANCH   1   2
ATOM      2  C   UNL     1       5.843   4.919  16.443  0.00  0.00    +0.000 A 
ATOM      3  C   UNL     1       4.801   4.381  15.656  0.00  0.00    +0.000 A 
ATOM      4  C   UNL     1       5.000   3.973  14.333  0.00  0.00    +0.000 A 
ATOM      5  C   UNL     1       6.230   4.169  13.724  0.00  0.00    +0.000 A 
ATOM      6  C   UNL     1       7.263   4.756  14.446  0.00  0.00    +0.000 A 
ATOM      7  C   UNL     1       7.083   5.097  15.794  0.00  0.00    +0.000 A 
ENDBRANCH   1   2
BRANCH   1   8
ATOM      8  C   UNL     1       4.432   6.218  18.202  0.00  0.00    +0.000 A 
ATOM      9  C   UNL     1       3.670   6.224  19.384  0.00  0.00    +0.000 A 
ATOM     10  C   UNL     1       2.567   7.073  19.542  0.00  0.00    +0.000 A 
ATOM     11  C   UNL     1       2.208   7.962  18.536  0.00  0.00    +0.000 A 
ATOM     12  C   UNL     1       2.985   8.040  17.391  0.00  0.00    +0.000 A 
ATOM     13  C   UNL     1       4.091   7.200  17.244  0.00  0.00    +0.000 A 
ENDBRANCH   1   8
BRANCH   1  14
ATOM     14  C   UNL     1       6.975   5.798  18.653  0.00  0.00    +0.000 C 
ATOM     15  N   UNL     1       7.524   5.158  19.725  0.00  0.00    +0.000 N 
ATOM     16  O   UNL     1       7.476   6.892  18.375  0.00  0.00    +0.000 OA
ATOM     17  H   UNL     1       7.336   4.201  19.975  0.00  0.00    +0.000 HD
ATOM     18  H   UNL     1       8.361   5.583  20.109  0.00  0.00    +0.000 HD
ENDBRANCH   1  14
BRANCH   1  19
ATOM     19  C   UNL     1       5.428   3.921  18.812  0.00  0.00    +0.000 C 
BRANCH  19  20
ATOM     20  C   UNL     1       4.307   2.971  18.385  0.00  0.00    +0.000 C 
BRANCH  20  26
ATOM     21  C   UNL     1       1.458   3.951  17.668  0.00  0.00    +0.000 C 
ATOM     22  C   UNL     1       1.879   3.397  18.981  0.00  0.00    +0.000 A 
ATOM     23  N   UNL     1       1.081   3.191  20.010  0.00  0.00    +0.000 NA
ATOM     24  C   UNL     1       1.864   2.637  20.986  0.00  0.00    +0.000 A 
ATOM     25  C   UNL     1       3.159   2.506  20.551  0.00  0.00    +0.000 A 
ATOM     26  N   UNL     1       3.162   3.001  19.283  0.00  0.00    +0.000 N 
ENDBRANCH  20  26
ENDBRANCH  19  20
ENDBRANCH   1  19
TORSDOF 6
ENDMDL
MODEL 5
REMARK VINA RESULT:      -7.4      1.755      5.614
REMARK  Name = 
REMARK  7 active torsions:
REMARK  status: ('A' for Active; 'I' for Inactive)
REMARK    1  A    between atoms: C_1  and  C_2
REMARK    2  A    between atoms: N_6  and  C_7
REMARK    3  A    between atoms: C_7  and  C_8
REMARK    4  A    between atoms: C_8  and  C_9
REMARK    5  A    between atoms: C_9  and  C_10
REMARK    6  A    between atoms: C_9  and  C_13
REMARK    7  A    between atoms: C_9  and  C_19
REMARK                            x       y       z     vdW  Elec       q    Type
REMARK                         _______ _______ _______ _____ _____    ______ ____
ROOT
ATOM      1  C   UNL     1       3.308   5.201  18.600  0.00  0.00    +0.000 C 
ENDROOT
BRANCH   1   2
ATOM      2  C   UNL     1       2.684   6.631  18.758  0.00  0.00    +0.000 A 
ATOM      3  C   UNL     1       2.706   7.573  17.706  0.00  0.00    +0.000 A 
ATOM      4  C   UNL     1       2.266   8.890  17.876  0.00  0.00    +0.000 A 
ATOM      5  C   UNL     1       1.708   9.286  19.081  0.00  0.00    +0.000 A 
ATOM      6  C   UNL     1       1.610   8.369  20.121  0.00  0.00    +0.000 A 
ATOM      7  C   UNL     1       2.118   7.071  19.974  0.00  0.00    +0.000 A 
ENDBRANCH   1   2
BRANCH   1   8
ATOM      8  C   UNL     1       2.338   4.080  19.135  0.00  0.00    +0.000 A 
ATOM      9  C   UNL     1       2.149   3.814  20.503  0.00  0.00    +0.000 A 
ATOM     10  C   UNL     1       1.315   2.777  20.941  0.00  0.00    +0.000 A 
ATOM     11  C   UNL     1       0.620   1.994  20.028  0.00  0.00    +0.000 A 
ATOM     12  C   UNL     1       0.719   2.280  18.675  0.00  0.00    +0.000 A 
ATOM     13  C   UNL     1       1.543   3.322  18.245  0.00  0.00    +0.000 A 
ENDBRANCH   1   8
BRANCH   1  14
ATOM     14  C   UNL     1       4.751   5.081  19.267  0.00  0.00    +0.000 C 
ATOM     15  N   UNL     1       5.201   3.886  19.746  0.00  0.00    +0.000 N 
ATOM     16  O   UNL     1       5.458   6.057  19.534  0.00  0.00    +0.000 OA
ATOM     17  H   UNL     1       4.827   2.988  19.480  0.00  0.00    +0.000 HD
ATOM     18  H   UNL     1       6.125   3.898  20.165  0.00  0.00    +0.000 HD
ENDBRANCH   1  14
BRANCH   1  19
ATOM     19  C   UNL     1       3.674   4.896  17.089  0.00  0.00    +0.000 C 
BRANCH  19  20
ATOM     20  C   UNL     1       4.782   3.880  16.807  0.00  0.00    +0.000 C 
BRANCH  20  26
ATOM     21  C   UNL     1       7.721   4.619  17.445  0.00  0.00    +0.000 C 
ATOM     22  C   UNL     1       7.089   4.665  16.102  0.00  0.00    +0.000 A 
ATOM     23  N   UNL     1       7.709   4.972  14.981  0.00  0.00    +0.000 NA
ATOM     24  C   UNL     1       6.774   4.850  13.989  0.00  0.00    +0.000 A 
ATOM     25  C   UNL     1       5.563   4.467  14.511  0.00  0.00    +0.000 A 
ATOM     26  N   UNL     1       5.769   4.363  15.853  0.00  0.00    +0.000 N 
ENDBRANCH  20  26
ENDBRANCH  19  20
ENDBRANCH   1  19
TORSDOF 6
ENDMDL
MODEL 6
REMARK VINA RESULT:      -7.3      0.508      1.583
REMARK  Name = 
REMARK  7 active torsions:
REMARK  status: ('A' for Active; 'I' for Inactive)
REMARK    1  A    between atoms: C_1  and  C_2
REMARK    2  A    between atoms: N_6  and  C_7
REMARK    3  A    between atoms: C_7  and  C_8
REMARK    4  A    between atoms: C_8  and  C_9
REMARK    5  A    between atoms: C_9  and  C_10
REMARK    6  A    between atoms: C_9  and  C_13
REMARK    7  A    between atoms: C_9  and  C_19
REMARK                            x       y       z     vdW  Elec       q    Type
REMARK                         _______ _______ _______ _____ _____    ______ ____
ROOT
ATOM      1  C   UNL     1       5.417   5.122  18.329  0.00  0.00    +0.000 C 
ENDROOT
BRANCH   1   2
ATOM      2  C   UNL     1       5.687   4.712  16.839  0.00  0.00    +0.000 A 
ATOM      3  C   UNL     1       6.993   4.675  16.302  0.00  0.00    +0.000 A 
ATOM      4  C   UNL     1       7.234   4.433  14.946  0.00  0.00    +0.000 A 
ATOM      5  C   UNL     1       6.181   4.133  14.096  0.00  0.00    +0.000 A 
ATOM      6  C   UNL     1       4.886   4.096  14.602  0.00  0.00    +0.000 A 
ATOM      7  C   UNL     1       4.638   4.411  15.945  0.00  0.00    +0.000 A 
ENDBRANCH   1   2
BRANCH   1   8
ATOM      8  C   UNL     1       4.231   6.153  18.445  0.00  0.00    +0.000 A 
ATOM      9  C   UNL     1       3.993   7.161  17.494  0.00  0.00    +0.000 A 
ATOM     10  C   UNL     1       2.957   8.090  17.653  0.00  0.00    +0.000 A 
ATOM     11  C   UNL     1       2.107   8.023  18.751  0.00  0.00    +0.000 A 
ATOM     12  C   UNL     1       2.263   6.993  19.666  0.00  0.00    +0.000 A 
ATOM     13  C   UNL     1       3.290   6.062  19.496  0.00  0.00    +0.000 A 
ENDBRANCH   1   8
BRANCH   1  14
ATOM     14  C   UNL     1       6.724   5.662  19.066  0.00  0.00    +0.000 C 
ATOM     15  N   UNL     1       7.488   6.640  18.501  0.00  0.00    +0.000 N 
ATOM     16  O   UNL     1       7.202   5.133  20.074  0.00  0.00    +0.000 OA
ATOM     17  H   UNL     1       7.170   7.268  17.780  0.00  0.00    +0.000 HD
ATOM     18  H   UNL     1       8.309   6.919  19.029  0.00  0.00    +0.000 HD
ENDBRANCH   1  14
BRANCH   1  19
ATOM     19  C   UNL     1       5.096   3.855  19.227  0.00  0.00    +0.000 C 
BRANCH  19  20
ATOM     20  C   UNL     1       4.338   2.692  18.585  0.00  0.00    +0.000 C 
BRANCH  20  26
ATOM     21  C   UNL     1       2.990   2.496  21.366  0.00  0.00    +0.000 C 
ATOM     22  C   UNL     1       2.283   2.681  20.072  0.00  0.00    +0.000 A 
ATOM     23  N   UNL     1       0.983   2.847  19.934  0.00  0.00    +0.000 NA
ATOM     24  C   UNL     1       0.769   3.022  18.593  0.00  0.00    +0.000 A 
ATOM     25  C   UNL     1       1.953   2.959  17.901  0.00  0.00    +0.000 A 
ATOM     26  N   UNL     1       2.907   2.731  18.846  0.00  0.00    +0.000 N 
ENDBRANCH  20  26
ENDBRANCH  19  20
ENDBRANCH   1  19
TORSDOF 6
ENDMDL
MODEL 7
REMARK VINA RESULT:      -7.2      0.485      1.581
REMARK  Name = 
REMARK  7 active torsions:
REMARK  status: ('A' for Active; 'I' for Inactive)
REMARK    1  A    between atoms: C_1  and  C_2
REMARK    2  A    between atoms: N_6  and  C_7
REMARK    3  A    between atoms: C_7  and  C_8
REMARK    4  A    between atoms: C_8  and  C_9
REMARK    5  A    between atoms: C_9  and  C_10
REMARK    6  A    between atoms: C_9  and  C_13
REMARK    7  A    between atoms: C_9  and  C_19
REMARK                            x       y       z     vdW  Elec       q    Type
REMARK                         _______ _______ _______ _____ _____    ______ ____
ROOT
ATOM      1  C   UNL     1       5.449   5.166  18.259  0.00  0.00    +0.000 C 
ENDROOT
BRANCH   1   2
ATOM      2  C   UNL     1       5.722   4.837  16.749  0.00  0.00    +0.000 A 
ATOM      3  C   UNL     1       4.680   4.481  15.865  0.00  0.00    +0.000 A 
ATOM      4  C   UNL     1       4.926   4.066  14.552  0.00  0.00    +0.000 A 
ATOM      5  C   UNL     1       6.219   4.074  14.052  0.00  0.00    +0.000 A 
ATOM      6  C   UNL     1       7.265   4.480  14.873  0.00  0.00    +0.000 A 
ATOM      7  C   UNL     1       7.026   4.826  16.210  0.00  0.00    +0.000 A 
ENDBRANCH   1   2
BRANCH   1   8
ATOM      8  C   UNL     1       4.246   6.168  18.428  0.00  0.00    +0.000 A 
ATOM      9  C   UNL     1       3.361   6.130  19.521  0.00  0.00    +0.000 A 
ATOM     10  C   UNL     1       2.273   7.007  19.616  0.00  0.00    +0.000 A 
ATOM     11  C   UNL     1       2.052   7.969  18.638  0.00  0.00    +0.000 A 
ATOM     12  C   UNL     1       2.950   8.088  17.588  0.00  0.00    +0.000 A 
ATOM     13  C   UNL     1       4.039   7.219  17.505  0.00  0.00    +0.000 A 
ENDBRANCH   1   8
BRANCH   1  14
ATOM     14  C   UNL     1       6.749   5.691  19.019  0.00  0.00    +0.000 C 
ATOM     15  N   UNL     1       7.540   6.653  18.465  0.00  0.00    +0.000 N 
ATOM     16  O   UNL     1       7.197   5.161  20.041  0.00  0.00    +0.000 OA
ATOM     17  H   UNL     1       7.247   7.280  17.732  0.00  0.00    +0.000 HD
ATOM     18  H   UNL     1       8.354   6.922  19.008  0.00  0.00    +0.000 HD
ENDBRANCH   1  14
BRANCH   1  19
ATOM     19  C   UNL     1       5.153   3.850  19.091  0.00  0.00    +0.000 C 
BRANCH  19  20
ATOM     20  C   UNL     1       4.322   2.751  18.427  0.00  0.00    +0.000 C 
BRANCH  20  26
ATOM     21  C   UNL     1       3.100   2.425  21.254  0.00  0.00    +0.000 C 
ATOM     22  C   UNL     1       2.341   2.720  20.011  0.00  0.00    +0.000 A 
ATOM     23  N   UNL     1       1.043   2.941  19.948  0.00  0.00    +0.000 NA
ATOM     24  C   UNL     1       0.773   3.211  18.633  0.00  0.00    +0.000 A 
ATOM     25  C   UNL     1       1.920   3.148  17.881  0.00  0.00    +0.000 A 
ATOM     26  N   UNL     1       2.907   2.825  18.761  0.00  0.00    +0.000 N 
ENDBRANCH  20  26
ENDBRANCH  19  20
ENDBRANCH   1  19
TORSDOF 6
ENDMDL
MODEL 8
REMARK VINA RESULT:      -7.2      1.767      4.577
REMARK  Name = 
REMARK  7 active torsions:
REMARK  status: ('A' for Active; 'I' for Inactive)
REMARK    1  A    between atoms: C_1  and  C_2
REMARK    2  A    between atoms: N_6  and  C_7
REMARK    3  A    between atoms: C_7  and  C_8
REMARK    4  A    between atoms: C_8  and  C_9
REMARK    5  A    between atoms: C_9  and  C_10
REMARK    6  A    between atoms: C_9  and  C_13
REMARK    7  A    between atoms: C_9  and  C_19
REMARK                            x       y       z     vdW  Elec       q    Type
REMARK                         _______ _______ _______ _____ _____    ______ ____
ROOT
ATOM      1  C   UNL     1       5.457   4.961  17.592  0.00  0.00    +0.000 C 
ENDROOT
BRANCH   1   2
ATOM      2  C   UNL     1       4.374   3.923  18.048  0.00  0.00    +0.000 A 
ATOM      3  C   UNL     1       4.487   3.217  19.266  0.00  0.00    +0.000 A 
ATOM      4  C   UNL     1       3.594   2.201  19.624  0.00  0.00    +0.000 A 
ATOM      5  C   UNL     1       2.506   1.915  18.814  0.00  0.00    +0.000 A 
ATOM      6  C   UNL     1       2.325   2.634  17.637  0.00  0.00    +0.000 A 
ATOM      7  C   UNL     1       3.260   3.601  17.244  0.00  0.00    +0.000 A 
ENDBRANCH   1   2
BRANCH   1   8
ATOM      8  C   UNL     1       5.873   4.746  16.087  0.00  0.00    +0.000 A 
ATOM      9  C   UNL     1       5.196   3.871  15.219  0.00  0.00    +0.000 A 
ATOM     10  C   UNL     1       5.623   3.669  13.900  0.00  0.00    +0.000 A 
ATOM     11  C   UNL     1       6.720   4.357  13.398  0.00  0.00    +0.000 A 
ATOM     12  C   UNL     1       7.363   5.287  14.200  0.00  0.00    +0.000 A 
ATOM     13  C   UNL     1       6.926   5.493  15.510  0.00  0.00    +0.000 A 
ENDBRANCH   1   8
BRANCH   1  14
ATOM     14  C   UNL     1       6.734   4.979  18.546  0.00  0.00    +0.000 C 
ATOM     15  N   UNL     1       7.859   4.280  18.219  0.00  0.00    +0.000 N 
ATOM     16  O   UNL     1       6.728   5.470  19.679  0.00  0.00    +0.000 OA
ATOM     17  H   UNL     1       8.082   3.960  17.290  0.00  0.00    +0.000 HD
ATOM     18  H   UNL     1       8.621   4.335  18.886  0.00  0.00    +0.000 HD
ENDBRANCH   1  14
BRANCH   1  19
ATOM     19  C   UNL     1       4.947   6.449  17.783  0.00  0.00    +0.000 C 
BRANCH  19  20
ATOM     20  C   UNL     1       3.471   6.745  17.507  0.00  0.00    +0.000 C 
BRANCH  20  26
ATOM     21  C   UNL     1       1.990   9.448  17.809  0.00  0.00    +0.000 C 
ATOM     22  C   UNL     1       2.055   8.377  18.836  0.00  0.00    +0.000 A 
ATOM     23  N   UNL     1       1.441   8.404  20.002  0.00  0.00    +0.000 NA
ATOM     24  C   UNL     1       1.733   7.212  20.608  0.00  0.00    +0.000 A 
ATOM     25  C   UNL     1       2.542   6.447  19.804  0.00  0.00    +0.000 A 
ATOM     26  N   UNL     1       2.751   7.199  18.687  0.00  0.00    +0.000 N 
ENDBRANCH  20  26
ENDBRANCH  19  20
ENDBRANCH   1  19
TORSDOF 6
ENDMDL
MODEL 9
REMARK VINA RESULT:      -7.1      1.743      4.672
REMARK  Name = 
REMARK  7 active torsions:
REMARK  status: ('A' for Active; 'I' for Inactive)
REMARK    1  A    between atoms: C_1  and  C_2
REMARK    2  A    between atoms: N_6  and  C_7
REMARK    3  A    between atoms: C_7  and  C_8
REMARK    4  A    between atoms: C_8  and  C_9
REMARK    5  A    between atoms: C_9  and  C_10
REMARK    6  A    between atoms: C_9  and  C_13
REMARK    7  A    between atoms: C_9  and  C_19
REMARK                            x       y       z     vdW  Elec       q    Type
REMARK                         _______ _______ _______ _____ _____    ______ ____
ROOT
ATOM      1  C   UNL     1       5.481   4.947  17.571  0.00  0.00    +0.000 C 
ENDROOT
BRANCH   1   2
ATOM      2  C   UNL     1       4.389   3.907  18.005  0.00  0.00    +0.000 A 
ATOM      3  C   UNL     1       3.227   3.683  17.234  0.00  0.00    +0.000 A 
ATOM      4  C   UNL     1       2.191   2.852  17.674  0.00  0.00    +0.000 A 
ATOM      5  C   UNL     1       2.320   2.149  18.861  0.00  0.00    +0.000 A 
ATOM      6  C   UNL     1       3.479   2.293  19.616  0.00  0.00    +0.000 A 
ATOM      7  C   UNL     1       4.485   3.182  19.212  0.00  0.00    +0.000 A 
ENDBRANCH   1   2
BRANCH   1   8
ATOM      8  C   UNL     1       5.925   4.736  16.074  0.00  0.00    +0.000 A 
ATOM      9  C   UNL     1       7.003   5.422  15.488  0.00  0.00    +0.000 A 
ATOM     10  C   UNL     1       7.341   5.245  14.140  0.00  0.00    +0.000 A 
ATOM     11  C   UNL     1       6.631   4.355  13.344  0.00  0.00    +0.000 A 
ATOM     12  C   UNL     1       5.613   3.602  13.909  0.00  0.00    +0.000 A 
ATOM     13  C   UNL     1       5.289   3.774  15.256  0.00  0.00    +0.000 A 
ENDBRANCH   1   8
BRANCH   1  14
ATOM     14  C   UNL     1       6.740   4.963  18.550  0.00  0.00    +0.000 C 
ATOM     15  N   UNL     1       7.873   4.271  18.239  0.00  0.00    +0.000 N 
ATOM     16  O   UNL     1       6.710   5.446  19.686  0.00  0.00    +0.000 OA
ATOM     17  H   UNL     1       8.114   3.959  17.312  0.00  0.00    +0.000 HD
ATOM     18  H   UNL     1       8.623   4.324  18.920  0.00  0.00    +0.000 HD
ENDBRANCH   1  14
BRANCH   1  19
ATOM     19  C   UNL     1       4.965   6.434  17.758  0.00  0.00    +0.000 C 
BRANCH  19  20
ATOM     20  C   UNL     1       3.489   6.724  17.484  0.00  0.00    +0.000 C 
BRANCH  20  26
ATOM     21  C   UNL     1       1.969   9.406  17.783  0.00  0.00    +0.000 C 
ATOM     22  C   UNL     1       2.054   8.339  18.814  0.00  0.00    +0.000 A 
ATOM     23  N   UNL     1       1.445   8.361  19.982  0.00  0.00    +0.000 NA
ATOM     24  C   UNL     1       1.758   7.175  20.590  0.00  0.00    +0.000 A 
ATOM     25  C   UNL     1       2.574   6.419  19.785  0.00  0.00    +0.000 A 
ATOM     26  N   UNL     1       2.766   7.170  18.665  0.00  0.00    +0.000 N 
ENDBRANCH  20  26
ENDBRANCH  19  20
ENDBRANCH   1  19
TORSDOF 6
ENDMDL
