MODEL 1
REMARK VINA RESULT:      -6.0      0.000      0.000
REMARK  Name = 
REMARK  28 active torsions:
REMARK  status: ('A' for Active; 'I' for Inactive)
REMARK    1  A    between atoms: C_1  and  C_2
REMARK    2  A    between atoms: C_2  and  C_3
REMARK    3  A    between atoms: C_2  and  C_4
REMARK    4  A    between atoms: C_2  and  C_5
REMARK    5  A    between atoms: C_5  and  C_6
REMARK    6  A    between atoms: C_6  and  N_7
REMARK    7  A    between atoms: C_8  and  C_10
REMARK    8  A    between atoms: C_10  and  C_11
REMARK    9  A    between atoms: C_10  and  N_16
REMARK   10  A    between atoms: C_11  and  C_12
REMARK   11  A    between atoms: C_12  and  C_13
REMARK   12  A    between atoms: C_13  and  C_14
REMARK   13  A    between atoms: C_14  and  N_15
REMARK   14  A    between atoms: C_17  and  CA_19
REMARK   15  A    between atoms: CA_19  and  C_20
REMARK   16  A    between atoms: CA_19  and  N_22
REMARK   17  A    between atoms: C_20  and  O_21
REMARK   18  A    between atoms: C_23  and  C_25
REMARK   19  A    between atoms: C_25  and  C_26
REMARK   20  A    between atoms: C_26  and  C_27
REMARK   21  A    between atoms: C_27  and  C_28
REMARK   22  A    between atoms: C_28  and  C_29
REMARK   23  A    between atoms: C_29  and  C_30
REMARK   24  A    between atoms: C_30  and  C_31
REMARK   25  A    between atoms: C_31  and  C_32
REMARK   26  A    between atoms: C_32  and  C_33
REMARK   27  A    between atoms: C_33  and  C_34
REMARK   28  A    between atoms: C_34  and  N_35
REMARK                            x       y       z     vdW  Elec       q    Type
REMARK                         _______ _______ _______ _____ _____    ______ ____
ROOT
ATOM      1  N   UNL     1       3.754   5.692  19.449  0.00  0.00    +0.000 N 
ATOM      2  C   UNL     1       4.251   5.241  18.238  0.00  0.00    +0.000 C 
ATOM      3  O   UNL     1       3.527   4.778  17.354  0.00  0.00    +0.000 OA
ATOM      4  H   UNL     1       4.366   6.301  19.993  0.00  0.00    +0.000 HD
ENDROOT
BRANCH   1   5
ATOM      5  C   UNL     1       2.321   5.817  19.656  0.00  0.00    +0.000 C 
BRANCH   5   7
ATOM      6  N   UNL     1       1.464   7.574  21.131  0.00  0.00    +0.000 N 
ATOM      7  C   UNL     1       1.975   7.296  19.877  0.00  0.00    +0.000 C 
ATOM      8  O   UNL     1       2.204   8.164  19.039  0.00  0.00    +0.000 OA
ATOM      9  H   UNL     1       1.196   6.822  21.754  0.00  0.00    +0.000 HD
BRANCH   6  10
ATOM     10  C   UNL     1       1.233   8.935  21.547  0.00  0.00    +0.000 C 
BRANCH  10  11
ATOM     11  C   UNL     1      -0.164   9.430  21.161  0.00  0.00    +0.000 C 
BRANCH  11  13
ATOM     12  C   UNL     1      -0.767  11.494  22.503  0.00  0.00    +0.000 C 
ATOM     13  C   UNL     1      -0.305  10.969  21.133  0.00  0.00    +0.000 C 
ATOM     14  C   UNL     1      -1.313  11.398  20.057  0.00  0.00    +0.000 C 
ATOM     15  C   UNL     1       1.067  11.594  20.814  0.00  0.00    +0.000 C 
ENDBRANCH  11  13
ENDBRANCH  10  11
ENDBRANCH   6  10
ENDBRANCH   5   7
BRANCH   5  16
ATOM     16  C   UNL     1       1.860   5.013  20.877  0.00  0.00    +0.000 C 
BRANCH  16  17
ATOM     17  C   UNL     1       0.980   3.836  20.473  0.00  0.00    +0.000 C 
BRANCH  17  18
ATOM     18  C   UNL     1       1.809   2.600  20.143  0.00  0.00    +0.000 C 
BRANCH  18  19
ATOM     19  C   UNL     1       1.560   2.190  18.696  0.00  0.00    +0.000 C 
BRANCH  19  20
ATOM     20  N   UNL     1       2.815   1.835  18.049  0.00  0.00    +0.000 NA
ATOM     21  H   UNL     1       2.846   2.221  17.106  0.00  0.00    +0.000 HD
ATOM     22  H   UNL     1       2.861   0.823  17.939  0.00  0.00    +0.000 HD
ENDBRANCH  19  20
ENDBRANCH  18  19
ENDBRANCH  17  18
ENDBRANCH  16  17
ENDBRANCH   5  16
ENDBRANCH   1   5
BRANCH   2  23
ATOM     23  CA  UNL     1       5.784   5.129  18.158  0.00  0.00    +0.000 C 
BRANCH  23  24
ATOM     24  N   UNL     1       6.469   6.423  18.282  0.00  0.00    +0.000 N 
ATOM     25  C   UNL     1       6.569   7.252  17.186  0.00  0.00    +0.000 C 
ATOM     26  O   UNL     1       6.127   6.965  16.085  0.00  0.00    +0.000 OA
ATOM     27  H   UNL     1       6.911   6.646  19.162  0.00  0.00    +0.000 HD
BRANCH  25  28
ATOM     28  C   UNL     1       7.336   8.532  17.427  0.00  0.00    +0.000 C 
BRANCH  28  29
ATOM     29  C   UNL     1       8.476   8.281  18.406  0.00  0.00    +0.000 C 
BRANCH  29  30
ATOM     30  C   UNL     1       8.875   9.559  19.138  0.00  0.00    +0.000 C 
BRANCH  30  31
ATOM     31  C   UNL     1       9.275  10.645  18.141  0.00  0.00    +0.000 C 
BRANCH  31  32
ATOM     32  C   UNL     1      10.688  11.150  18.413  0.00  0.00    +0.000 C 
BRANCH  32  33
ATOM     33  C   UNL     1      10.902  12.522  17.781  0.00  0.00    +0.000 C 
BRANCH  33  34
ATOM     34  C   UNL     1      10.987  13.601  18.853  0.00  0.00    +0.000 C 
BRANCH  34  35
ATOM     35  C   UNL     1      11.723  14.828  18.329  0.00  0.00    +0.000 C 
BRANCH  35  36
ATOM     36  C   UNL     1      11.234  15.189  16.932  0.00  0.00    +0.000 C 
BRANCH  36  37
ATOM     37  C   UNL     1      10.529  16.537  16.945  0.00  0.00    +0.000 C 
BRANCH  37  38
ATOM     38  N   UNL     1      10.839  17.228  18.187  0.00  0.00    +0.000 NA
ATOM     39  H   UNL     1      10.520  16.661  18.977  0.00  0.00    +0.000 HD
ATOM     40  H   UNL     1      10.343  18.119  18.193  0.00  0.00    +0.000 HD
ENDBRANCH  37  38
ENDBRANCH  36  37
ENDBRANCH  35  36
ENDBRANCH  34  35
ENDBRANCH  33  34
ENDBRANCH  32  33
ENDBRANCH  31  32
ENDBRANCH  30  31
ENDBRANCH  29  30
ENDBRANCH  28  29
ENDBRANCH  25  28
ENDBRANCH  23  24
BRANCH  23  41
ATOM     41  C   UNL     1       6.257   4.085  19.189  0.00  0.00    +0.000 C 
BRANCH  41  42
ATOM     42  O   UNL     1       5.299   3.052  19.438  0.00  0.00    +0.000 OA
ATOM     43  H   UNL     1       5.649   2.233  19.031  0.00  0.00    +0.000 HD
ENDBRANCH  41  42
ENDBRANCH  23  41
ENDBRANCH   2  23
TORSDOF 25
ENDMDL
MODEL 2
REMARK VINA RESULT:      -5.8      2.673      8.893
REMARK  Name = 
REMARK  28 active torsions:
REMARK  status: ('A' for Active; 'I' for Inactive)
REMARK    1  A    between atoms: C_1  and  C_2
REMARK    2  A    between atoms: C_2  and  C_3
REMARK    3  A    between atoms: C_2  and  C_4
REMARK    4  A    between atoms: C_2  and  C_5
REMARK    5  A    between atoms: C_5  and  C_6
REMARK    6  A    between atoms: C_6  and  N_7
REMARK    7  A    between atoms: C_8  and  C_10
REMARK    8  A    between atoms: C_10  and  C_11
REMARK    9  A    between atoms: C_10  and  N_16
REMARK   10  A    between atoms: C_11  and  C_12
REMARK   11  A    between atoms: C_12  and  C_13
REMARK   12  A    between atoms: C_13  and  C_14
REMARK   13  A    between atoms: C_14  and  N_15
REMARK   14  A    between atoms: C_17  and  CA_19
REMARK   15  A    between atoms: CA_19  and  C_20
REMARK   16  A    between atoms: CA_19  and  N_22
REMARK   17  A    between atoms: C_20  and  O_21
REMARK   18  A    between atoms: C_23  and  C_25
REMARK   19  A    between atoms: C_25  and  C_26
REMARK   20  A    between atoms: C_26  and  C_27
REMARK   21  A    between atoms: C_27  and  C_28
REMARK   22  A    between atoms: C_28  and  C_29
REMARK   23  A    between atoms: C_29  and  C_30
REMARK   24  A    between atoms: C_30  and  C_31
REMARK   25  A    between atoms: C_31  and  C_32
REMARK   26  A    between atoms: C_32  and  C_33
REMARK   27  A    between atoms: C_33  and  C_34
REMARK   28  A    between atoms: C_34  and  N_35
REMARK                            x       y       z     vdW  Elec       q    Type
REMARK                         _______ _______ _______ _____ _____    ______ ____
ROOT
ATOM      1  N   UNL     1       5.690   5.930  18.333  0.00  0.00    +0.000 N 
ATOM      2  C   UNL     1       4.970   5.151  19.224  0.00  0.00    +0.000 C 
ATOM      3  O   UNL     1       5.510   4.352  19.992  0.00  0.00    +0.000 OA
ATOM      4  H   UNL     1       5.207   6.743  17.947  0.00  0.00    +0.000 HD
ENDROOT
BRANCH   1   5
ATOM      5  C   UNL     1       7.141   5.979  18.404  0.00  0.00    +0.000 C 
BRANCH   5   7
ATOM      6  N   UNL     1       8.434   8.021  18.803  0.00  0.00    +0.000 N 
ATOM      7  C   UNL     1       7.619   7.351  17.909  0.00  0.00    +0.000 C 
ATOM      8  O   UNL     1       7.362   7.779  16.786  0.00  0.00    +0.000 OA
ATOM      9  H   UNL     1       8.538   7.684  19.753  0.00  0.00    +0.000 HD
BRANCH   6  10
ATOM     10  C   UNL     1       9.086   9.249  18.426  0.00  0.00    +0.000 C 
BRANCH  10  11
ATOM     11  C   UNL     1       9.242  10.210  19.609  0.00  0.00    +0.000 C 
BRANCH  11  13
ATOM     12  C   UNL     1      11.311  11.508  18.935  0.00  0.00    +0.000 C 
ATOM     13  C   UNL     1       9.804  11.599  19.227  0.00  0.00    +0.000 C 
ATOM     14  C   UNL     1       9.563  12.606  20.360  0.00  0.00    +0.000 C 
ATOM     15  C   UNL     1       9.094  12.095  17.953  0.00  0.00    +0.000 C 
ENDBRANCH  11  13
ENDBRANCH  10  11
ENDBRANCH   6  10
ENDBRANCH   5   7
BRANCH   5  16
ATOM     16  C   UNL     1       7.779   4.889  17.535  0.00  0.00    +0.000 C 
BRANCH  16  17
ATOM     17  C   UNL     1       6.777   4.301  16.548  0.00  0.00    +0.000 C 
BRANCH  17  18
ATOM     18  C   UNL     1       7.220   4.510  15.104  0.00  0.00    +0.000 C 
BRANCH  18  19
ATOM     19  C   UNL     1       6.149   5.291  14.350  0.00  0.00    +0.000 C 
BRANCH  19  20
ATOM     20  N   UNL     1       5.322   6.042  15.284  0.00  0.00    +0.000 NA
ATOM     21  H   UNL     1       4.347   6.019  14.986  0.00  0.00    +0.000 HD
ATOM     22  H   UNL     1       5.598   7.023  15.262  0.00  0.00    +0.000 HD
ENDBRANCH  19  20
ENDBRANCH  18  19
ENDBRANCH  17  18
ENDBRANCH  16  17
ENDBRANCH   5  16
ENDBRANCH   1   5
BRANCH   2  23
ATOM     23  CA  UNL     1       3.444   5.167  19.025  0.00  0.00    +0.000 C 
BRANCH  23  24
ATOM     24  N   UNL     1       2.881   6.522  18.952  0.00  0.00    +0.000 N 
ATOM     25  C   UNL     1       2.099   6.995  19.982  0.00  0.00    +0.000 C 
ATOM     26  O   UNL     1       1.823   6.336  20.973  0.00  0.00    +0.000 OA
ATOM     27  H   UNL     1       3.031   7.056  18.108  0.00  0.00    +0.000 HD
BRANCH  25  28
ATOM     28  C   UNL     1       1.540   8.383  19.769  0.00  0.00    +0.000 C 
BRANCH  28  29
ATOM     29  C   UNL     1       0.782   8.837  21.010  0.00  0.00    +0.000 C 
BRANCH  29  30
ATOM     30  C   UNL     1       0.694  10.358  21.086  0.00  0.00    +0.000 C 
BRANCH  30  31
ATOM     31  C   UNL     1      -0.764  10.810  21.119  0.00  0.00    +0.000 C 
BRANCH  31  32
ATOM     32  C   UNL     1      -1.028  11.896  20.081  0.00  0.00    +0.000 C 
BRANCH  32  33
ATOM     33  C   UNL     1      -0.415  11.519  18.735  0.00  0.00    +0.000 C 
BRANCH  33  34
ATOM     34  C   UNL     1      -1.172  10.356  18.107  0.00  0.00    +0.000 C 
BRANCH  34  35
ATOM     35  C   UNL     1      -2.677  10.585  18.187  0.00  0.00    +0.000 C 
BRANCH  35  36
ATOM     36  C   UNL     1      -3.385   9.906  17.022  0.00  0.00    +0.000 C 
BRANCH  36  37
ATOM     37  C   UNL     1      -2.765  10.329  15.699  0.00  0.00    +0.000 C 
BRANCH  37  38
ATOM     38  N   UNL     1      -3.339  11.599  15.285  0.00  0.00    +0.000 NA
ATOM     39  H   UNL     1      -3.024  12.336  15.922  0.00  0.00    +0.000 HD
ATOM     40  H   UNL     1      -4.356  11.526  15.337  0.00  0.00    +0.000 HD
ENDBRANCH  37  38
ENDBRANCH  36  37
ENDBRANCH  35  36
ENDBRANCH  34  35
ENDBRANCH  33  34
ENDBRANCH  32  33
ENDBRANCH  31  32
ENDBRANCH  30  31
ENDBRANCH  29  30
ENDBRANCH  28  29
ENDBRANCH  25  28
ENDBRANCH  23  24
BRANCH  23  41
ATOM     41  C   UNL     1       3.096   4.292  17.805  0.00  0.00    +0.000 C 
BRANCH  41  42
ATOM     42  O   UNL     1       3.949   3.153  17.655  0.00  0.00    +0.000 OA
ATOM     43  H   UNL     1       4.409   3.027  18.510  0.00  0.00    +0.000 HD
ENDBRANCH  41  42
ENDBRANCH  23  41
ENDBRANCH   2  23
TORSDOF 25
ENDMDL
MODEL 3
REMARK VINA RESULT:      -5.7      2.867      8.846
REMARK  Name = 
REMARK  28 active torsions:
REMARK  status: ('A' for Active; 'I' for Inactive)
REMARK    1  A    between atoms: C_1  and  C_2
REMARK    2  A    between atoms: C_2  and  C_3
REMARK    3  A    between atoms: C_2  and  C_4
REMARK    4  A    between atoms: C_2  and  C_5
REMARK    5  A    between atoms: C_5  and  C_6
REMARK    6  A    between atoms: C_6  and  N_7
REMARK    7  A    between atoms: C_8  and  C_10
REMARK    8  A    between atoms: C_10  and  C_11
REMARK    9  A    between atoms: C_10  and  N_16
REMARK   10  A    between atoms: C_11  and  C_12
REMARK   11  A    between atoms: C_12  and  C_13
REMARK   12  A    between atoms: C_13  and  C_14
REMARK   13  A    between atoms: C_14  and  N_15
REMARK   14  A    between atoms: C_17  and  CA_19
REMARK   15  A    between atoms: CA_19  and  C_20
REMARK   16  A    between atoms: CA_19  and  N_22
REMARK   17  A    between atoms: C_20  and  O_21
REMARK   18  A    between atoms: C_23  and  C_25
REMARK   19  A    between atoms: C_25  and  C_26
REMARK   20  A    between atoms: C_26  and  C_27
REMARK   21  A    between atoms: C_27  and  C_28
REMARK   22  A    between atoms: C_28  and  C_29
REMARK   23  A    between atoms: C_29  and  C_30
REMARK   24  A    between atoms: C_30  and  C_31
REMARK   25  A    between atoms: C_31  and  C_32
REMARK   26  A    between atoms: C_32  and  C_33
REMARK   27  A    between atoms: C_33  and  C_34
REMARK   28  A    between atoms: C_34  and  N_35
REMARK                            x       y       z     vdW  Elec       q    Type
REMARK                         _______ _______ _______ _____ _____    ______ ____
ROOT
ATOM      1  N   UNL     1       5.555   5.537  17.600  0.00  0.00    +0.000 N 
ATOM      2  C   UNL     1       5.271   4.756  18.707  0.00  0.00    +0.000 C 
ATOM      3  O   UNL     1       6.116   4.036  19.245  0.00  0.00    +0.000 OA
ATOM      4  H   UNL     1       4.900   6.294  17.397  0.00  0.00    +0.000 HD
ENDROOT
BRANCH   1   5
ATOM      5  C   UNL     1       6.925   5.691  17.138  0.00  0.00    +0.000 C 
BRANCH   5   7
ATOM      6  N   UNL     1       7.394   8.081  17.402  0.00  0.00    +0.000 N 
ATOM      7  C   UNL     1       7.597   6.820  17.932  0.00  0.00    +0.000 C 
ATOM      8  O   UNL     1       8.197   6.625  18.986  0.00  0.00    +0.000 OA
ATOM      9  H   UNL     1       6.984   8.190  16.482  0.00  0.00    +0.000 HD
BRANCH   6  10
ATOM     10  C   UNL     1       7.830   9.257  18.112  0.00  0.00    +0.000 C 
BRANCH  10  11
ATOM     11  C   UNL     1       9.084   9.878  17.490  0.00  0.00    +0.000 C 
BRANCH  11  13
ATOM     12  C   UNL     1       9.504  11.019  19.713  0.00  0.00    +0.000 C 
ATOM     13  C   UNL     1       9.560  11.175  18.185  0.00  0.00    +0.000 C 
ATOM     14  C   UNL     1       8.687  12.364  17.761  0.00  0.00    +0.000 C 
ATOM     15  C   UNL     1      11.021  11.453  17.780  0.00  0.00    +0.000 C 
ENDBRANCH  11  13
ENDBRANCH  10  11
ENDBRANCH   6  10
ENDBRANCH   5   7
BRANCH   5  16
ATOM     16  C   UNL     1       6.976   6.038  15.645  0.00  0.00    +0.000 C 
BRANCH  16  17
ATOM     17  C   UNL     1       7.202   4.797  14.790  0.00  0.00    +0.000 C 
BRANCH  17  18
ATOM     18  C   UNL     1       5.890   4.238  14.251  0.00  0.00    +0.000 C 
BRANCH  18  19
ATOM     19  C   UNL     1       6.140   3.549  12.914  0.00  0.00    +0.000 C 
BRANCH  19  20
ATOM     20  N   UNL     1       4.905   3.475  12.146  0.00  0.00    +0.000 NA
ATOM     21  H   UNL     1       4.192   2.977  12.676  0.00  0.00    +0.000 HD
ATOM     22  H   UNL     1       5.066   2.922  11.305  0.00  0.00    +0.000 HD
ENDBRANCH  19  20
ENDBRANCH  18  19
ENDBRANCH  17  18
ENDBRANCH  16  17
ENDBRANCH   5  16
ENDBRANCH   1   5
BRANCH   2  23
ATOM     23  CA  UNL     1       3.781   4.655  19.074  0.00  0.00    +0.000 C 
BRANCH  23  24
ATOM     24  N   UNL     1       3.076   5.943  19.005  0.00  0.00    +0.000 N 
ATOM     25  C   UNL     1       2.182   6.288  19.995  0.00  0.00    +0.000 C 
ATOM     26  O   UNL     1       1.919   5.565  20.943  0.00  0.00    +0.000 OA
ATOM     27  H   UNL     1       3.219   6.522  18.190  0.00  0.00    +0.000 HD
BRANCH  25  28
ATOM     28  C   UNL     1       1.487   7.614  19.788  0.00  0.00    +0.000 C 
BRANCH  28  29
ATOM     29  C   UNL     1       1.423   8.380  21.103  0.00  0.00    +0.000 C 
BRANCH  29  30
ATOM     30  C   UNL     1      -0.019   8.641  21.528  0.00  0.00    +0.000 C 
BRANCH  30  31
ATOM     31  C   UNL     1      -0.376  10.113  21.335  0.00  0.00    +0.000 C 
BRANCH  31  32
ATOM     32  C   UNL     1       0.512  10.764  20.279  0.00  0.00    +0.000 C 
BRANCH  32  33
ATOM     33  C   UNL     1      -0.323  11.261  19.103  0.00  0.00    +0.000 C 
BRANCH  33  34
ATOM     34  C   UNL     1      -1.463  10.294  18.806  0.00  0.00    +0.000 C 
BRANCH  34  35
ATOM     35  C   UNL     1      -1.539   9.989  17.315  0.00  0.00    +0.000 C 
BRANCH  35  36
ATOM     36  C   UNL     1      -2.989   9.918  16.856  0.00  0.00    +0.000 C 
BRANCH  36  37
ATOM     37  C   UNL     1      -3.224  10.852  15.678  0.00  0.00    +0.000 C 
BRANCH  37  38
ATOM     38  N   UNL     1      -2.930  10.144  14.441  0.00  0.00    +0.000 NA
ATOM     39  H   UNL     1      -3.437   9.255  14.432  0.00  0.00    +0.000 HD
ATOM     40  H   UNL     1      -1.928   9.958  14.406  0.00  0.00    +0.000 HD
ENDBRANCH  37  38
ENDBRANCH  36  37
ENDBRANCH  35  36
ENDBRANCH  34  35
ENDBRANCH  33  34
ENDBRANCH  32  33
ENDBRANCH  31  32
ENDBRANCH  30  31
ENDBRANCH  29  30
ENDBRANCH  28  29
ENDBRANCH  25  28
ENDBRANCH  23  24
BRANCH  23  41
ATOM     41  C   UNL     1       3.132   3.555  18.210  0.00  0.00    +0.000 C 
BRANCH  41  42
ATOM     42  O   UNL     1       4.075   2.799  17.445  0.00  0.00    +0.000 OA
ATOM     43  H   UNL     1       4.164   1.927  17.883  0.00  0.00    +0.000 HD
ENDBRANCH  41  42
ENDBRANCH  23  41
ENDBRANCH   2  23
TORSDOF 25
ENDMDL
MODEL 4
REMARK VINA RESULT:      -5.6      3.382      5.239
REMARK  Name = 
REMARK  28 active torsions:
REMARK  status: ('A' for Active; 'I' for Inactive)
REMARK    1  A    between atoms: C_1  and  C_2
REMARK    2  A    between atoms: C_2  and  C_3
REMARK    3  A    between atoms: C_2  and  C_4
REMARK    4  A    between atoms: C_2  and  C_5
REMARK    5  A    between atoms: C_5  and  C_6
REMARK    6  A    between atoms: C_6  and  N_7
REMARK    7  A    between atoms: C_8  and  C_10
REMARK    8  A    between atoms: C_10  and  C_11
REMARK    9  A    between atoms: C_10  and  N_16
REMARK   10  A    between atoms: C_11  and  C_12
REMARK   11  A    between atoms: C_12  and  C_13
REMARK   12  A    between atoms: C_13  and  C_14
REMARK   13  A    between atoms: C_14  and  N_15
REMARK   14  A    between atoms: C_17  and  CA_19
REMARK   15  A    between atoms: CA_19  and  C_20
REMARK   16  A    between atoms: CA_19  and  N_22
REMARK   17  A    between atoms: C_20  and  O_21
REMARK   18  A    between atoms: C_23  and  C_25
REMARK   19  A    between atoms: C_25  and  C_26
REMARK   20  A    between atoms: C_26  and  C_27
REMARK   21  A    between atoms: C_27  and  C_28
REMARK   22  A    between atoms: C_28  and  C_29
REMARK   23  A    between atoms: C_29  and  C_30
REMARK   24  A    between atoms: C_30  and  C_31
REMARK   25  A    between atoms: C_31  and  C_32
REMARK   26  A    between atoms: C_32  and  C_33
REMARK   27  A    between atoms: C_33  and  C_34
REMARK   28  A    between atoms: C_34  and  N_35
REMARK                            x       y       z     vdW  Elec       q    Type
REMARK                         _______ _______ _______ _____ _____    ______ ____
ROOT
ATOM      1  N   UNL     1       6.191   5.203  16.974  0.00  0.00    +0.000 N 
ATOM      2  C   UNL     1       6.428   6.336  17.734  0.00  0.00    +0.000 C 
ATOM      3  O   UNL     1       5.676   7.313  17.720  0.00  0.00    +0.000 OA
ATOM      4  H   UNL     1       6.691   4.357  17.250  0.00  0.00    +0.000 HD
ENDROOT
BRANCH   1   5
ATOM      5  C   UNL     1       4.931   5.040  16.268  0.00  0.00    +0.000 C 
BRANCH   5   7
ATOM      6  N   UNL     1       4.733   3.376  18.054  0.00  0.00    +0.000 N 
ATOM      7  C   UNL     1       4.114   3.935  16.952  0.00  0.00    +0.000 C 
ATOM      8  O   UNL     1       2.979   3.630  16.594  0.00  0.00    +0.000 OA
ATOM      9  H   UNL     1       5.705   3.580  18.255  0.00  0.00    +0.000 HD
BRANCH   6  10
ATOM     10  C   UNL     1       4.033   2.435  18.893  0.00  0.00    +0.000 C 
BRANCH  10  11
ATOM     11  C   UNL     1       3.512   3.081  20.180  0.00  0.00    +0.000 C 
BRANCH  11  13
ATOM     12  C   UNL     1       1.450   4.543  20.005  0.00  0.00    +0.000 C 
ATOM     13  C   UNL     1       1.970   3.124  20.288  0.00  0.00    +0.000 C 
ATOM     14  C   UNL     1       1.517   2.682  21.686  0.00  0.00    +0.000 C 
ATOM     15  C   UNL     1       1.367   2.169  19.239  0.00  0.00    +0.000 C 
ENDBRANCH  11  13
ENDBRANCH  10  11
ENDBRANCH   6  10
ENDBRANCH   5   7
BRANCH   5  16
ATOM     16  C   UNL     1       5.158   4.652  14.802  0.00  0.00    +0.000 C 
BRANCH  16  17
ATOM     17  C   UNL     1       6.635   4.413  14.508  0.00  0.00    +0.000 C 
BRANCH  17  18
ATOM     18  C   UNL     1       6.860   3.990  13.061  0.00  0.00    +0.000 C 
BRANCH  18  19
ATOM     19  C   UNL     1       5.573   3.398  12.496  0.00  0.00    +0.000 C 
BRANCH  19  20
ATOM     20  N   UNL     1       5.856   2.156  11.792  0.00  0.00    +0.000 NA
ATOM     21  H   UNL     1       6.667   1.696  12.204  0.00  0.00    +0.000 HD
ATOM     22  H   UNL     1       6.114   2.368  10.829  0.00  0.00    +0.000 HD
ENDBRANCH  19  20
ENDBRANCH  18  19
ENDBRANCH  17  18
ENDBRANCH  16  17
ENDBRANCH   5  16
ENDBRANCH   1   5
BRANCH   2  23
ATOM     23  CA  UNL     1       7.810   6.398  18.407  0.00  0.00    +0.000 C 
BRANCH  23  24
ATOM     24  N   UNL     1       8.132   7.723  18.955  0.00  0.00    +0.000 N 
ATOM     25  C   UNL     1       8.447   8.758  18.102  0.00  0.00    +0.000 C 
ATOM     26  O   UNL     1       8.493   8.637  16.888  0.00  0.00    +0.000 OA
ATOM     27  H   UNL     1       8.177   7.826  19.959  0.00  0.00    +0.000 HD
BRANCH  25  28
ATOM     28  C   UNL     1       8.805  10.057  18.787  0.00  0.00    +0.000 C 
BRANCH  28  29
ATOM     29  C   UNL     1       8.640  11.221  17.818  0.00  0.00    +0.000 C 
BRANCH  29  30
ATOM     30  C   UNL     1       9.376  12.464  18.307  0.00  0.00    +0.000 C 
BRANCH  30  31
ATOM     31  C   UNL     1      10.640  12.698  17.483  0.00  0.00    +0.000 C 
BRANCH  31  32
ATOM     32  C   UNL     1      11.860  12.077  18.154  0.00  0.00    +0.000 C 
BRANCH  32  33
ATOM     33  C   UNL     1      12.131  12.739  19.502  0.00  0.00    +0.000 C 
BRANCH  33  34
ATOM     34  C   UNL     1      12.327  14.241  19.333  0.00  0.00    +0.000 C 
BRANCH  34  35
ATOM     35  C   UNL     1      11.361  15.015  20.222  0.00  0.00    +0.000 C 
BRANCH  35  36
ATOM     36  C   UNL     1      10.759  16.190  19.463  0.00  0.00    +0.000 C 
BRANCH  36  37
ATOM     37  C   UNL     1       9.263  15.991  19.266  0.00  0.00    +0.000 C 
BRANCH  37  38
ATOM     38  N   UNL     1       8.694  15.416  20.475  0.00  0.00    +0.000 NA
ATOM     39  H   UNL     1       8.632  16.139  21.197  0.00  0.00    +0.000 HD
ATOM     40  H   UNL     1       9.312  14.672  20.801  0.00  0.00    +0.000 HD
ENDBRANCH  37  38
ENDBRANCH  36  37
ENDBRANCH  35  36
ENDBRANCH  34  35
ENDBRANCH  33  34
ENDBRANCH  32  33
ENDBRANCH  31  32
ENDBRANCH  30  31
ENDBRANCH  29  30
ENDBRANCH  28  29
ENDBRANCH  25  28
ENDBRANCH  23  24
BRANCH  23  41
ATOM     41  C   UNL     1       7.903   5.266  19.449  0.00  0.00    +0.000 C 
BRANCH  41  42
ATOM     42  O   UNL     1       6.631   4.846  19.953  0.00  0.00    +0.000 OA
ATOM     43  H   UNL     1       5.978   5.524  19.680  0.00  0.00    +0.000 HD
ENDBRANCH  41  42
ENDBRANCH  23  41
ENDBRANCH   2  23
TORSDOF 25
ENDMDL
MODEL 5
REMARK VINA RESULT:      -5.6      3.172      9.305
REMARK  Name = 
REMARK  28 active torsions:
REMARK  status: ('A' for Active; 'I' for Inactive)
REMARK    1  A    between atoms: C_1  and  C_2
REMARK    2  A    between atoms: C_2  and  C_3
REMARK    3  A    between atoms: C_2  and  C_4
REMARK    4  A    between atoms: C_2  and  C_5
REMARK    5  A    between atoms: C_5  and  C_6
REMARK    6  A    between atoms: C_6  and  N_7
REMARK    7  A    between atoms: C_8  and  C_10
REMARK    8  A    between atoms: C_10  and  C_11
REMARK    9  A    between atoms: C_10  and  N_16
REMARK   10  A    between atoms: C_11  and  C_12
REMARK   11  A    between atoms: C_12  and  C_13
REMARK   12  A    between atoms: C_13  and  C_14
REMARK   13  A    between atoms: C_14  and  N_15
REMARK   14  A    between atoms: C_17  and  CA_19
REMARK   15  A    between atoms: CA_19  and  C_20
REMARK   16  A    between atoms: CA_19  and  N_22
REMARK   17  A    between atoms: C_20  and  O_21
REMARK   18  A    between atoms: C_23  and  C_25
REMARK   19  A    between atoms: C_25  and  C_26
REMARK   20  A    between atoms: C_26  and  C_27
REMARK   21  A    between atoms: C_27  and  C_28
REMARK   22  A    between atoms: C_28  and  C_29
REMARK   23  A    between atoms: C_29  and  C_30
REMARK   24  A    between atoms: C_30  and  C_31
REMARK   25  A    between atoms: C_31  and  C_32
REMARK   26  A    between atoms: C_32  and  C_33
REMARK   27  A    between atoms: C_33  and  C_34
REMARK   28  A    between atoms: C_34  and  N_35
REMARK                            x       y       z     vdW  Elec       q    Type
REMARK                         _______ _______ _______ _____ _____    ______ ____
ROOT
ATOM      1  N   UNL     1       5.843   5.549  18.387  0.00  0.00    +0.000 N 
ATOM      2  C   UNL     1       4.717   4.943  17.855  0.00  0.00    +0.000 C 
ATOM      3  O   UNL     1       4.414   5.036  16.663  0.00  0.00    +0.000 OA
ATOM      4  H   UNL     1       6.164   5.199  19.290  0.00  0.00    +0.000 HD
ENDROOT
BRANCH   1   5
ATOM      5  C   UNL     1       6.829   6.166  17.515  0.00  0.00    +0.000 C 
BRANCH   5   7
ATOM      6  N   UNL     1       6.741   5.531  15.151  0.00  0.00    +0.000 N 
ATOM      7  C   UNL     1       7.204   5.175  16.404  0.00  0.00    +0.000 C 
ATOM      8  O   UNL     1       7.916   4.194  16.601  0.00  0.00    +0.000 OA
ATOM      9  H   UNL     1       6.075   6.287  15.046  0.00  0.00    +0.000 HD
BRANCH   6  10
ATOM     10  C   UNL     1       7.137   4.788  13.981  0.00  0.00    +0.000 C 
BRANCH  10  11
ATOM     11  C   UNL     1       6.127   3.695  13.618  0.00  0.00    +0.000 C 
BRANCH  11  13
ATOM     12  C   UNL     1       4.611   3.591  11.590  0.00  0.00    +0.000 C 
ATOM     13  C   UNL     1       6.045   3.384  12.106  0.00  0.00    +0.000 C 
ATOM     14  C   UNL     1       6.484   1.939  11.830  0.00  0.00    +0.000 C 
ATOM     15  C   UNL     1       6.976   4.347  11.345  0.00  0.00    +0.000 C 
ENDBRANCH  11  13
ENDBRANCH  10  11
ENDBRANCH   6  10
ENDBRANCH   5   7
BRANCH   5  16
ATOM     16  C   UNL     1       8.097   6.547  18.287  0.00  0.00    +0.000 C 
BRANCH  16  17
ATOM     17  C   UNL     1       8.023   7.974  18.815  0.00  0.00    +0.000 C 
BRANCH  17  18
ATOM     18  C   UNL     1       7.991   8.993  17.682  0.00  0.00    +0.000 C 
BRANCH  18  19
ATOM     19  C   UNL     1       8.919  10.157  18.014  0.00  0.00    +0.000 C 
BRANCH  19  20
ATOM     20  N   UNL     1       9.201  10.184  19.442  0.00  0.00    +0.000 NA
ATOM     21  H   UNL     1       8.344  10.030  19.972  0.00  0.00    +0.000 HD
ATOM     22  H   UNL     1       9.527  11.114  19.702  0.00  0.00    +0.000 HD
ENDBRANCH  19  20
ENDBRANCH  18  19
ENDBRANCH  17  18
ENDBRANCH  16  17
ENDBRANCH   5  16
ENDBRANCH   1   5
BRANCH   2  23
ATOM     23  CA  UNL     1       3.740   4.353  18.887  0.00  0.00    +0.000 C 
BRANCH  23  24
ATOM     24  N   UNL     1       2.758   5.327  19.382  0.00  0.00    +0.000 N 
ATOM     25  C   UNL     1       2.221   5.178  20.643  0.00  0.00    +0.000 C 
ATOM     26  O   UNL     1       2.507   4.255  21.388  0.00  0.00    +0.000 OA
ATOM     27  H   UNL     1       2.448   6.053  18.753  0.00  0.00    +0.000 HD
BRANCH  25  28
ATOM     28  C   UNL     1       1.189   6.215  21.019  0.00  0.00    +0.000 C 
BRANCH  28  29
ATOM     29  C   UNL     1       1.679   7.605  20.633  0.00  0.00    +0.000 C 
BRANCH  29  30
ATOM     30  C   UNL     1       1.376   8.628  21.723  0.00  0.00    +0.000 C 
BRANCH  30  31
ATOM     31  C   UNL     1      -0.078   9.088  21.637  0.00  0.00    +0.000 C 
BRANCH  31  32
ATOM     32  C   UNL     1      -0.259  10.466  22.263  0.00  0.00    +0.000 C 
BRANCH  32  33
ATOM     33  C   UNL     1      -0.288  11.549  21.188  0.00  0.00    +0.000 C 
BRANCH  33  34
ATOM     34  C   UNL     1      -1.096  11.086  19.981  0.00  0.00    +0.000 C 
BRANCH  34  35
ATOM     35  C   UNL     1      -0.319  11.316  18.691  0.00  0.00    +0.000 C 
BRANCH  35  36
ATOM     36  C   UNL     1      -0.008   9.989  18.010  0.00  0.00    +0.000 C 
BRANCH  36  37
ATOM     37  C   UNL     1       1.495   9.795  17.876  0.00  0.00    +0.000 C 
BRANCH  37  38
ATOM     38  N   UNL     1       2.149  11.094  17.902  0.00  0.00    +0.000 NA
ATOM     39  H   UNL     1       1.599  11.738  18.478  0.00  0.00    +0.000 HD
ATOM     40  H   UNL     1       2.192  11.454  16.948  0.00  0.00    +0.000 HD
ENDBRANCH  37  38
ENDBRANCH  36  37
ENDBRANCH  35  36
ENDBRANCH  34  35
ENDBRANCH  33  34
ENDBRANCH  32  33
ENDBRANCH  31  32
ENDBRANCH  30  31
ENDBRANCH  29  30
ENDBRANCH  28  29
ENDBRANCH  25  28
ENDBRANCH  23  24
BRANCH  23  41
ATOM     41  C   UNL     1       3.099   3.084  18.291  0.00  0.00    +0.000 C 
BRANCH  41  42
ATOM     42  O   UNL     1       4.052   2.146  17.782  0.00  0.00    +0.000 OA
ATOM     43  H   UNL     1       4.104   1.413  18.429  0.00  0.00    +0.000 HD
ENDBRANCH  41  42
ENDBRANCH  23  41
ENDBRANCH   2  23
TORSDOF 25
ENDMDL
MODEL 6
REMARK VINA RESULT:      -5.5      5.295      8.056
REMARK  Name = 
REMARK  28 active torsions:
REMARK  status: ('A' for Active; 'I' for Inactive)
REMARK    1  A    between atoms: C_1  and  C_2
REMARK    2  A    between atoms: C_2  and  C_3
REMARK    3  A    between atoms: C_2  and  C_4
REMARK    4  A    between atoms: C_2  and  C_5
REMARK    5  A    between atoms: C_5  and  C_6
REMARK    6  A    between atoms: C_6  and  N_7
REMARK    7  A    between atoms: C_8  and  C_10
REMARK    8  A    between atoms: C_10  and  C_11
REMARK    9  A    between atoms: C_10  and  N_16
REMARK   10  A    between atoms: C_11  and  C_12
REMARK   11  A    between atoms: C_12  and  C_13
REMARK   12  A    between atoms: C_13  and  C_14
REMARK   13  A    between atoms: C_14  and  N_15
REMARK   14  A    between atoms: C_17  and  CA_19
REMARK   15  A    between atoms: CA_19  and  C_20
REMARK   16  A    between atoms: CA_19  and  N_22
REMARK   17  A    between atoms: C_20  and  O_21
REMARK   18  A    between atoms: C_23  and  C_25
REMARK   19  A    between atoms: C_25  and  C_26
REMARK   20  A    between atoms: C_26  and  C_27
REMARK   21  A    between atoms: C_27  and  C_28
REMARK   22  A    between atoms: C_28  and  C_29
REMARK   23  A    between atoms: C_29  and  C_30
REMARK   24  A    between atoms: C_30  and  C_31
REMARK   25  A    between atoms: C_31  and  C_32
REMARK   26  A    between atoms: C_32  and  C_33
REMARK   27  A    between atoms: C_33  and  C_34
REMARK   28  A    between atoms: C_34  and  N_35
REMARK                            x       y       z     vdW  Elec       q    Type
REMARK                         _______ _______ _______ _____ _____    ______ ____
ROOT
ATOM      1  N   UNL     1       0.697   9.472  19.280  0.00  0.00    +0.000 N 
ATOM      2  C   UNL     1       1.834   9.291  18.510  0.00  0.00    +0.000 C 
ATOM      3  O   UNL     1       2.124  10.035  17.571  0.00  0.00    +0.000 OA
ATOM      4  H   UNL     1       0.680   8.999  20.185  0.00  0.00    +0.000 HD
ENDROOT
BRANCH   1   5
ATOM      5  C   UNL     1      -0.108  10.673  19.133  0.00  0.00    +0.000 C 
BRANCH   5   7
ATOM      6  N   UNL     1      -1.181  12.329  20.583  0.00  0.00    +0.000 N 
ATOM      7  C   UNL     1      -0.148  11.416  20.474  0.00  0.00    +0.000 C 
ATOM      8  O   UNL     1       0.624  11.166  21.396  0.00  0.00    +0.000 OA
ATOM      9  H   UNL     1      -1.731  12.580  19.770  0.00  0.00    +0.000 HD
BRANCH   6  10
ATOM     10  C   UNL     1      -1.446  12.996  21.833  0.00  0.00    +0.000 C 
BRANCH  10  11
ATOM     11  C   UNL     1      -2.670  13.912  21.755  0.00  0.00    +0.000 C 
BRANCH  11  13
ATOM     12  C   UNL     1      -4.934  12.773  21.743  0.00  0.00    +0.000 C 
ATOM     13  C   UNL     1      -3.865  13.449  22.619  0.00  0.00    +0.000 C 
ATOM     14  C   UNL     1      -4.489  14.641  23.358  0.00  0.00    +0.000 C 
ATOM     15  C   UNL     1      -3.368  12.420  23.654  0.00  0.00    +0.000 C 
ENDBRANCH  11  13
ENDBRANCH  10  11
ENDBRANCH   6  10
ENDBRANCH   5   7
BRANCH   5  16
ATOM     16  C   UNL     1      -1.544  10.334  18.711  0.00  0.00    +0.000 C 
BRANCH  16  17
ATOM     17  C   UNL     1      -1.614   9.926  17.245  0.00  0.00    +0.000 C 
BRANCH  17  18
ATOM     18  C   UNL     1      -2.974  10.248  16.636  0.00  0.00    +0.000 C 
BRANCH  18  19
ATOM     19  C   UNL     1      -2.844  10.346  15.119  0.00  0.00    +0.000 C 
BRANCH  19  20
ATOM     20  N   UNL     1      -4.118  10.044  14.483  0.00  0.00    +0.000 NA
ATOM     21  H   UNL     1      -4.389  10.804  13.861  0.00  0.00    +0.000 HD
ATOM     22  H   UNL     1      -4.845   9.994  15.196  0.00  0.00    +0.000 HD
ENDBRANCH  19  20
ENDBRANCH  18  19
ENDBRANCH  17  18
ENDBRANCH  16  17
ENDBRANCH   5  16
ENDBRANCH   1   5
BRANCH   2  23
ATOM     23  CA  UNL     1       2.582   7.967  18.745  0.00  0.00    +0.000 C 
BRANCH  23  24
ATOM     24  N   UNL     1       1.787   6.972  19.480  0.00  0.00    +0.000 N 
ATOM     25  C   UNL     1       2.391   5.828  19.954  0.00  0.00    +0.000 C 
ATOM     26  O   UNL     1       3.573   5.574  19.784  0.00  0.00    +0.000 OA
ATOM     27  H   UNL     1       0.792   7.125  19.563  0.00  0.00    +0.000 HD
BRANCH  25  28
ATOM     28  C   UNL     1       1.460   4.863  20.651  0.00  0.00    +0.000 C 
BRANCH  28  29
ATOM     29  C   UNL     1       1.934   3.431  20.432  0.00  0.00    +0.000 C 
BRANCH  29  30
ATOM     30  C   UNL     1       1.113   2.729  19.356  0.00  0.00    +0.000 C 
BRANCH  30  31
ATOM     31  C   UNL     1       1.942   2.540  18.087  0.00  0.00    +0.000 C 
BRANCH  31  32
ATOM     32  C   UNL     1       3.344   2.036  18.413  0.00  0.00    +0.000 C 
BRANCH  32  33
ATOM     33  C   UNL     1       4.402   2.945  17.795  0.00  0.00    +0.000 C 
BRANCH  33  34
ATOM     34  C   UNL     1       3.796   3.802  16.690  0.00  0.00    +0.000 C 
BRANCH  34  35
ATOM     35  C   UNL     1       4.886   4.518  15.902  0.00  0.00    +0.000 C 
BRANCH  35  36
ATOM     36  C   UNL     1       6.218   3.793  16.051  0.00  0.00    +0.000 C 
BRANCH  36  37
ATOM     37  C   UNL     1       7.209   4.649  16.826  0.00  0.00    +0.000 C 
BRANCH  37  38
ATOM     38  N   UNL     1       7.187   6.004  16.296  0.00  0.00    +0.000 NA
ATOM     39  H   UNL     1       7.274   6.670  17.069  0.00  0.00    +0.000 HD
ATOM     40  H   UNL     1       6.293   6.153  15.827  0.00  0.00    +0.000 HD
ENDBRANCH  37  38
ENDBRANCH  36  37
ENDBRANCH  35  36
ENDBRANCH  34  35
ENDBRANCH  33  34
ENDBRANCH  32  33
ENDBRANCH  31  32
ENDBRANCH  30  31
ENDBRANCH  29  30
ENDBRANCH  28  29
ENDBRANCH  25  28
ENDBRANCH  23  24
BRANCH  23  41
ATOM     41  C   UNL     1       3.109   7.450  17.392  0.00  0.00    +0.000 C 
BRANCH  41  42
ATOM     42  O   UNL     1       4.524   7.232  17.375  0.00  0.00    +0.000 OA
ATOM     43  H   UNL     1       4.915   7.943  16.826  0.00  0.00    +0.000 HD
ENDBRANCH  41  42
ENDBRANCH  23  41
ENDBRANCH   2  23
TORSDOF 25
ENDMDL
MODEL 7
REMARK VINA RESULT:      -5.5      2.070      2.624
REMARK  Name = 
REMARK  28 active torsions:
REMARK  status: ('A' for Active; 'I' for Inactive)
REMARK    1  A    between atoms: C_1  and  C_2
REMARK    2  A    between atoms: C_2  and  C_3
REMARK    3  A    between atoms: C_2  and  C_4
REMARK    4  A    between atoms: C_2  and  C_5
REMARK    5  A    between atoms: C_5  and  C_6
REMARK    6  A    between atoms: C_6  and  N_7
REMARK    7  A    between atoms: C_8  and  C_10
REMARK    8  A    between atoms: C_10  and  C_11
REMARK    9  A    between atoms: C_10  and  N_16
REMARK   10  A    between atoms: C_11  and  C_12
REMARK   11  A    between atoms: C_12  and  C_13
REMARK   12  A    between atoms: C_13  and  C_14
REMARK   13  A    between atoms: C_14  and  N_15
REMARK   14  A    between atoms: C_17  and  CA_19
REMARK   15  A    between atoms: CA_19  and  C_20
REMARK   16  A    between atoms: CA_19  and  N_22
REMARK   17  A    between atoms: C_20  and  O_21
REMARK   18  A    between atoms: C_23  and  C_25
REMARK   19  A    between atoms: C_25  and  C_26
REMARK   20  A    between atoms: C_26  and  C_27
REMARK   21  A    between atoms: C_27  and  C_28
REMARK   22  A    between atoms: C_28  and  C_29
REMARK   23  A    between atoms: C_29  and  C_30
REMARK   24  A    between atoms: C_30  and  C_31
REMARK   25  A    between atoms: C_31  and  C_32
REMARK   26  A    between atoms: C_32  and  C_33
REMARK   27  A    between atoms: C_33  and  C_34
REMARK   28  A    between atoms: C_34  and  N_35
REMARK                            x       y       z     vdW  Elec       q    Type
REMARK                         _______ _______ _______ _____ _____    ______ ____
ROOT
ATOM      1  N   UNL     1       3.235   6.265  18.689  0.00  0.00    +0.000 N 
ATOM      2  C   UNL     1       3.432   5.333  17.684  0.00  0.00    +0.000 C 
ATOM      3  O   UNL     1       2.623   4.434  17.445  0.00  0.00    +0.000 OA
ATOM      4  H   UNL     1       3.795   7.117  18.636  0.00  0.00    +0.000 HD
ENDROOT
BRANCH   1   5
ATOM      5  C   UNL     1       1.960   6.339  19.385  0.00  0.00    +0.000 C 
BRANCH   5   7
ATOM      6  N   UNL     1       1.360   8.636  18.783  0.00  0.00    +0.000 N 
ATOM      7  C   UNL     1       1.711   7.790  19.819  0.00  0.00    +0.000 C 
ATOM      8  O   UNL     1       1.747   8.148  20.993  0.00  0.00    +0.000 OA
ATOM      9  H   UNL     1       1.442   8.330  17.821  0.00  0.00    +0.000 HD
BRANCH   6  10
ATOM     10  C   UNL     1       0.946   9.992  19.048  0.00  0.00    +0.000 C 
BRANCH  10  11
ATOM     11  C   UNL     1       1.898  11.020  18.430  0.00  0.00    +0.000 C 
BRANCH  11  13
ATOM     12  C   UNL     1       1.792  12.656  20.362  0.00  0.00    +0.000 C 
ATOM     13  C   UNL     1       1.609  12.481  18.845  0.00  0.00    +0.000 C 
ATOM     14  C   UNL     1       0.179  12.878  18.454  0.00  0.00    +0.000 C 
ATOM     15  C   UNL     1       2.604  13.413  18.127  0.00  0.00    +0.000 C 
ENDBRANCH  11  13
ENDBRANCH  10  11
ENDBRANCH   6  10
ENDBRANCH   5   7
BRANCH   5  16
ATOM     16  C   UNL     1       1.950   5.442  20.628  0.00  0.00    +0.000 C 
BRANCH  16  17
ATOM     17  C   UNL     1       0.942   4.307  20.490  0.00  0.00    +0.000 C 
BRANCH  17  18
ATOM     18  C   UNL     1       1.483   3.001  21.060  0.00  0.00    +0.000 C 
BRANCH  18  19
ATOM     19  C   UNL     1       2.946   2.838  20.662  0.00  0.00    +0.000 C 
BRANCH  19  20
ATOM     20  N   UNL     1       3.047   2.155  19.381  0.00  0.00    +0.000 NA
ATOM     21  H   UNL     1       3.294   2.819  18.648  0.00  0.00    +0.000 HD
ATOM     22  H   UNL     1       2.132   1.784  19.126  0.00  0.00    +0.000 HD
ENDBRANCH  19  20
ENDBRANCH  18  19
ENDBRANCH  17  18
ENDBRANCH  16  17
ENDBRANCH   5  16
ENDBRANCH   1   5
BRANCH   2  23
ATOM     23  CA  UNL     1       4.833   5.342  17.047  0.00  0.00    +0.000 C 
BRANCH  23  24
ATOM     24  N   UNL     1       5.908   5.624  18.009  0.00  0.00    +0.000 N 
ATOM     25  C   UNL     1       7.181   5.156  17.770  0.00  0.00    +0.000 C 
ATOM     26  O   UNL     1       7.478   4.490  16.790  0.00  0.00    +0.000 OA
ATOM     27  H   UNL     1       5.668   6.106  18.864  0.00  0.00    +0.000 HD
BRANCH  25  28
ATOM     28  C   UNL     1       8.187   5.471  18.853  0.00  0.00    +0.000 C 
BRANCH  28  29
ATOM     29  C   UNL     1       8.382   6.978  18.963  0.00  0.00    +0.000 C 
BRANCH  29  30
ATOM     30  C   UNL     1       7.649   7.719  17.849  0.00  0.00    +0.000 C 
BRANCH  30  31
ATOM     31  C   UNL     1       8.194   9.138  17.700  0.00  0.00    +0.000 C 
BRANCH  31  32
ATOM     32  C   UNL     1       8.991   9.555  18.931  0.00  0.00    +0.000 C 
BRANCH  32  33
ATOM     33  C   UNL     1       9.594  10.944  18.739  0.00  0.00    +0.000 C 
BRANCH  33  34
ATOM     34  C   UNL     1      10.127  11.485  20.060  0.00  0.00    +0.000 C 
BRANCH  34  35
ATOM     35  C   UNL     1      11.400  12.294  19.839  0.00  0.00    +0.000 C 
BRANCH  35  36
ATOM     36  C   UNL     1      12.009  11.972  18.480  0.00  0.00    +0.000 C 
BRANCH  36  37
ATOM     37  C   UNL     1      12.249  13.247  17.686  0.00  0.00    +0.000 C 
BRANCH  37  38
ATOM     38  N   UNL     1      12.333  12.920  16.271  0.00  0.00    +0.000 NA
ATOM     39  H   UNL     1      13.040  12.193  16.134  0.00  0.00    +0.000 HD
ATOM     40  H   UNL     1      12.613  13.759  15.762  0.00  0.00    +0.000 HD
ENDBRANCH  37  38
ENDBRANCH  36  37
ENDBRANCH  35  36
ENDBRANCH  34  35
ENDBRANCH  33  34
ENDBRANCH  32  33
ENDBRANCH  31  32
ENDBRANCH  30  31
ENDBRANCH  29  30
ENDBRANCH  28  29
ENDBRANCH  25  28
ENDBRANCH  23  24
BRANCH  23  41
ATOM     41  C   UNL     1       5.033   4.023  16.275  0.00  0.00    +0.000 C 
BRANCH  41  42
ATOM     42  O   UNL     1       5.357   4.213  14.894  0.00  0.00    +0.000 OA
ATOM     43  H   UNL     1       6.020   3.532  14.660  0.00  0.00    +0.000 HD
ENDBRANCH  41  42
ENDBRANCH  23  41
ENDBRANCH   2  23
TORSDOF 25
ENDMDL
MODEL 8
REMARK VINA RESULT:      -5.5      5.399     11.380
REMARK  Name = 
REMARK  28 active torsions:
REMARK  status: ('A' for Active; 'I' for Inactive)
REMARK    1  A    between atoms: C_1  and  C_2
REMARK    2  A    between atoms: C_2  and  C_3
REMARK    3  A    between atoms: C_2  and  C_4
REMARK    4  A    between atoms: C_2  and  C_5
REMARK    5  A    between atoms: C_5  and  C_6
REMARK    6  A    between atoms: C_6  and  N_7
REMARK    7  A    between atoms: C_8  and  C_10
REMARK    8  A    between atoms: C_10  and  C_11
REMARK    9  A    between atoms: C_10  and  N_16
REMARK   10  A    between atoms: C_11  and  C_12
REMARK   11  A    between atoms: C_12  and  C_13
REMARK   12  A    between atoms: C_13  and  C_14
REMARK   13  A    between atoms: C_14  and  N_15
REMARK   14  A    between atoms: C_17  and  CA_19
REMARK   15  A    between atoms: CA_19  and  C_20
REMARK   16  A    between atoms: CA_19  and  N_22
REMARK   17  A    between atoms: C_20  and  O_21
REMARK   18  A    between atoms: C_23  and  C_25
REMARK   19  A    between atoms: C_25  and  C_26
REMARK   20  A    between atoms: C_26  and  C_27
REMARK   21  A    between atoms: C_27  and  C_28
REMARK   22  A    between atoms: C_28  and  C_29
REMARK   23  A    between atoms: C_29  and  C_30
REMARK   24  A    between atoms: C_30  and  C_31
REMARK   25  A    between atoms: C_31  and  C_32
REMARK   26  A    between atoms: C_32  and  C_33
REMARK   27  A    between atoms: C_33  and  C_34
REMARK   28  A    between atoms: C_34  and  N_35
REMARK                            x       y       z     vdW  Elec       q    Type
REMARK                         _______ _______ _______ _____ _____    ______ ____
ROOT
ATOM      1  N   UNL     1       0.612  10.670  19.038  0.00  0.00    +0.000 N 
ATOM      2  C   UNL     1       0.734  12.008  19.375  0.00  0.00    +0.000 C 
ATOM      3  O   UNL     1       1.423  12.392  20.323  0.00  0.00    +0.000 OA
ATOM      4  H   UNL     1       0.264  10.467  18.100  0.00  0.00    +0.000 HD
ENDROOT
BRANCH   1   5
ATOM      5  C   UNL     1       1.452   9.670  19.675  0.00  0.00    +0.000 C 
BRANCH   5   7
ATOM      6  N   UNL     1       2.282   7.434  19.117  0.00  0.00    +0.000 N 
ATOM      7  C   UNL     1       1.939   8.675  18.613  0.00  0.00    +0.000 C 
ATOM      8  O   UNL     1       1.950   8.937  17.413  0.00  0.00    +0.000 OA
ATOM      9  H   UNL     1       2.358   7.291  20.117  0.00  0.00    +0.000 HD
BRANCH   6  10
ATOM     10  C   UNL     1       2.613   6.346  18.232  0.00  0.00    +0.000 C 
BRANCH  10  11
ATOM     11  C   UNL     1       3.848   5.571  18.700  0.00  0.00    +0.000 C 
BRANCH  11  13
ATOM     12  C   UNL     1       4.828   4.120  16.870  0.00  0.00    +0.000 C 
ATOM     13  C   UNL     1       4.960   5.447  17.634  0.00  0.00    +0.000 C 
ATOM     14  C   UNL     1       6.346   5.523  18.290  0.00  0.00    +0.000 C 
ATOM     15  C   UNL     1       4.818   6.603  16.624  0.00  0.00    +0.000 C 
ENDBRANCH  11  13
ENDBRANCH  10  11
ENDBRANCH   6  10
ENDBRANCH   5   7
BRANCH   5  16
ATOM     16  C   UNL     1       0.684   8.902  20.758  0.00  0.00    +0.000 C 
BRANCH  16  17
ATOM     17  C   UNL     1       1.178   9.259  22.154  0.00  0.00    +0.000 C 
BRANCH  17  18
ATOM     18  C   UNL     1       0.022   9.444  23.131  0.00  0.00    +0.000 C 
BRANCH  18  19
ATOM     19  C   UNL     1      -0.923  10.519  22.604  0.00  0.00    +0.000 C 
BRANCH  19  20
ATOM     20  N   UNL     1      -0.340  11.839  22.794  0.00  0.00    +0.000 NA
ATOM     21  H   UNL     1       0.658  11.814  22.592  0.00  0.00    +0.000 HD
ATOM     22  H   UNL     1      -0.420  12.103  23.775  0.00  0.00    +0.000 HD
ENDBRANCH  19  20
ENDBRANCH  18  19
ENDBRANCH  17  18
ENDBRANCH  16  17
ENDBRANCH   5  16
ENDBRANCH   1   5
BRANCH   2  23
ATOM     23  CA  UNL     1      -0.232  12.959  18.648  0.00  0.00    +0.000 C 
BRANCH  23  24
ATOM     24  N   UNL     1      -1.639  12.759  19.023  0.00  0.00    +0.000 N 
ATOM     25  C   UNL     1      -2.427  11.898  18.291  0.00  0.00    +0.000 C 
ATOM     26  O   UNL     1      -2.025  11.287  17.314  0.00  0.00    +0.000 OA
ATOM     27  H   UNL     1      -2.013  13.314  19.779  0.00  0.00    +0.000 HD
BRANCH  25  28
ATOM     28  C   UNL     1      -3.866  11.814  18.747  0.00  0.00    +0.000 C 
BRANCH  28  29
ATOM     29  C   UNL     1      -4.733  11.241  17.633  0.00  0.00    +0.000 C 
BRANCH  29  30
ATOM     30  C   UNL     1      -6.114  10.847  18.147  0.00  0.00    +0.000 C 
BRANCH  30  31
ATOM     31  C   UNL     1      -6.990  12.084  18.335  0.00  0.00    +0.000 C 
BRANCH  31  32
ATOM     32  C   UNL     1      -7.634  12.100  19.717  0.00  0.00    +0.000 C 
BRANCH  32  33
ATOM     33  C   UNL     1      -7.040  13.213  20.577  0.00  0.00    +0.000 C 
BRANCH  33  34
ATOM     34  C   UNL     1      -6.188  12.630  21.697  0.00  0.00    +0.000 C 
BRANCH  34  35
ATOM     35  C   UNL     1      -4.972  13.509  21.964  0.00  0.00    +0.000 C 
BRANCH  35  36
ATOM     36  C   UNL     1      -3.909  12.734  22.732  0.00  0.00    +0.000 C 
BRANCH  36  37
ATOM     37  C   UNL     1      -3.410  13.543  23.919  0.00  0.00    +0.000 C 
BRANCH  37  38
ATOM     38  N   UNL     1      -4.488  14.389  24.409  0.00  0.00    +0.000 NA
ATOM     39  H   UNL     1      -4.115  15.042  25.104  0.00  0.00    +0.000 HD
ATOM     40  H   UNL     1      -5.189  13.794  24.852  0.00  0.00    +0.000 HD
ENDBRANCH  37  38
ENDBRANCH  36  37
ENDBRANCH  35  36
ENDBRANCH  34  35
ENDBRANCH  33  34
ENDBRANCH  32  33
ENDBRANCH  31  32
ENDBRANCH  30  31
ENDBRANCH  29  30
ENDBRANCH  28  29
ENDBRANCH  25  28
ENDBRANCH  23  24
BRANCH  23  41
ATOM     41  C   UNL     1       0.256  14.407  18.848  0.00  0.00    +0.000 C 
BRANCH  41  42
ATOM     42  O   UNL     1      -0.743  15.391  18.563  0.00  0.00    +0.000 OA
ATOM     43  H   UNL     1      -1.590  15.049  18.916  0.00  0.00    +0.000 HD
ENDBRANCH  41  42
ENDBRANCH  23  41
ENDBRANCH   2  23
TORSDOF 25
ENDMDL
MODEL 9
REMARK VINA RESULT:      -5.5      2.853      6.958
REMARK  Name = 
REMARK  28 active torsions:
REMARK  status: ('A' for Active; 'I' for Inactive)
REMARK    1  A    between atoms: C_1  and  C_2
REMARK    2  A    between atoms: C_2  and  C_3
REMARK    3  A    between atoms: C_2  and  C_4
REMARK    4  A    between atoms: C_2  and  C_5
REMARK    5  A    between atoms: C_5  and  C_6
REMARK    6  A    between atoms: C_6  and  N_7
REMARK    7  A    between atoms: C_8  and  C_10
REMARK    8  A    between atoms: C_10  and  C_11
REMARK    9  A    between atoms: C_10  and  N_16
REMARK   10  A    between atoms: C_11  and  C_12
REMARK   11  A    between atoms: C_12  and  C_13
REMARK   12  A    between atoms: C_13  and  C_14
REMARK   13  A    between atoms: C_14  and  N_15
REMARK   14  A    between atoms: C_17  and  CA_19
REMARK   15  A    between atoms: CA_19  and  C_20
REMARK   16  A    between atoms: CA_19  and  N_22
REMARK   17  A    between atoms: C_20  and  O_21
REMARK   18  A    between atoms: C_23  and  C_25
REMARK   19  A    between atoms: C_25  and  C_26
REMARK   20  A    between atoms: C_26  and  C_27
REMARK   21  A    between atoms: C_27  and  C_28
REMARK   22  A    between atoms: C_28  and  C_29
REMARK   23  A    between atoms: C_29  and  C_30
REMARK   24  A    between atoms: C_30  and  C_31
REMARK   25  A    between atoms: C_31  and  C_32
REMARK   26  A    between atoms: C_32  and  C_33
REMARK   27  A    between atoms: C_33  and  C_34
REMARK   28  A    between atoms: C_34  and  N_35
REMARK                            x       y       z     vdW  Elec       q    Type
REMARK                         _______ _______ _______ _____ _____    ______ ____
ROOT
ATOM      1  N   UNL     1       2.173   7.325  19.186  0.00  0.00    +0.000 N 
ATOM      2  C   UNL     1       1.557   8.224  20.040  0.00  0.00    +0.000 C 
ATOM      3  O   UNL     1       1.404   7.999  21.242  0.00  0.00    +0.000 OA
ATOM      4  H   UNL     1       2.503   7.697  18.294  0.00  0.00    +0.000 HD
ENDROOT
BRANCH   1   5
ATOM      5  C   UNL     1       2.843   6.148  19.714  0.00  0.00    +0.000 C 
BRANCH   5   7
ATOM      6  N   UNL     1       4.272   6.719  17.808  0.00  0.00    +0.000 N 
ATOM      7  C   UNL     1       4.136   5.911  18.922  0.00  0.00    +0.000 C 
ATOM      8  O   UNL     1       5.006   5.127  19.291  0.00  0.00    +0.000 OA
ATOM      9  H   UNL     1       3.492   7.276  17.482  0.00  0.00    +0.000 HD
BRANCH   6  10
ATOM     10  C   UNL     1       5.497   6.725  17.048  0.00  0.00    +0.000 C 
BRANCH  10  11
ATOM     11  C   UNL     1       5.351   6.001  15.707  0.00  0.00    +0.000 C 
BRANCH  11  13
ATOM     12  C   UNL     1       6.863   4.639  14.197  0.00  0.00    +0.000 C 
ATOM     13  C   UNL     1       6.204   4.717  15.584  0.00  0.00    +0.000 C 
ATOM     14  C   UNL     1       5.336   3.471  15.808  0.00  0.00    +0.000 C 
ATOM     15  C   UNL     1       7.318   4.751  16.648  0.00  0.00    +0.000 C 
ENDBRANCH  11  13
ENDBRANCH  10  11
ENDBRANCH   6  10
ENDBRANCH   5   7
BRANCH   5  16
ATOM     16  C   UNL     1       1.957   4.901  19.598  0.00  0.00    +0.000 C 
BRANCH  16  17
ATOM     17  C   UNL     1       2.007   4.060  20.868  0.00  0.00    +0.000 C 
BRANCH  17  18
ATOM     18  C   UNL     1       2.152   2.575  20.553  0.00  0.00    +0.000 C 
BRANCH  18  19
ATOM     19  C   UNL     1       2.809   2.404  19.188  0.00  0.00    +0.000 C 
BRANCH  19  20
ATOM     20  N   UNL     1       4.235   2.158  19.342  0.00  0.00    +0.000 NA
ATOM     21  H   UNL     1       4.692   2.157  18.431  0.00  0.00    +0.000 HD
ATOM     22  H   UNL     1       4.374   1.223  19.725  0.00  0.00    +0.000 HD
ENDBRANCH  19  20
ENDBRANCH  18  19
ENDBRANCH  17  18
ENDBRANCH  16  17
ENDBRANCH   5  16
ENDBRANCH   1   5
BRANCH   2  23
ATOM     23  CA  UNL     1       0.863   9.412  19.352  0.00  0.00    +0.000 C 
BRANCH  23  24
ATOM     24  N   UNL     1       1.095  10.695  20.031  0.00  0.00    +0.000 N 
ATOM     25  C   UNL     1       0.025  11.490  20.377  0.00  0.00    +0.000 C 
ATOM     26  O   UNL     1      -1.135  11.197  20.134  0.00  0.00    +0.000 OA
ATOM     27  H   UNL     1       2.049  10.994  20.171  0.00  0.00    +0.000 HD
BRANCH  25  28
ATOM     28  C   UNL     1       0.394  12.804  21.027  0.00  0.00    +0.000 C 
BRANCH  28  29
ATOM     29  C   UNL     1      -0.085  13.966  20.166  0.00  0.00    +0.000 C 
BRANCH  29  30
ATOM     30  C   UNL     1       0.610  13.981  18.809  0.00  0.00    +0.000 C 
BRANCH  30  31
ATOM     31  C   UNL     1       1.734  15.015  18.794  0.00  0.00    +0.000 C 
BRANCH  31  32
ATOM     32  C   UNL     1       2.953  14.495  18.038  0.00  0.00    +0.000 C 
BRANCH  32  33
ATOM     33  C   UNL     1       4.242  14.905  18.743  0.00  0.00    +0.000 C 
BRANCH  33  34
ATOM     34  C   UNL     1       5.449  14.651  17.848  0.00  0.00    +0.000 C 
BRANCH  34  35
ATOM     35  C   UNL     1       6.650  15.462  18.319  0.00  0.00    +0.000 C 
BRANCH  35  36
ATOM     36  C   UNL     1       7.544  14.620  19.221  0.00  0.00    +0.000 C 
BRANCH  36  37
ATOM     37  C   UNL     1       8.471  13.746  18.391  0.00  0.00    +0.000 C 
BRANCH  37  38
ATOM     38  N   UNL     1       9.281  14.593  17.528  0.00  0.00    +0.000 NA
ATOM     39  H   UNL     1      10.162  14.812  18.001  0.00  0.00    +0.000 HD
ATOM     40  H   UNL     1       8.770  15.459  17.355  0.00  0.00    +0.000 HD
ENDBRANCH  37  38
ENDBRANCH  36  37
ENDBRANCH  35  36
ENDBRANCH  34  35
ENDBRANCH  33  34
ENDBRANCH  32  33
ENDBRANCH  31  32
ENDBRANCH  30  31
ENDBRANCH  29  30
ENDBRANCH  28  29
ENDBRANCH  25  28
ENDBRANCH  23  24
BRANCH  23  41
ATOM     41  C   UNL     1       1.264   9.426  17.864  0.00  0.00    +0.000 C 
BRANCH  41  42
ATOM     42  O   UNL     1       1.959  10.613  17.470  0.00  0.00    +0.000 OA
ATOM     43  H   UNL     1       1.318  11.170  16.981  0.00  0.00    +0.000 HD
ENDBRANCH  41  42
ENDBRANCH  23  41
ENDBRANCH   2  23
TORSDOF 25
ENDMDL
