MODEL 1
REMARK VINA RESULT:      -8.7      0.000      0.000
REMARK  Name = 
REMARK  6 active torsions:
REMARK  status: ('A' for Active; 'I' for Inactive)
REMARK    1  A    between atoms: C_1  and  C_2
REMARK    2  A    between atoms: C_4  and  C_5
REMARK    3  A    between atoms: C_5  and  C_6
REMARK    4  A    between atoms: C_9  and  C_10
REMARK    5  A    between atoms: C_14  and  O_15
REMARK    6  A    between atoms: N_19  and  O_20
REMARK                            x       y       z     vdW  Elec       q    Type
REMARK                         _______ _______ _______ _____ _____    ______ ____
ROOT
ATOM      1  C   UNL     1       2.892   5.192  18.754  0.00  0.00    +0.000 A 
ATOM      2  C   UNL     1       2.991   6.440  18.125  0.00  0.00    +0.000 A 
ATOM      3  C   UNL     1       2.425   7.571  18.716  0.00  0.00    +0.000 A 
ATOM      4  C   UNL     1       1.727   7.493  19.927  0.00  0.00    +0.000 A 
ATOM      5  C   UNL     1       1.669   6.245  20.565  0.00  0.00    +0.000 A 
ATOM      6  C   UNL     1       2.253   5.111  19.993  0.00  0.00    +0.000 A 
ENDROOT
BRANCH   4   7
ATOM      7  C   UNL     1       1.094   8.701  20.526  0.00  0.00    +0.000 A 
ATOM      8  C   UNL     1       0.744   9.812  19.720  0.00  0.00    +0.000 A 
ATOM      9  C   UNL     1       0.189  10.966  20.289  0.00  0.00    +0.000 A 
ATOM     10  C   UNL     1      -0.057  11.032  21.653  0.00  0.00    +0.000 A 
ATOM     11  C   UNL     1       0.269   9.944  22.444  0.00  0.00    +0.000 A 
ATOM     12  C   UNL     1       0.827   8.796  21.902  0.00  0.00    +0.000 A 
BRANCH  11  13
ATOM     13  O   UNL     1       0.047   9.959  23.787  0.00  0.00    +0.000 OA
ATOM     14  H   UNL     1      -0.248  10.845  24.049  0.00  0.00    +0.000 HD
ENDBRANCH  11  13
ENDBRANCH   4   7
BRANCH   1  15
ATOM     15  C   UNL     1       3.478   3.958  18.113  0.00  0.00    +0.000 C 
BRANCH  15  19
ATOM     16  C   UNL     1       6.061   4.071  13.780  0.00  0.00    +0.000 C 
ATOM     17  C   UNL     1       6.084   4.188  15.275  0.00  0.00    +0.000 A 
ATOM     18  C   UNL     1       4.824   4.103  15.985  0.00  0.00    +0.000 A 
ATOM     19  C   UNL     1       4.766   4.126  17.332  0.00  0.00    +0.000 A 
ATOM     20  N   UNL     1       5.960   4.293  18.024  0.00  0.00    +0.000 N 
ATOM     21  C   UNL     1       7.218   4.409  17.445  0.00  0.00    +0.000 A 
ATOM     22  O   UNL     1       8.281   4.570  18.039  0.00  0.00    +0.000 OA
ATOM     23  C   UNL     1       7.229   4.326  15.959  0.00  0.00    +0.000 A 
BRANCH  20  24
ATOM     24  O   UNL     1       5.944   4.474  19.426  0.00  0.00    +0.000 OA
ATOM     25  H   UNL     1       5.938   3.588  19.813  0.00  0.00    +0.000 HD
ENDBRANCH  20  24
ENDBRANCH  15  19
ENDBRANCH   1  15
TORSDOF 5
ENDMDL
MODEL 2
REMARK VINA RESULT:      -8.6      2.246      3.439
REMARK  Name = 
REMARK  6 active torsions:
REMARK  status: ('A' for Active; 'I' for Inactive)
REMARK    1  A    between atoms: C_1  and  C_2
REMARK    2  A    between atoms: C_4  and  C_5
REMARK    3  A    between atoms: C_5  and  C_6
REMARK    4  A    between atoms: C_9  and  C_10
REMARK    5  A    between atoms: C_14  and  O_15
REMARK    6  A    between atoms: N_19  and  O_20
REMARK                            x       y       z     vdW  Elec       q    Type
REMARK                         _______ _______ _______ _____ _____    ______ ____
ROOT
ATOM      1  C   UNL     1       4.779   4.938  16.990  0.00  0.00    +0.000 A 
ATOM      2  C   UNL     1       3.792   4.558  17.908  0.00  0.00    +0.000 A 
ATOM      3  C   UNL     1       2.945   5.518  18.467  0.00  0.00    +0.000 A 
ATOM      4  C   UNL     1       3.070   6.877  18.153  0.00  0.00    +0.000 A 
ATOM      5  C   UNL     1       4.038   7.239  17.203  0.00  0.00    +0.000 A 
ATOM      6  C   UNL     1       4.874   6.282  16.620  0.00  0.00    +0.000 A 
ENDROOT
BRANCH   4   7
ATOM      7  C   UNL     1       2.186   7.894  18.787  0.00  0.00    +0.000 A 
ATOM      8  C   UNL     1       1.826   7.792  20.153  0.00  0.00    +0.000 A 
ATOM      9  C   UNL     1       0.960   8.724  20.738  0.00  0.00    +0.000 A 
ATOM     10  C   UNL     1       0.460   9.786  19.998  0.00  0.00    +0.000 A 
ATOM     11  C   UNL     1       0.819   9.900  18.667  0.00  0.00    +0.000 A 
ATOM     12  C   UNL     1       1.669   8.983  18.066  0.00  0.00    +0.000 A 
BRANCH  11  13
ATOM     13  O   UNL     1       0.356  10.923  17.897  0.00  0.00    +0.000 OA
ATOM     14  H   UNL     1       1.108  11.445  17.579  0.00  0.00    +0.000 HD
ENDBRANCH  11  13
ENDBRANCH   4   7
BRANCH   1  15
ATOM     15  C   UNL     1       5.716   3.914  16.398  0.00  0.00    +0.000 C 
BRANCH  15  19
ATOM     16  C   UNL     1       5.194   2.759  11.515  0.00  0.00    +0.000 C 
ATOM     17  C   UNL     1       5.905   3.567  12.559  0.00  0.00    +0.000 A 
ATOM     18  C   UNL     1       5.463   3.445  13.933  0.00  0.00    +0.000 A 
ATOM     19  C   UNL     1       6.096   4.080  14.941  0.00  0.00    +0.000 A 
ATOM     20  N   UNL     1       7.159   4.911  14.609  0.00  0.00    +0.000 N 
ATOM     21  C   UNL     1       7.650   5.120  13.326  0.00  0.00    +0.000 A 
ATOM     22  O   UNL     1       8.579   5.859  13.013  0.00  0.00    +0.000 OA
ATOM     23  C   UNL     1       6.948   4.355  12.259  0.00  0.00    +0.000 A 
BRANCH  20  24
ATOM     24  O   UNL     1       7.762   5.715  15.603  0.00  0.00    +0.000 OA
ATOM     25  H   UNL     1       8.561   6.087  15.203  0.00  0.00    +0.000 HD
ENDBRANCH  20  24
ENDBRANCH  15  19
ENDBRANCH   1  15
TORSDOF 5
ENDMDL
MODEL 3
REMARK VINA RESULT:      -8.6      0.175      1.017
REMARK  Name = 
REMARK  6 active torsions:
REMARK  status: ('A' for Active; 'I' for Inactive)
REMARK    1  A    between atoms: C_1  and  C_2
REMARK    2  A    between atoms: C_4  and  C_5
REMARK    3  A    between atoms: C_5  and  C_6
REMARK    4  A    between atoms: C_9  and  C_10
REMARK    5  A    between atoms: C_14  and  O_15
REMARK    6  A    between atoms: N_19  and  O_20
REMARK                            x       y       z     vdW  Elec       q    Type
REMARK                         _______ _______ _______ _____ _____    ______ ____
ROOT
ATOM      1  C   UNL     1       2.848   5.123  18.870  0.00  0.00    +0.000 A 
ATOM      2  C   UNL     1       2.198   5.057  20.108  0.00  0.00    +0.000 A 
ATOM      3  C   UNL     1       1.615   6.200  20.658  0.00  0.00    +0.000 A 
ATOM      4  C   UNL     1       1.682   7.440  20.011  0.00  0.00    +0.000 A 
ATOM      5  C   UNL     1       2.302   7.484  18.752  0.00  0.00    +0.000 A 
ATOM      6  C   UNL     1       2.868   6.339  18.183  0.00  0.00    +0.000 A 
ENDROOT
BRANCH   4   7
ATOM      7  C   UNL     1       1.091   8.659  20.628  0.00  0.00    +0.000 A 
ATOM      8  C   UNL     1       0.952   9.856  19.882  0.00  0.00    +0.000 A 
ATOM      9  C   UNL     1       0.436  11.015  20.475  0.00  0.00    +0.000 A 
ATOM     10  C   UNL     1       0.020  11.006  21.799  0.00  0.00    +0.000 A 
ATOM     11  C   UNL     1       0.139   9.837  22.529  0.00  0.00    +0.000 A 
ATOM     12  C   UNL     1       0.656   8.680  21.963  0.00  0.00    +0.000 A 
BRANCH  11  13
ATOM     13  O   UNL     1      -0.254   9.777  23.831  0.00  0.00    +0.000 OA
ATOM     14  H   UNL     1      -1.134  10.176  23.915  0.00  0.00    +0.000 HD
ENDBRANCH  11  13
ENDBRANCH   4   7
BRANCH   1  15
ATOM     15  C   UNL     1       3.503   3.899  18.277  0.00  0.00    +0.000 C 
BRANCH  15  19
ATOM     16  C   UNL     1       5.984   4.123  13.890  0.00  0.00    +0.000 C 
ATOM     17  C   UNL     1       6.037   4.228  15.384  0.00  0.00    +0.000 A 
ATOM     18  C   UNL     1       4.796   4.101  16.121  0.00  0.00    +0.000 A 
ATOM     19  C   UNL     1       4.768   4.111  17.470  0.00  0.00    +0.000 A 
ATOM     20  N   UNL     1       5.971   4.307  18.136  0.00  0.00    +0.000 N 
ATOM     21  C   UNL     1       7.212   4.463  17.531  0.00  0.00    +0.000 A 
ATOM     22  O   UNL     1       8.283   4.650  18.103  0.00  0.00    +0.000 OA
ATOM     23  C   UNL     1       7.193   4.394  16.045  0.00  0.00    +0.000 A 
BRANCH  20  24
ATOM     24  O   UNL     1       5.981   4.475  19.540  0.00  0.00    +0.000 OA
ATOM     25  H   UNL     1       6.467   5.293  19.712  0.00  0.00    +0.000 HD
ENDBRANCH  20  24
ENDBRANCH  15  19
ENDBRANCH   1  15
TORSDOF 5
ENDMDL
MODEL 4
REMARK VINA RESULT:      -8.6      1.903      3.007
REMARK  Name = 
REMARK  6 active torsions:
REMARK  status: ('A' for Active; 'I' for Inactive)
REMARK    1  A    between atoms: C_1  and  C_2
REMARK    2  A    between atoms: C_4  and  C_5
REMARK    3  A    between atoms: C_5  and  C_6
REMARK    4  A    between atoms: C_9  and  C_10
REMARK    5  A    between atoms: C_14  and  O_15
REMARK    6  A    between atoms: N_19  and  O_20
REMARK                            x       y       z     vdW  Elec       q    Type
REMARK                         _______ _______ _______ _____ _____    ______ ____
ROOT
ATOM      1  C   UNL     1       4.672   4.993  17.023  0.00  0.00    +0.000 A 
ATOM      2  C   UNL     1       3.626   4.625  17.878  0.00  0.00    +0.000 A 
ATOM      3  C   UNL     1       2.782   5.600  18.416  0.00  0.00    +0.000 A 
ATOM      4  C   UNL     1       2.968   6.960  18.143  0.00  0.00    +0.000 A 
ATOM      5  C   UNL     1       3.996   7.311  17.254  0.00  0.00    +0.000 A 
ATOM      6  C   UNL     1       4.830   6.340  16.692  0.00  0.00    +0.000 A 
ENDROOT
BRANCH   4   7
ATOM      7  C   UNL     1       2.085   7.991  18.755  0.00  0.00    +0.000 A 
ATOM      8  C   UNL     1       1.544   9.041  17.972  0.00  0.00    +0.000 A 
ATOM      9  C   UNL     1       0.749  10.035  18.556  0.00  0.00    +0.000 A 
ATOM     10  C   UNL     1       0.450   9.996  19.910  0.00  0.00    +0.000 A 
ATOM     11  C   UNL     1       0.963   8.966  20.678  0.00  0.00    +0.000 A 
ATOM     12  C   UNL     1       1.759   7.975  20.121  0.00  0.00    +0.000 A 
BRANCH  11  13
ATOM     13  O   UNL     1       0.699   8.882  22.011  0.00  0.00    +0.000 OA
ATOM     14  H   UNL     1      -0.246   9.040  22.157  0.00  0.00    +0.000 HD
ENDBRANCH  11  13
ENDBRANCH   4   7
BRANCH   1  15
ATOM     15  C   UNL     1       5.606   3.951  16.456  0.00  0.00    +0.000 C 
BRANCH  15  19
ATOM     16  C   UNL     1       5.170   2.784  11.567  0.00  0.00    +0.000 C 
ATOM     17  C   UNL     1       5.872   3.585  12.623  0.00  0.00    +0.000 A 
ATOM     18  C   UNL     1       5.398   3.476  13.988  0.00  0.00    +0.000 A 
ATOM     19  C   UNL     1       6.019   4.105  15.006  0.00  0.00    +0.000 A 
ATOM     20  N   UNL     1       7.103   4.917  14.694  0.00  0.00    +0.000 N 
ATOM     21  C   UNL     1       7.625   5.113  13.422  0.00  0.00    +0.000 A 
ATOM     22  O   UNL     1       8.573   5.835  13.126  0.00  0.00    +0.000 OA
ATOM     23  C   UNL     1       6.934   4.355  12.343  0.00  0.00    +0.000 A 
BRANCH  20  24
ATOM     24  O   UNL     1       7.698   5.716  15.698  0.00  0.00    +0.000 OA
ATOM     25  H   UNL     1       6.972   6.066  16.232  0.00  0.00    +0.000 HD
ENDBRANCH  20  24
ENDBRANCH  15  19
ENDBRANCH   1  15
TORSDOF 5
ENDMDL
MODEL 5
REMARK VINA RESULT:      -8.5      2.243      3.312
REMARK  Name = 
REMARK  6 active torsions:
REMARK  status: ('A' for Active; 'I' for Inactive)
REMARK    1  A    between atoms: C_1  and  C_2
REMARK    2  A    between atoms: C_4  and  C_5
REMARK    3  A    between atoms: C_5  and  C_6
REMARK    4  A    between atoms: C_9  and  C_10
REMARK    5  A    between atoms: C_14  and  O_15
REMARK    6  A    between atoms: N_19  and  O_20
REMARK                            x       y       z     vdW  Elec       q    Type
REMARK                         _______ _______ _______ _____ _____    ______ ____
ROOT
ATOM      1  C   UNL     1       4.859   4.898  17.038  0.00  0.00    +0.000 A 
ATOM      2  C   UNL     1       4.849   6.220  16.578  0.00  0.00    +0.000 A 
ATOM      3  C   UNL     1       4.014   7.166  17.176  0.00  0.00    +0.000 A 
ATOM      4  C   UNL     1       3.151   6.823  18.224  0.00  0.00    +0.000 A 
ATOM      5  C   UNL     1       3.199   5.503  18.701  0.00  0.00    +0.000 A 
ATOM      6  C   UNL     1       4.049   4.556  18.124  0.00  0.00    +0.000 A 
ENDROOT
BRANCH   4   7
ATOM      7  C   UNL     1       2.237   7.833  18.826  0.00  0.00    +0.000 A 
ATOM      8  C   UNL     1       1.861   7.751  20.189  0.00  0.00    +0.000 A 
ATOM      9  C   UNL     1       0.967   8.676  20.744  0.00  0.00    +0.000 A 
ATOM     10  C   UNL     1       0.455   9.711  19.976  0.00  0.00    +0.000 A 
ATOM     11  C   UNL     1       0.829   9.806  18.647  0.00  0.00    +0.000 A 
ATOM     12  C   UNL     1       1.706   8.895  18.076  0.00  0.00    +0.000 A 
BRANCH  11  13
ATOM     13  O   UNL     1       0.354  10.803  17.851  0.00  0.00    +0.000 OA
ATOM     14  H   UNL     1       1.101  11.249  17.423  0.00  0.00    +0.000 HD
ENDBRANCH  11  13
ENDBRANCH   4   7
BRANCH   1  15
ATOM     15  C   UNL     1       5.739   3.861  16.384  0.00  0.00    +0.000 C 
BRANCH  15  19
ATOM     16  C   UNL     1       5.094   2.892  11.475  0.00  0.00    +0.000 C 
ATOM     17  C   UNL     1       5.844   3.647  12.531  0.00  0.00    +0.000 A 
ATOM     18  C   UNL     1       5.427   3.485  13.910  0.00  0.00    +0.000 A 
ATOM     19  C   UNL     1       6.093   4.071  14.926  0.00  0.00    +0.000 A 
ATOM     20  N   UNL     1       7.168   4.890  14.601  0.00  0.00    +0.000 N 
ATOM     21  C   UNL     1       7.637   5.134  13.317  0.00  0.00    +0.000 A 
ATOM     22  O   UNL     1       8.577   5.864  13.010  0.00  0.00    +0.000 OA
ATOM     23  C   UNL     1       6.898   4.423  12.238  0.00  0.00    +0.000 A 
BRANCH  20  24
ATOM     24  O   UNL     1       7.808   5.645  15.610  0.00  0.00    +0.000 OA
ATOM     25  H   UNL     1       8.719   5.323  15.654  0.00  0.00    +0.000 HD
ENDBRANCH  20  24
ENDBRANCH  15  19
ENDBRANCH   1  15
TORSDOF 5
ENDMDL
MODEL 6
REMARK VINA RESULT:      -8.4      1.916      2.901
REMARK  Name = 
REMARK  6 active torsions:
REMARK  status: ('A' for Active; 'I' for Inactive)
REMARK    1  A    between atoms: C_1  and  C_2
REMARK    2  A    between atoms: C_4  and  C_5
REMARK    3  A    between atoms: C_5  and  C_6
REMARK    4  A    between atoms: C_9  and  C_10
REMARK    5  A    between atoms: C_14  and  O_15
REMARK    6  A    between atoms: N_19  and  O_20
REMARK                            x       y       z     vdW  Elec       q    Type
REMARK                         _______ _______ _______ _____ _____    ______ ____
ROOT
ATOM      1  C   UNL     1       4.811   4.958  17.059  0.00  0.00    +0.000 A 
ATOM      2  C   UNL     1       4.860   6.287  16.620  0.00  0.00    +0.000 A 
ATOM      3  C   UNL     1       4.015   7.245  17.185  0.00  0.00    +0.000 A 
ATOM      4  C   UNL     1       3.087   6.909  18.177  0.00  0.00    +0.000 A 
ATOM      5  C   UNL     1       3.076   5.582  18.635  0.00  0.00    +0.000 A 
ATOM      6  C   UNL     1       3.934   4.622  18.092  0.00  0.00    +0.000 A 
ENDROOT
BRANCH   4   7
ATOM      7  C   UNL     1       2.166   7.933  18.743  0.00  0.00    +0.000 A 
ATOM      8  C   UNL     1       1.630   8.958  17.925  0.00  0.00    +0.000 A 
ATOM      9  C   UNL     1       0.798   9.947  18.467  0.00  0.00    +0.000 A 
ATOM     10  C   UNL     1       0.458   9.925  19.811  0.00  0.00    +0.000 A 
ATOM     11  C   UNL     1       0.966   8.918  20.613  0.00  0.00    +0.000 A 
ATOM     12  C   UNL     1       1.798   7.934  20.099  0.00  0.00    +0.000 A 
BRANCH  11  13
ATOM     13  O   UNL     1       0.662   8.853  21.939  0.00  0.00    +0.000 OA
ATOM     14  H   UNL     1       1.162   8.127  22.342  0.00  0.00    +0.000 HD
ENDBRANCH  11  13
ENDBRANCH   4   7
BRANCH   1  15
ATOM     15  C   UNL     1       5.701   3.909  16.438  0.00  0.00    +0.000 C 
BRANCH  15  19
ATOM     16  C   UNL     1       5.135   2.841  11.540  0.00  0.00    +0.000 C 
ATOM     17  C   UNL     1       5.867   3.618  12.593  0.00  0.00    +0.000 A 
ATOM     18  C   UNL     1       5.428   3.483  13.967  0.00  0.00    +0.000 A 
ATOM     19  C   UNL     1       6.077   4.091  14.982  0.00  0.00    +0.000 A 
ATOM     20  N   UNL     1       7.155   4.906  14.658  0.00  0.00    +0.000 N 
ATOM     21  C   UNL     1       7.644   5.125  13.376  0.00  0.00    +0.000 A 
ATOM     22  O   UNL     1       8.587   5.851  13.070  0.00  0.00    +0.000 OA
ATOM     23  C   UNL     1       6.923   4.391  12.301  0.00  0.00    +0.000 A 
BRANCH  20  24
ATOM     24  O   UNL     1       7.778   5.683  15.661  0.00  0.00    +0.000 OA
ATOM     25  H   UNL     1       8.706   5.766  15.403  0.00  0.00    +0.000 HD
ENDBRANCH  20  24
ENDBRANCH  15  19
ENDBRANCH   1  15
TORSDOF 5
ENDMDL
MODEL 7
REMARK VINA RESULT:      -8.4      2.762      3.778
REMARK  Name = 
REMARK  6 active torsions:
REMARK  status: ('A' for Active; 'I' for Inactive)
REMARK    1  A    between atoms: C_1  and  C_2
REMARK    2  A    between atoms: C_4  and  C_5
REMARK    3  A    between atoms: C_5  and  C_6
REMARK    4  A    between atoms: C_9  and  C_10
REMARK    5  A    between atoms: C_14  and  O_15
REMARK    6  A    between atoms: N_19  and  O_20
REMARK                            x       y       z     vdW  Elec       q    Type
REMARK                         _______ _______ _______ _____ _____    ______ ____
ROOT
ATOM      1  C   UNL     1       2.884   7.315  18.542  0.00  0.00    +0.000 A 
ATOM      2  C   UNL     1       2.542   8.267  17.574  0.00  0.00    +0.000 A 
ATOM      3  C   UNL     1       1.596   9.253  17.862  0.00  0.00    +0.000 A 
ATOM      4  C   UNL     1       0.948   9.306  19.102  0.00  0.00    +0.000 A 
ATOM      5  C   UNL     1       1.328   8.369  20.075  0.00  0.00    +0.000 A 
ATOM      6  C   UNL     1       2.291   7.393  19.804  0.00  0.00    +0.000 A 
ENDROOT
BRANCH   4   7
ATOM      7  C   UNL     1      -0.088  10.339  19.381  0.00  0.00    +0.000 A 
ATOM      8  C   UNL     1      -0.219  10.905  20.673  0.00  0.00    +0.000 A 
ATOM      9  C   UNL     1      -1.220  11.844  20.947  0.00  0.00    +0.000 A 
ATOM     10  C   UNL     1      -2.088  12.263  19.949  0.00  0.00    +0.000 A 
ATOM     11  C   UNL     1      -1.957  11.726  18.681  0.00  0.00    +0.000 A 
ATOM     12  C   UNL     1      -0.977  10.788  18.390  0.00  0.00    +0.000 A 
BRANCH  11  13
ATOM     13  O   UNL     1      -2.783  12.104  17.667  0.00  0.00    +0.000 OA
ATOM     14  H   UNL     1      -3.596  12.475  18.043  0.00  0.00    +0.000 HD
ENDBRANCH  11  13
ENDBRANCH   4   7
BRANCH   1  15
ATOM     15  C   UNL     1       3.887   6.229  18.233  0.00  0.00    +0.000 C 
BRANCH  15  19
ATOM     16  C   UNL     1       0.576   2.459  18.764  0.00  0.00    +0.000 C 
ATOM     17  C   UNL     1       1.982   2.948  18.944  0.00  0.00    +0.000 A 
ATOM     18  C   UNL     1       2.310   4.274  18.462  0.00  0.00    +0.000 A 
ATOM     19  C   UNL     1       3.530   4.816  18.650  0.00  0.00    +0.000 A 
ATOM     20  N   UNL     1       4.492   4.032  19.275  0.00  0.00    +0.000 N 
ATOM     21  C   UNL     1       4.294   2.743  19.754  0.00  0.00    +0.000 A 
ATOM     22  O   UNL     1       5.135   2.031  20.298  0.00  0.00    +0.000 OA
ATOM     23  C   UNL     1       2.916   2.214  19.566  0.00  0.00    +0.000 A 
BRANCH  20  24
ATOM     24  O   UNL     1       5.826   4.490  19.365  0.00  0.00    +0.000 OA
ATOM     25  H   UNL     1       6.337   3.964  18.734  0.00  0.00    +0.000 HD
ENDBRANCH  20  24
ENDBRANCH  15  19
ENDBRANCH   1  15
TORSDOF 5
ENDMDL
MODEL 8
REMARK VINA RESULT:      -8.3      1.009      1.420
REMARK  Name = 
REMARK  6 active torsions:
REMARK  status: ('A' for Active; 'I' for Inactive)
REMARK    1  A    between atoms: C_1  and  C_2
REMARK    2  A    between atoms: C_4  and  C_5
REMARK    3  A    between atoms: C_5  and  C_6
REMARK    4  A    between atoms: C_9  and  C_10
REMARK    5  A    between atoms: C_14  and  O_15
REMARK    6  A    between atoms: N_19  and  O_20
REMARK                            x       y       z     vdW  Elec       q    Type
REMARK                         _______ _______ _______ _____ _____    ______ ____
ROOT
ATOM      1  C   UNL     1       2.777   5.304  19.038  0.00  0.00    +0.000 A 
ATOM      2  C   UNL     1       2.873   6.551  18.408  0.00  0.00    +0.000 A 
ATOM      3  C   UNL     1       2.301   7.681  18.995  0.00  0.00    +0.000 A 
ATOM      4  C   UNL     1       1.598   7.602  20.203  0.00  0.00    +0.000 A 
ATOM      5  C   UNL     1       1.542   6.354  20.843  0.00  0.00    +0.000 A 
ATOM      6  C   UNL     1       2.133   5.222  20.275  0.00  0.00    +0.000 A 
ENDROOT
BRANCH   4   7
ATOM      7  C   UNL     1       0.959   8.809  20.798  0.00  0.00    +0.000 A 
ATOM      8  C   UNL     1       0.706   8.885  22.190  0.00  0.00    +0.000 A 
ATOM      9  C   UNL     1       0.065  10.001  22.742  0.00  0.00    +0.000 A 
ATOM     10  C   UNL     1      -0.308  11.070  21.941  0.00  0.00    +0.000 A 
ATOM     11  C   UNL     1      -0.051  11.010  20.583  0.00  0.00    +0.000 A 
ATOM     12  C   UNL     1       0.575   9.910  20.014  0.00  0.00    +0.000 A 
BRANCH  11  13
ATOM     13  O   UNL     1      -0.397  12.032  19.754  0.00  0.00    +0.000 OA
ATOM     14  H   UNL     1       0.276  12.727  19.810  0.00  0.00    +0.000 HD
ENDBRANCH  11  13
ENDBRANCH   4   7
BRANCH   1  15
ATOM     15  C   UNL     1       3.370   4.071  18.401  0.00  0.00    +0.000 C 
BRANCH  15  19
ATOM     16  C   UNL     1       6.009   4.159  14.102  0.00  0.00    +0.000 C 
ATOM     17  C   UNL     1       6.012   4.291  15.596  0.00  0.00    +0.000 A 
ATOM     18  C   UNL     1       4.743   4.205  16.290  0.00  0.00    +0.000 A 
ATOM     19  C   UNL     1       4.667   4.241  17.636  0.00  0.00    +0.000 A 
ATOM     20  N   UNL     1       5.850   4.423  18.341  0.00  0.00    +0.000 N 
ATOM     21  C   UNL     1       7.115   4.542  17.779  0.00  0.00    +0.000 A 
ATOM     22  O   UNL     1       8.169   4.716  18.385  0.00  0.00    +0.000 OA
ATOM     23  C   UNL     1       7.147   4.444  16.294  0.00  0.00    +0.000 A 
BRANCH  20  24
ATOM     24  O   UNL     1       5.814   4.617  19.741  0.00  0.00    +0.000 OA
ATOM     25  H   UNL     1       5.492   3.789  20.122  0.00  0.00    +0.000 HD
ENDBRANCH  20  24
ENDBRANCH  15  19
ENDBRANCH   1  15
TORSDOF 5
ENDMDL
MODEL 9
REMARK VINA RESULT:      -8.3      1.022      1.738
REMARK  Name = 
REMARK  6 active torsions:
REMARK  status: ('A' for Active; 'I' for Inactive)
REMARK    1  A    between atoms: C_1  and  C_2
REMARK    2  A    between atoms: C_4  and  C_5
REMARK    3  A    between atoms: C_5  and  C_6
REMARK    4  A    between atoms: C_9  and  C_10
REMARK    5  A    between atoms: C_14  and  O_15
REMARK    6  A    between atoms: N_19  and  O_20
REMARK                            x       y       z     vdW  Elec       q    Type
REMARK                         _______ _______ _______ _____ _____    ______ ____
ROOT
ATOM      1  C   UNL     1       2.739   5.289  18.997  0.00  0.00    +0.000 A 
ATOM      2  C   UNL     1       2.098   5.242  20.241  0.00  0.00    +0.000 A 
ATOM      3  C   UNL     1       1.530   6.397  20.783  0.00  0.00    +0.000 A 
ATOM      4  C   UNL     1       1.603   7.629  20.121  0.00  0.00    +0.000 A 
ATOM      5  C   UNL     1       2.213   7.653  18.857  0.00  0.00    +0.000 A 
ATOM      6  C   UNL     1       2.764   6.497  18.297  0.00  0.00    +0.000 A 
ENDROOT
BRANCH   4   7
ATOM      7  C   UNL     1       1.027   8.860  20.729  0.00  0.00    +0.000 A 
ATOM      8  C   UNL     1       0.534   8.852  22.057  0.00  0.00    +0.000 A 
ATOM      9  C   UNL     1      -0.047   9.998  22.614  0.00  0.00    +0.000 A 
ATOM     10  C   UNL     1      -0.125  11.176  21.885  0.00  0.00    +0.000 A 
ATOM     11  C   UNL     1       0.368  11.196  20.592  0.00  0.00    +0.000 A 
ATOM     12  C   UNL     1       0.940  10.069  20.019  0.00  0.00    +0.000 A 
BRANCH  11  13
ATOM     13  O   UNL     1       0.316  12.326  19.836  0.00  0.00    +0.000 OA
ATOM     14  H   UNL     1       1.213  12.680  19.734  0.00  0.00    +0.000 HD
ENDBRANCH  11  13
ENDBRANCH   4   7
BRANCH   1  15
ATOM     15  C   UNL     1       3.378   4.053  18.412  0.00  0.00    +0.000 C 
BRANCH  15  19
ATOM     16  C   UNL     1       6.042   4.137  14.129  0.00  0.00    +0.000 C 
ATOM     17  C   UNL     1       6.034   4.286  15.621  0.00  0.00    +0.000 A 
ATOM     18  C   UNL     1       4.762   4.186  16.308  0.00  0.00    +0.000 A 
ATOM     19  C   UNL     1       4.677   4.236  17.653  0.00  0.00    +0.000 A 
ATOM     20  N   UNL     1       5.852   4.447  18.364  0.00  0.00    +0.000 N 
ATOM     21  C   UNL     1       7.118   4.581  17.807  0.00  0.00    +0.000 A 
ATOM     22  O   UNL     1       8.166   4.780  18.418  0.00  0.00    +0.000 OA
ATOM     23  C   UNL     1       7.161   4.467  16.324  0.00  0.00    +0.000 A 
BRANCH  20  24
ATOM     24  O   UNL     1       5.804   4.656  19.761  0.00  0.00    +0.000 OA
ATOM     25  H   UNL     1       5.181   4.005  20.111  0.00  0.00    +0.000 HD
ENDBRANCH  20  24
ENDBRANCH  15  19
ENDBRANCH   1  15
TORSDOF 5
ENDMDL
