MODEL 1
REMARK VINA RESULT:      -7.6      0.000      0.000
REMARK  Name = 
REMARK  6 active torsions:
REMARK  status: ('A' for Active; 'I' for Inactive)
REMARK    1  A    between atoms: C_1  and  O_2
REMARK    2  A    between atoms: O_2  and  C_3
REMARK    3  A    between atoms: C_8  and  C_9
REMARK    4  A    between atoms: C_13  and  C_14
REMARK    5  A    between atoms: C_24  and  N_25
REMARK    6  A    between atoms: C_28  and  N_29
REMARK                            x       y       z     vdW  Elec       q    Type
REMARK                         _______ _______ _______ _____ _____    ______ ____
ROOT
ATOM      1  C   UNL     1      -1.106  11.207  21.879  0.00  0.00    +0.000 A 
ATOM      2  C   UNL     1      -0.733  10.921  23.194  0.00  0.00    +0.000 A 
ATOM      3  N   UNL     1       0.192  10.020  23.592  0.00  0.00    +0.000 NA
ATOM      4  C   UNL     1       0.761   9.308  22.595  0.00  0.00    +0.000 A 
ATOM      5  C   UNL     1       0.522   9.450  21.217  0.00  0.00    +0.000 A 
ATOM      6  C   UNL     1      -0.442  10.474  20.811  0.00  0.00    +0.000 A 
ENDROOT
BRANCH   5   7
ATOM      7  C   UNL     1       1.289   8.486  20.362  0.00  0.00    +0.000 A 
ATOM      8  N   UNL     1       1.674   8.667  19.110  0.00  0.00    +0.000 NA
ATOM      9  C   UNL     1       2.496   7.648  18.760  0.00  0.00    +0.000 A 
ATOM     10  C   UNL     1       3.299   7.518  17.622  0.00  0.00    +0.000 A 
ATOM     11  C   UNL     1       4.091   6.385  17.529  0.00  0.00    +0.000 A 
ATOM     12  F   UNL     1       4.909   6.243  16.477  0.00  0.00    +0.000 F 
ATOM     13  C   UNL     1       4.069   5.395  18.515  0.00  0.00    +0.000 A 
ATOM     14  C   UNL     1       3.245   5.508  19.646  0.00  0.00    +0.000 A 
ATOM     15  C   UNL     1       2.481   6.671  19.743  0.00  0.00    +0.000 A 
ATOM     16  N   UNL     1       1.605   7.172  20.689  0.00  0.00    +0.000 N 
ATOM     17  H   UNL     1       1.290   6.669  21.506  0.00  0.00    +0.000 HD
ENDBRANCH   5   7
BRANCH   1  23
ATOM     18  C   UNL     1      -4.381  12.842  20.668  0.00  0.00    +0.000 A 
ATOM     19  C   UNL     1      -4.494  13.898  21.562  0.00  0.00    +0.000 A 
ATOM     20  C   UNL     1      -3.443  14.158  22.423  0.00  0.00    +0.000 A 
ATOM     21  F   UNL     1      -3.552  15.171  23.295  0.00  0.00    +0.000 F 
ATOM     22  C   UNL     1      -2.308  13.353  22.453  0.00  0.00    +0.000 A 
ATOM     23  C   UNL     1      -2.242  12.175  21.702  0.00  0.00    +0.000 A 
ATOM     24  C   UNL     1      -3.279  11.972  20.764  0.00  0.00    +0.000 A 
BRANCH  18  26
ATOM     25  C   UNL     1      -6.381  11.727  20.044  0.00  0.00    +0.000 C 
ATOM     26  O   UNL     1      -5.283  12.560  19.676  0.00  0.00    +0.000 OA
ENDBRANCH  18  26
ENDBRANCH   1  23
BRANCH   6  27
ATOM     27  N   UNL     1      -0.824  10.722  19.462  0.00  0.00    +0.000 N 
ATOM     28  C   UNL     1      -1.387   9.643  18.670  0.00  0.00    +0.000 C 
ATOM     29  C   UNL     1      -2.535  10.113  17.814  0.00  0.00    +0.000 C 
ATOM     30  C   UNL     1      -2.162  11.285  16.930  0.00  0.00    +0.000 C 
ATOM     31  C   UNL     1      -1.402  12.370  17.695  0.00  0.00    +0.000 C 
ATOM     32  C   UNL     1      -0.299  11.837  18.644  0.00  0.00    +0.000 C 
BRANCH  30  33
ATOM     33  N   UNL     1      -3.417  11.817  16.370  0.00  0.00    +0.000 NA
ATOM     34  H   UNL     1      -3.526  11.451  15.419  0.00  0.00    +0.000 HD
ATOM     35  H   UNL     1      -3.321  12.826  16.237  0.00  0.00    +0.000 HD
ENDBRANCH  30  33
ENDBRANCH   6  27
TORSDOF 5
ENDMDL
MODEL 2
REMARK VINA RESULT:      -7.6      1.286      1.771
REMARK  Name = 
REMARK  6 active torsions:
REMARK  status: ('A' for Active; 'I' for Inactive)
REMARK    1  A    between atoms: C_1  and  O_2
REMARK    2  A    between atoms: O_2  and  C_3
REMARK    3  A    between atoms: C_8  and  C_9
REMARK    4  A    between atoms: C_13  and  C_14
REMARK    5  A    between atoms: C_24  and  N_25
REMARK    6  A    between atoms: C_28  and  N_29
REMARK                            x       y       z     vdW  Elec       q    Type
REMARK                         _______ _______ _______ _____ _____    ______ ____
ROOT
ATOM      1  C   UNL     1      -1.086  11.173  21.909  0.00  0.00    +0.000 A 
ATOM      2  C   UNL     1      -0.717  10.875  23.222  0.00  0.00    +0.000 A 
ATOM      3  N   UNL     1       0.204   9.967  23.614  0.00  0.00    +0.000 NA
ATOM      4  C   UNL     1       0.773   9.262  22.612  0.00  0.00    +0.000 A 
ATOM      5  C   UNL     1       0.537   9.416  21.235  0.00  0.00    +0.000 A 
ATOM      6  C   UNL     1      -0.423  10.446  20.836  0.00  0.00    +0.000 A 
ENDROOT
BRANCH   5   7
ATOM      7  C   UNL     1       1.302   8.456  20.373  0.00  0.00    +0.000 A 
ATOM      8  N   UNL     1       1.681   8.643  19.120  0.00  0.00    +0.000 NA
ATOM      9  C   UNL     1       2.503   7.627  18.763  0.00  0.00    +0.000 A 
ATOM     10  C   UNL     1       3.301   7.502  17.622  0.00  0.00    +0.000 A 
ATOM     11  C   UNL     1       4.096   6.371  17.522  0.00  0.00    +0.000 A 
ATOM     12  F   UNL     1       4.909   6.234  16.465  0.00  0.00    +0.000 F 
ATOM     13  C   UNL     1       4.080   5.378  18.504  0.00  0.00    +0.000 A 
ATOM     14  C   UNL     1       3.260   5.485  19.638  0.00  0.00    +0.000 A 
ATOM     15  C   UNL     1       2.494   6.646  19.743  0.00  0.00    +0.000 A 
ATOM     16  N   UNL     1       1.622   7.142  20.694  0.00  0.00    +0.000 N 
ATOM     17  H   UNL     1       1.311   6.636  21.511  0.00  0.00    +0.000 HD
ENDBRANCH   5   7
BRANCH   1  23
ATOM     18  C   UNL     1      -3.387  14.240  22.327  0.00  0.00    +0.000 A 
ATOM     19  C   UNL     1      -4.231  14.085  21.236  0.00  0.00    +0.000 A 
ATOM     20  C   UNL     1      -4.150  12.924  20.488  0.00  0.00    +0.000 A 
ATOM     21  F   UNL     1      -4.956  12.776  19.428  0.00  0.00    +0.000 F 
ATOM     22  C   UNL     1      -3.206  11.940  20.769  0.00  0.00    +0.000 A 
ATOM     23  C   UNL     1      -2.219  12.146  21.738  0.00  0.00    +0.000 A 
ATOM     24  C   UNL     1      -2.370  13.292  22.551  0.00  0.00    +0.000 A 
BRANCH  18  26
ATOM     25  C   UNL     1      -4.722  15.483  23.846  0.00  0.00    +0.000 C 
ATOM     26  O   UNL     1      -3.454  15.271  23.225  0.00  0.00    +0.000 OA
ENDBRANCH  18  26
ENDBRANCH   1  23
BRANCH   6  27
ATOM     27  N   UNL     1      -0.803  10.707  19.488  0.00  0.00    +0.000 N 
ATOM     28  C   UNL     1      -1.356   9.634  18.683  0.00  0.00    +0.000 C 
ATOM     29  C   UNL     1      -2.504  10.107  17.828  0.00  0.00    +0.000 C 
ATOM     30  C   UNL     1      -2.134  11.290  16.958  0.00  0.00    +0.000 C 
ATOM     31  C   UNL     1      -1.383  12.371  17.738  0.00  0.00    +0.000 C 
ATOM     32  C   UNL     1      -0.281  11.833  18.684  0.00  0.00    +0.000 C 
BRANCH  30  33
ATOM     33  N   UNL     1      -3.390  11.821  16.399  0.00  0.00    +0.000 NA
ATOM     34  H   UNL     1      -3.705  11.189  15.656  0.00  0.00    +0.000 HD
ATOM     35  H   UNL     1      -3.193  12.698  15.912  0.00  0.00    +0.000 HD
ENDBRANCH  30  33
ENDBRANCH   6  27
TORSDOF 5
ENDMDL
MODEL 3
REMARK VINA RESULT:      -7.4      1.290      1.717
REMARK  Name = 
REMARK  6 active torsions:
REMARK  status: ('A' for Active; 'I' for Inactive)
REMARK    1  A    between atoms: C_1  and  O_2
REMARK    2  A    between atoms: O_2  and  C_3
REMARK    3  A    between atoms: C_8  and  C_9
REMARK    4  A    between atoms: C_13  and  C_14
REMARK    5  A    between atoms: C_24  and  N_25
REMARK    6  A    between atoms: C_28  and  N_29
REMARK                            x       y       z     vdW  Elec       q    Type
REMARK                         _______ _______ _______ _____ _____    ______ ____
ROOT
ATOM      1  C   UNL     1      -1.041  11.287  21.889  0.00  0.00    +0.000 A 
ATOM      2  C   UNL     1      -0.678  11.016  23.209  0.00  0.00    +0.000 A 
ATOM      3  N   UNL     1       0.215  10.090  23.626  0.00  0.00    +0.000 NA
ATOM      4  C   UNL     1       0.757   9.338  22.644  0.00  0.00    +0.000 A 
ATOM      5  C   UNL     1       0.522   9.459  21.263  0.00  0.00    +0.000 A 
ATOM      6  C   UNL     1      -0.405  10.508  20.836  0.00  0.00    +0.000 A 
ENDROOT
BRANCH   5   7
ATOM      7  C   UNL     1       1.252   8.450  20.428  0.00  0.00    +0.000 A 
ATOM      8  N   UNL     1       1.660   8.599  19.179  0.00  0.00    +0.000 NA
ATOM      9  C   UNL     1       2.437   7.538  18.850  0.00  0.00    +0.000 A 
ATOM     10  C   UNL     1       3.246   7.357  17.725  0.00  0.00    +0.000 A 
ATOM     11  C   UNL     1       3.985   6.187  17.654  0.00  0.00    +0.000 A 
ATOM     12  F   UNL     1       4.808   5.995  16.613  0.00  0.00    +0.000 F 
ATOM     13  C   UNL     1       3.905   5.211  18.650  0.00  0.00    +0.000 A 
ATOM     14  C   UNL     1       3.073   5.375  19.769  0.00  0.00    +0.000 A 
ATOM     15  C   UNL     1       2.364   6.574  19.844  0.00  0.00    +0.000 A 
ATOM     16  N   UNL     1       1.502   7.126  20.773  0.00  0.00    +0.000 N 
ATOM     17  H   UNL     1       1.153   6.649  21.592  0.00  0.00    +0.000 HD
ENDBRANCH   5   7
BRANCH   1  23
ATOM     18  C   UNL     1      -2.958  14.495  20.938  0.00  0.00    +0.000 A 
ATOM     19  C   UNL     1      -4.271  14.078  21.111  0.00  0.00    +0.000 A 
ATOM     20  C   UNL     1      -4.508  12.838  21.679  0.00  0.00    +0.000 A 
ATOM     21  F   UNL     1      -5.774  12.428  21.838  0.00  0.00    +0.000 F 
ATOM     22  C   UNL     1      -3.465  11.983  22.025  0.00  0.00    +0.000 A 
ATOM     23  C   UNL     1      -2.142  12.291  21.693  0.00  0.00    +0.000 A 
ATOM     24  C   UNL     1      -1.908  13.593  21.197  0.00  0.00    +0.000 A 
BRANCH  18  26
ATOM     25  C   UNL     1      -1.199  15.923  20.230  0.00  0.00    +0.000 C 
ATOM     26  O   UNL     1      -2.586  15.744  20.516  0.00  0.00    +0.000 OA
ENDBRANCH  18  26
ENDBRANCH   1  23
BRANCH   6  27
ATOM     27  N   UNL     1      -0.781  10.741  19.483  0.00  0.00    +0.000 N 
ATOM     28  C   UNL     1      -1.356   9.659  18.705  0.00  0.00    +0.000 C 
ATOM     29  C   UNL     1      -2.495  10.132  17.839  0.00  0.00    +0.000 C 
ATOM     30  C   UNL     1      -2.103  11.285  16.939  0.00  0.00    +0.000 C 
ATOM     31  C   UNL     1      -1.330  12.371  17.689  0.00  0.00    +0.000 C 
ATOM     32  C   UNL     1      -0.238  11.836  18.649  0.00  0.00    +0.000 C 
BRANCH  30  33
ATOM     33  N   UNL     1      -3.348  11.826  16.366  0.00  0.00    +0.000 NA
ATOM     34  H   UNL     1      -3.888  12.261  17.121  0.00  0.00    +0.000 HD
ATOM     35  H   UNL     1      -3.938  11.050  16.057  0.00  0.00    +0.000 HD
ENDBRANCH  30  33
ENDBRANCH   6  27
TORSDOF 5
ENDMDL
MODEL 4
REMARK VINA RESULT:      -7.4      1.162      1.558
REMARK  Name = 
REMARK  6 active torsions:
REMARK  status: ('A' for Active; 'I' for Inactive)
REMARK    1  A    between atoms: C_1  and  O_2
REMARK    2  A    between atoms: O_2  and  C_3
REMARK    3  A    between atoms: C_8  and  C_9
REMARK    4  A    between atoms: C_13  and  C_14
REMARK    5  A    between atoms: C_24  and  N_25
REMARK    6  A    between atoms: C_28  and  N_29
REMARK                            x       y       z     vdW  Elec       q    Type
REMARK                         _______ _______ _______ _____ _____    ______ ____
ROOT
ATOM      1  C   UNL     1      -1.597  11.714  21.571  0.00  0.00    +0.000 A 
ATOM      2  C   UNL     1      -1.350  11.619  22.942  0.00  0.00    +0.000 A 
ATOM      3  N   UNL     1      -0.471  10.789  23.547  0.00  0.00    +0.000 NA
ATOM      4  C   UNL     1       0.183   9.948  22.717  0.00  0.00    +0.000 A 
ATOM      5  C   UNL     1       0.074   9.892  21.317  0.00  0.00    +0.000 A 
ATOM      6  C   UNL     1      -0.842  10.842  20.683  0.00  0.00    +0.000 A 
ENDROOT
BRANCH   5   7
ATOM      7  C   UNL     1       0.910   8.822  20.681  0.00  0.00    +0.000 A 
ATOM      8  N   UNL     1       1.191   7.631  21.183  0.00  0.00    +0.000 NA
ATOM      9  C   UNL     1       1.814   6.898  20.228  0.00  0.00    +0.000 A 
ATOM     10  C   UNL     1       2.114   5.532  20.225  0.00  0.00    +0.000 A 
ATOM     11  C   UNL     1       2.718   5.016  19.090  0.00  0.00    +0.000 A 
ATOM     12  F   UNL     1       2.981   3.703  19.029  0.00  0.00    +0.000 F 
ATOM     13  C   UNL     1       3.045   5.829  18.003  0.00  0.00    +0.000 A 
ATOM     14  C   UNL     1       2.772   7.206  18.011  0.00  0.00    +0.000 A 
ATOM     15  C   UNL     1       2.130   7.704  19.145  0.00  0.00    +0.000 A 
ATOM     16  N   UNL     1       1.659   8.950  19.516  0.00  0.00    +0.000 N 
ATOM     17  H   UNL     1       1.803   9.801  18.991  0.00  0.00    +0.000 HD
ENDBRANCH   5   7
BRANCH   1  23
ATOM     18  C   UNL     1      -4.999  13.046  20.336  0.00  0.00    +0.000 A 
ATOM     19  C   UNL     1      -4.863  14.401  20.605  0.00  0.00    +0.000 A 
ATOM     20  C   UNL     1      -3.633  14.879  21.022  0.00  0.00    +0.000 A 
ATOM     21  F   UNL     1      -3.501  16.186  21.292  0.00  0.00    +0.000 F 
ATOM     22  C   UNL     1      -2.553  14.027  21.233  0.00  0.00    +0.000 A 
ATOM     23  C   UNL     1      -2.706  12.639  21.155  0.00  0.00    +0.000 A 
ATOM     24  C   UNL     1      -3.937  12.173  20.642  0.00  0.00    +0.000 A 
BRANCH  18  26
ATOM     25  C   UNL     1      -5.884  11.377  18.899  0.00  0.00    +0.000 C 
ATOM     26  O   UNL     1      -6.114  12.467  19.791  0.00  0.00    +0.000 OA
ENDBRANCH  18  26
ENDBRANCH   1  23
BRANCH   6  27
ATOM     27  N   UNL     1      -1.097  10.894  19.283  0.00  0.00    +0.000 N 
ATOM     28  C   UNL     1      -1.614   9.718  18.607  0.00  0.00    +0.000 C 
ATOM     29  C   UNL     1      -2.669  10.073  17.591  0.00  0.00    +0.000 C 
ATOM     30  C   UNL     1      -2.188  11.097  16.585  0.00  0.00    +0.000 C 
ATOM     31  C   UNL     1      -1.472  12.273  17.251  0.00  0.00    +0.000 C 
ATOM     32  C   UNL     1      -0.472  11.870  18.364  0.00  0.00    +0.000 C 
BRANCH  30  33
ATOM     33  N   UNL     1      -3.374  11.557  15.840  0.00  0.00    +0.000 NA
ATOM     34  H   UNL     1      -3.784  10.752  15.356  0.00  0.00    +0.000 HD
ATOM     35  H   UNL     1      -3.073  12.174  15.083  0.00  0.00    +0.000 HD
ENDBRANCH  30  33
ENDBRANCH   6  27
TORSDOF 5
ENDMDL
MODEL 5
REMARK VINA RESULT:      -7.3      4.049      5.214
REMARK  Name = 
REMARK  6 active torsions:
REMARK  status: ('A' for Active; 'I' for Inactive)
REMARK    1  A    between atoms: C_1  and  O_2
REMARK    2  A    between atoms: O_2  and  C_3
REMARK    3  A    between atoms: C_8  and  C_9
REMARK    4  A    between atoms: C_13  and  C_14
REMARK    5  A    between atoms: C_24  and  N_25
REMARK    6  A    between atoms: C_28  and  N_29
REMARK                            x       y       z     vdW  Elec       q    Type
REMARK                         _______ _______ _______ _____ _____    ______ ____
ROOT
ATOM      1  C   UNL     1      -0.678  14.241  19.831  0.00  0.00    +0.000 A 
ATOM      2  C   UNL     1      -1.997  13.810  19.989  0.00  0.00    +0.000 A 
ATOM      3  N   UNL     1      -2.426  12.529  20.038  0.00  0.00    +0.000 NA
ATOM      4  C   UNL     1      -1.462  11.598  19.866  0.00  0.00    +0.000 A 
ATOM      5  C   UNL     1      -0.086  11.831  19.696  0.00  0.00    +0.000 A 
ATOM      6  C   UNL     1       0.358  13.226  19.706  0.00  0.00    +0.000 A 
ENDROOT
BRANCH   5   7
ATOM      7  C   UNL     1       0.725  10.586  19.497  0.00  0.00    +0.000 A 
ATOM      8  N   UNL     1       1.016   9.674  20.409  0.00  0.00    +0.000 NA
ATOM      9  C   UNL     1       1.604   8.620  19.793  0.00  0.00    +0.000 A 
ATOM     10  C   UNL     1       1.897   7.353  20.306  0.00  0.00    +0.000 A 
ATOM     11  C   UNL     1       2.462   6.430  19.440  0.00  0.00    +0.000 A 
ATOM     12  F   UNL     1       2.717   5.190  19.880  0.00  0.00    +0.000 F 
ATOM     13  C   UNL     1       2.758   6.759  18.114  0.00  0.00    +0.000 A 
ATOM     14  C   UNL     1       2.491   8.038  17.601  0.00  0.00    +0.000 A 
ATOM     15  C   UNL     1       1.888   8.944  18.475  0.00  0.00    +0.000 A 
ATOM     16  N   UNL     1       1.435  10.244  18.352  0.00  0.00    +0.000 N 
ATOM     17  H   UNL     1       1.566  10.826  17.537  0.00  0.00    +0.000 HD
ENDBRANCH   5   7
BRANCH   1  23
ATOM     18  C   UNL     1      -0.430  17.794  18.354  0.00  0.00    +0.000 A 
ATOM     19  C   UNL     1      -0.316  18.553  19.511  0.00  0.00    +0.000 A 
ATOM     20  C   UNL     1      -0.160  17.902  20.722  0.00  0.00    +0.000 A 
ATOM     21  F   UNL     1      -0.060  18.631  21.843  0.00  0.00    +0.000 F 
ATOM     22  C   UNL     1      -0.172  16.513  20.811  0.00  0.00    +0.000 A 
ATOM     23  C   UNL     1      -0.473  15.724  19.697  0.00  0.00    +0.000 A 
ATOM     24  C   UNL     1      -0.540  16.394  18.455  0.00  0.00    +0.000 A 
BRANCH  18  26
ATOM     25  C   UNL     1       0.814  18.488  16.455  0.00  0.00    +0.000 C 
ATOM     26  O   UNL     1      -0.454  18.308  17.084  0.00  0.00    +0.000 OA
ENDBRANCH  18  26
ENDBRANCH   1  23
BRANCH   6  27
ATOM     27  N   UNL     1       1.707  13.637  19.512  0.00  0.00    +0.000 N 
ATOM     28  C   UNL     1       2.258  13.667  18.169  0.00  0.00    +0.000 C 
ATOM     29  C   UNL     1       3.123  14.880  17.943  0.00  0.00    +0.000 C 
ATOM     30  C   UNL     1       4.225  15.010  18.974  0.00  0.00    +0.000 C 
ATOM     31  C   UNL     1       3.713  14.803  20.400  0.00  0.00    +0.000 C 
ATOM     32  C   UNL     1       2.742  13.608  20.568  0.00  0.00    +0.000 C 
BRANCH  30  33
ATOM     33  N   UNL     1       4.806  16.355  18.813  0.00  0.00    +0.000 NA
ATOM     34  H   UNL     1       5.733  16.257  18.388  0.00  0.00    +0.000 HD
ATOM     35  H   UNL     1       4.999  16.747  19.738  0.00  0.00    +0.000 HD
ENDBRANCH  30  33
ENDBRANCH   6  27
TORSDOF 5
ENDMDL
MODEL 6
REMARK VINA RESULT:      -7.1      1.556      2.236
REMARK  Name = 
REMARK  6 active torsions:
REMARK  status: ('A' for Active; 'I' for Inactive)
REMARK    1  A    between atoms: C_1  and  O_2
REMARK    2  A    between atoms: O_2  and  C_3
REMARK    3  A    between atoms: C_8  and  C_9
REMARK    4  A    between atoms: C_13  and  C_14
REMARK    5  A    between atoms: C_24  and  N_25
REMARK    6  A    between atoms: C_28  and  N_29
REMARK                            x       y       z     vdW  Elec       q    Type
REMARK                         _______ _______ _______ _____ _____    ______ ____
ROOT
ATOM      1  C   UNL     1      -1.526  11.495  21.723  0.00  0.00    +0.000 A 
ATOM      2  C   UNL     1      -1.270  11.319  23.084  0.00  0.00    +0.000 A 
ATOM      3  N   UNL     1      -0.374  10.468  23.633  0.00  0.00    +0.000 NA
ATOM      4  C   UNL     1       0.291   9.693  22.750  0.00  0.00    +0.000 A 
ATOM      5  C   UNL     1       0.175   9.723  21.349  0.00  0.00    +0.000 A 
ATOM      6  C   UNL     1      -0.760  10.694  20.779  0.00  0.00    +0.000 A 
ENDROOT
BRANCH   5   7
ATOM      7  C   UNL     1       1.028   8.710  20.644  0.00  0.00    +0.000 A 
ATOM      8  N   UNL     1       1.333   7.495  21.070  0.00  0.00    +0.000 NA
ATOM      9  C   UNL     1       1.964   6.834  20.069  0.00  0.00    +0.000 A 
ATOM     10  C   UNL     1       2.288   5.477  19.980  0.00  0.00    +0.000 A 
ATOM     11  C   UNL     1       2.895   5.043  18.812  0.00  0.00    +0.000 A 
ATOM     12  F   UNL     1       3.182   3.741  18.669  0.00  0.00    +0.000 F 
ATOM     13  C   UNL     1       3.201   5.928  17.775  0.00  0.00    +0.000 A 
ATOM     14  C   UNL     1       2.903   7.297  17.871  0.00  0.00    +0.000 A 
ATOM     15  C   UNL     1       2.258   7.711  19.037  0.00  0.00    +0.000 A 
ATOM     16  N   UNL     1       1.767   8.923  19.486  0.00  0.00    +0.000 N 
ATOM     17  H   UNL     1       1.893   9.807  19.014  0.00  0.00    +0.000 HD
ENDBRANCH   5   7
BRANCH   1  23
ATOM     18  C   UNL     1      -3.797  14.605  21.535  0.00  0.00    +0.000 A 
ATOM     19  C   UNL     1      -4.655  14.242  20.505  0.00  0.00    +0.000 A 
ATOM     20  C   UNL     1      -4.591  12.954  20.006  0.00  0.00    +0.000 A 
ATOM     21  F   UNL     1      -5.411  12.602  19.006  0.00  0.00    +0.000 F 
ATOM     22  C   UNL     1      -3.652  12.037  20.471  0.00  0.00    +0.000 A 
ATOM     23  C   UNL     1      -2.653  12.425  21.370  0.00  0.00    +0.000 A 
ATOM     24  C   UNL     1      -2.786  13.712  21.936  0.00  0.00    +0.000 A 
BRANCH  18  26
ATOM     25  C   UNL     1      -4.541  15.788  23.454  0.00  0.00    +0.000 C 
ATOM     26  O   UNL     1      -3.847  15.798  22.207  0.00  0.00    +0.000 OA
ENDBRANCH  18  26
ENDBRANCH   1  23
BRANCH   6  27
ATOM     27  N   UNL     1      -1.022  10.829  19.386  0.00  0.00    +0.000 N 
ATOM     28  C   UNL     1      -1.483   9.678  18.631  0.00  0.00    +0.000 C 
ATOM     29  C   UNL     1      -2.558  10.048  17.642  0.00  0.00    +0.000 C 
ATOM     30  C   UNL     1      -2.133  11.162  16.708  0.00  0.00    +0.000 C 
ATOM     31  C   UNL     1      -1.472  12.324  17.453  0.00  0.00    +0.000 C 
ATOM     32  C   UNL     1      -0.450  11.896  18.536  0.00  0.00    +0.000 C 
BRANCH  30  33
ATOM     33  N   UNL     1      -3.343  11.612  15.998  0.00  0.00    +0.000 NA
ATOM     34  H   UNL     1      -3.072  12.337  15.326  0.00  0.00    +0.000 HD
ATOM     35  H   UNL     1      -3.953  12.101  16.656  0.00  0.00    +0.000 HD
ENDBRANCH  30  33
ENDBRANCH   6  27
TORSDOF 5
ENDMDL
MODEL 7
REMARK VINA RESULT:      -7.1      4.008      5.084
REMARK  Name = 
REMARK  6 active torsions:
REMARK  status: ('A' for Active; 'I' for Inactive)
REMARK    1  A    between atoms: C_1  and  O_2
REMARK    2  A    between atoms: O_2  and  C_3
REMARK    3  A    between atoms: C_8  and  C_9
REMARK    4  A    between atoms: C_13  and  C_14
REMARK    5  A    between atoms: C_24  and  N_25
REMARK    6  A    between atoms: C_28  and  N_29
REMARK                            x       y       z     vdW  Elec       q    Type
REMARK                         _______ _______ _______ _____ _____    ______ ____
ROOT
ATOM      1  C   UNL     1      -0.719  14.362  19.997  0.00  0.00    +0.000 A 
ATOM      2  C   UNL     1      -2.059  14.045  20.224  0.00  0.00    +0.000 A 
ATOM      3  N   UNL     1      -2.599  12.806  20.271  0.00  0.00    +0.000 NA
ATOM      4  C   UNL     1      -1.734  11.798  20.023  0.00  0.00    +0.000 A 
ATOM      5  C   UNL     1      -0.354  11.913  19.778  0.00  0.00    +0.000 A 
ATOM      6  C   UNL     1       0.213  13.262  19.791  0.00  0.00    +0.000 A 
ENDROOT
BRANCH   5   7
ATOM      7  C   UNL     1       0.328  10.606  19.506  0.00  0.00    +0.000 A 
ATOM      8  N   UNL     1       0.787  10.177  18.342  0.00  0.00    +0.000 NA
ATOM      9  C   UNL     1       1.495   9.041  18.551  0.00  0.00    +0.000 A 
ATOM     10  C   UNL     1       2.325   8.348  17.665  0.00  0.00    +0.000 A 
ATOM     11  C   UNL     1       2.980   7.227  18.150  0.00  0.00    +0.000 A 
ATOM     12  F   UNL     1       3.820   6.560  17.346  0.00  0.00    +0.000 F 
ATOM     13  C   UNL     1       2.796   6.785  19.463  0.00  0.00    +0.000 A 
ATOM     14  C   UNL     1       1.942   7.461  20.349  0.00  0.00    +0.000 A 
ATOM     15  C   UNL     1       1.319   8.608  19.856  0.00  0.00    +0.000 A 
ATOM     16  N   UNL     1       0.469   9.552  20.402  0.00  0.00    +0.000 N 
ATOM     17  H   UNL     1       0.060   9.496  21.324  0.00  0.00    +0.000 HD
ENDBRANCH   5   7
BRANCH   1  23
ATOM     18  C   UNL     1      -0.331  17.940  18.614  0.00  0.00    +0.000 A 
ATOM     19  C   UNL     1       0.019  18.631  19.766  0.00  0.00    +0.000 A 
ATOM     20  C   UNL     1       0.280  17.914  20.920  0.00  0.00    +0.000 A 
ATOM     21  F   UNL     1       0.610  18.578  22.037  0.00  0.00    +0.000 F 
ATOM     22  C   UNL     1       0.143  16.530  20.965  0.00  0.00    +0.000 A 
ATOM     23  C   UNL     1      -0.388  15.824  19.882  0.00  0.00    +0.000 A 
ATOM     24  C   UNL     1      -0.564  16.554  18.685  0.00  0.00    +0.000 A 
BRANCH  18  26
ATOM     25  C   UNL     1       0.661  18.482  16.527  0.00  0.00    +0.000 C 
ATOM     26  O   UNL     1      -0.484  18.511  17.378  0.00  0.00    +0.000 OA
ENDBRANCH  18  26
ENDBRANCH   1  23
BRANCH   6  27
ATOM     27  N   UNL     1       1.581  13.557  19.526  0.00  0.00    +0.000 N 
ATOM     28  C   UNL     1       2.064  13.531  18.158  0.00  0.00    +0.000 C 
ATOM     29  C   UNL     1       3.016  14.666  17.876  0.00  0.00    +0.000 C 
ATOM     30  C   UNL     1       4.175  14.710  18.850  0.00  0.00    +0.000 C 
ATOM     31  C   UNL     1       3.718  14.557  20.302  0.00  0.00    +0.000 C 
ATOM     32  C   UNL     1       2.661  13.448  20.531  0.00  0.00    +0.000 C 
BRANCH  30  33
ATOM     33  N   UNL     1       4.858  16.000  18.646  0.00  0.00    +0.000 NA
ATOM     34  H   UNL     1       4.644  16.608  19.443  0.00  0.00    +0.000 HD
ATOM     35  H   UNL     1       4.433  16.479  17.849  0.00  0.00    +0.000 HD
ENDBRANCH  30  33
ENDBRANCH   6  27
TORSDOF 5
ENDMDL
MODEL 8
REMARK VINA RESULT:      -7.1      1.593      2.215
REMARK  Name = 
REMARK  6 active torsions:
REMARK  status: ('A' for Active; 'I' for Inactive)
REMARK    1  A    between atoms: C_1  and  O_2
REMARK    2  A    between atoms: O_2  and  C_3
REMARK    3  A    between atoms: C_8  and  C_9
REMARK    4  A    between atoms: C_13  and  C_14
REMARK    5  A    between atoms: C_24  and  N_25
REMARK    6  A    between atoms: C_28  and  N_29
REMARK                            x       y       z     vdW  Elec       q    Type
REMARK                         _______ _______ _______ _____ _____    ______ ____
ROOT
ATOM      1  C   UNL     1      -1.221  11.371  21.868  0.00  0.00    +0.000 A 
ATOM      2  C   UNL     1      -0.968  11.138  23.221  0.00  0.00    +0.000 A 
ATOM      3  N   UNL     1      -0.129  10.212  23.737  0.00  0.00    +0.000 NA
ATOM      4  C   UNL     1       0.475   9.419  22.825  0.00  0.00    +0.000 A 
ATOM      5  C   UNL     1       0.352   9.498  21.427  0.00  0.00    +0.000 A 
ATOM      6  C   UNL     1      -0.518  10.548  20.894  0.00  0.00    +0.000 A 
ENDROOT
BRANCH   5   7
ATOM      7  C   UNL     1       1.127   8.450  20.685  0.00  0.00    +0.000 A 
ATOM      8  N   UNL     1       1.311   7.192  21.049  0.00  0.00    +0.000 NA
ATOM      9  C   UNL     1       1.905   6.530  20.027  0.00  0.00    +0.000 A 
ATOM     10  C   UNL     1       2.108   5.156  19.870  0.00  0.00    +0.000 A 
ATOM     11  C   UNL     1       2.703   4.731  18.693  0.00  0.00    +0.000 A 
ATOM     12  F   UNL     1       2.875   3.418  18.484  0.00  0.00    +0.000 F 
ATOM     13  C   UNL     1       3.113   5.637  17.713  0.00  0.00    +0.000 A 
ATOM     14  C   UNL     1       2.937   7.021  17.877  0.00  0.00    +0.000 A 
ATOM     15  C   UNL     1       2.303   7.430  19.050  0.00  0.00    +0.000 A 
ATOM     16  N   UNL     1       1.912   8.656  19.555  0.00  0.00    +0.000 N 
ATOM     17  H   UNL     1       2.128   9.549  19.136  0.00  0.00    +0.000 HD
ENDBRANCH   5   7
BRANCH   1  23
ATOM     18  C   UNL     1      -2.984  14.626  20.788  0.00  0.00    +0.000 A 
ATOM     19  C   UNL     1      -4.305  14.204  20.736  0.00  0.00    +0.000 A 
ATOM     20  C   UNL     1      -4.621  12.940  21.201  0.00  0.00    +0.000 A 
ATOM     21  F   UNL     1      -5.894  12.525  21.143  0.00  0.00    +0.000 F 
ATOM     22  C   UNL     1      -3.640  12.066  21.662  0.00  0.00    +0.000 A 
ATOM     23  C   UNL     1      -2.283  12.387  21.552  0.00  0.00    +0.000 A 
ATOM     24  C   UNL     1      -1.982  13.710  21.162  0.00  0.00    +0.000 A 
BRANCH  18  26
ATOM     25  C   UNL     1      -1.215  16.009  20.018  0.00  0.00    +0.000 C 
ATOM     26  O   UNL     1      -2.557  15.893  20.489  0.00  0.00    +0.000 OA
ENDBRANCH  18  26
ENDBRANCH   1  23
BRANCH   6  27
ATOM     27  N   UNL     1      -0.781  10.742  19.508  0.00  0.00    +0.000 N 
ATOM     28  C   UNL     1      -1.271   9.632  18.712  0.00  0.00    +0.000 C 
ATOM     29  C   UNL     1      -2.339  10.065  17.741  0.00  0.00    +0.000 C 
ATOM     30  C   UNL     1      -1.889  11.202  16.849  0.00  0.00    +0.000 C 
ATOM     31  C   UNL     1      -1.200  12.319  17.635  0.00  0.00    +0.000 C 
ATOM     32  C   UNL     1      -0.185  11.826  18.697  0.00  0.00    +0.000 C 
BRANCH  30  33
ATOM     33  N   UNL     1      -3.090  11.708  16.160  0.00  0.00    +0.000 NA
ATOM     34  H   UNL     1      -3.912  11.465  16.722  0.00  0.00    +0.000 HD
ATOM     35  H   UNL     1      -3.221  11.184  15.291  0.00  0.00    +0.000 HD
ENDBRANCH  30  33
ENDBRANCH   6  27
TORSDOF 5
ENDMDL
MODEL 9
REMARK VINA RESULT:      -7.0      4.078      5.247
REMARK  Name = 
REMARK  6 active torsions:
REMARK  status: ('A' for Active; 'I' for Inactive)
REMARK    1  A    between atoms: C_1  and  O_2
REMARK    2  A    between atoms: O_2  and  C_3
REMARK    3  A    between atoms: C_8  and  C_9
REMARK    4  A    between atoms: C_13  and  C_14
REMARK    5  A    between atoms: C_24  and  N_25
REMARK    6  A    between atoms: C_28  and  N_29
REMARK                            x       y       z     vdW  Elec       q    Type
REMARK                         _______ _______ _______ _____ _____    ______ ____
ROOT
ATOM      1  C   UNL     1      -0.706  14.137  19.948  0.00  0.00    +0.000 A 
ATOM      2  C   UNL     1      -2.019  13.705  20.144  0.00  0.00    +0.000 A 
ATOM      3  N   UNL     1      -2.443  12.424  20.223  0.00  0.00    +0.000 NA
ATOM      4  C   UNL     1      -1.481  11.492  20.044  0.00  0.00    +0.000 A 
ATOM      5  C   UNL     1      -0.110  11.727  19.839  0.00  0.00    +0.000 A 
ATOM      6  C   UNL     1       0.330  13.122  19.816  0.00  0.00    +0.000 A 
ENDROOT
BRANCH   5   7
ATOM      7  C   UNL     1       0.699  10.480  19.642  0.00  0.00    +0.000 A 
ATOM      8  N   UNL     1       0.995   9.572  20.557  0.00  0.00    +0.000 NA
ATOM      9  C   UNL     1       1.580   8.515  19.942  0.00  0.00    +0.000 A 
ATOM     10  C   UNL     1       1.874   7.250  20.459  0.00  0.00    +0.000 A 
ATOM     11  C   UNL     1       2.435   6.324  19.594  0.00  0.00    +0.000 A 
ATOM     12  F   UNL     1       2.692   5.085  20.039  0.00  0.00    +0.000 F 
ATOM     13  C   UNL     1       2.725   6.646  18.266  0.00  0.00    +0.000 A 
ATOM     14  C   UNL     1       2.457   7.923  17.749  0.00  0.00    +0.000 A 
ATOM     15  C   UNL     1       1.858   8.833  18.621  0.00  0.00    +0.000 A 
ATOM     16  N   UNL     1       1.405  10.133  18.495  0.00  0.00    +0.000 N 
ATOM     17  H   UNL     1       1.533  10.712  17.677  0.00  0.00    +0.000 HD
ENDBRANCH   5   7
BRANCH   1  23
ATOM     18  C   UNL     1      -0.165  17.876  20.719  0.00  0.00    +0.000 A 
ATOM     19  C   UNL     1       0.104  18.370  19.450  0.00  0.00    +0.000 A 
ATOM     20  C   UNL     1      -0.051  17.531  18.361  0.00  0.00    +0.000 A 
ATOM     21  F   UNL     1       0.217  18.001  17.135  0.00  0.00    +0.000 F 
ATOM     22  C   UNL     1      -0.413  16.196  18.515  0.00  0.00    +0.000 A 
ATOM     23  C   UNL     1      -0.508  15.618  19.784  0.00  0.00    +0.000 A 
ATOM     24  C   UNL     1      -0.435  16.504  20.882  0.00  0.00    +0.000 A 
BRANCH  18  26
ATOM     25  C   UNL     1      -0.370  17.917  23.084  0.00  0.00    +0.000 C 
ATOM     26  O   UNL     1      -0.182  18.631  21.862  0.00  0.00    +0.000 OA
ENDBRANCH  18  26
ENDBRANCH   1  23
BRANCH   6  27
ATOM     27  N   UNL     1       1.673  13.533  19.583  0.00  0.00    +0.000 N 
ATOM     28  C   UNL     1       2.202  13.514  18.231  0.00  0.00    +0.000 C 
ATOM     29  C   UNL     1       3.056  14.723  17.944  0.00  0.00    +0.000 C 
ATOM     30  C   UNL     1       4.173  14.899  18.951  0.00  0.00    +0.000 C 
ATOM     31  C   UNL     1       3.685  14.746  20.393  0.00  0.00    +0.000 C 
ATOM     32  C   UNL     1       2.725  13.552  20.623  0.00  0.00    +0.000 C 
BRANCH  30  33
ATOM     33  N   UNL     1       4.743  16.240  18.728  0.00  0.00    +0.000 NA
ATOM     34  H   UNL     1       5.499  16.386  19.404  0.00  0.00    +0.000 HD
ATOM     35  H   UNL     1       4.046  16.944  18.981  0.00  0.00    +0.000 HD
ENDBRANCH  30  33
ENDBRANCH   6  27
TORSDOF 5
ENDMDL
