MODEL 1
REMARK VINA RESULT:      -8.5      0.000      0.000
REMARK  Name = 
REMARK  5 active torsions:
REMARK  status: ('A' for Active; 'I' for Inactive)
REMARK    1  A    between atoms: C_1  and  C_2
REMARK    2  A    between atoms: C_5  and  C_6
REMARK    3  A    between atoms: C_6  and  C_7
REMARK    4  A    between atoms: C_15  and  C_17
REMARK    5  A    between atoms: C_19  and  C_20
REMARK                            x       y       z     vdW  Elec       q    Type
REMARK                         _______ _______ _______ _____ _____    ______ ____
ROOT
ATOM      1  C   UNL     1      -3.633  13.458  23.854  0.00  0.00    +0.000 C 
ATOM      2  C   UNL     1      -2.591  14.178  24.722  0.00  0.00    +0.000 C 
ATOM      3  C   UNL     1      -1.314  14.416  23.933  0.00  0.00    +0.000 C 
ATOM      4  O   UNL     1      -0.801  13.201  23.403  0.00  0.00    +0.000 OA
ATOM      5  C   UNL     1      -1.688  12.463  22.546  0.00  0.00    +0.000 C 
ATOM      6  C   UNL     1      -1.978  13.207  21.220  0.00  0.00    +0.000 C 
ATOM      7  C   UNL     1      -0.711  13.442  20.408  0.00  0.00    +0.000 C 
ATOM      8  N   UNL     1      -0.024  12.180  20.173  0.00  0.00    +0.000 N 
ATOM      9  C   UNL     1       0.488  11.937  18.898  0.00  0.00    +0.000 C 
ATOM     10  O   UNL     1       0.423  12.785  18.008  0.00  0.00    +0.000 OA
ATOM     11  C   UNL     1       0.331  11.471  21.406  0.00  0.00    +0.000 C 
ATOM     12  C   UNL     1      -0.933  11.158  22.215  0.00  0.00    +0.000 C 
ATOM     13  C   UNL     1      -2.998  12.162  23.309  0.00  0.00    +0.000 C 
ENDROOT
BRANCH   9  14
ATOM     14  C   UNL     1       1.110  10.670  18.622  0.00  0.00    +0.000 A 
ATOM     15  C   UNL     1       0.960   9.403  19.138  0.00  0.00    +0.000 A 
ATOM     16  C   UNL     1       1.978   8.616  18.546  0.00  0.00    +0.000 A 
ATOM     17  N   UNL     1       2.626   9.315  17.604  0.00  0.00    +0.000 NA
ATOM     18  N   UNL     1       2.023  10.516  17.614  0.00  0.00    +0.000 N 
ATOM     19  H   UNL     1       2.311  11.222  16.943  0.00  0.00    +0.000 HD
BRANCH  16  20
ATOM     20  C   UNL     1       2.358   7.257  18.929  0.00  0.00    +0.000 A 
ATOM     21  C   UNL     1       1.894   6.702  20.134  0.00  0.00    +0.000 A 
ATOM     22  C   UNL     1       2.326   5.438  20.542  0.00  0.00    +0.000 A 
ATOM     23  C   UNL     1       3.218   4.734  19.746  0.00  0.00    +0.000 A 
ATOM     24  F   UNL     1       3.644   3.528  20.150  0.00  0.00    +0.000 F 
ATOM     25  C   UNL     1       3.684   5.258  18.549  0.00  0.00    +0.000 A 
ATOM     26  C   UNL     1       3.251   6.519  18.136  0.00  0.00    +0.000 A 
ENDBRANCH  16  20
ENDBRANCH   9  14
BRANCH   1  27
ATOM     27  C   UNL     1      -4.940  13.179  24.612  0.00  0.00    +0.000 C 
BRANCH  27  32
ATOM     28  C   UNL     1      -7.833  11.714  20.873  0.00  0.00    +0.000 C 
ATOM     29  C   UNL     1      -7.259  11.926  22.216  0.00  0.00    +0.000 A 
ATOM     30  N   UNL     1      -7.823  11.434  23.327  0.00  0.00    +0.000 NA
ATOM     31  O   UNL     1      -6.965  11.866  24.339  0.00  0.00    +0.000 OA
ATOM     32  C   UNL     1      -5.973  12.574  23.728  0.00  0.00    +0.000 A 
ATOM     33  N   UNL     1      -6.110  12.647  22.422  0.00  0.00    +0.000 NA
ENDBRANCH  27  32
ENDBRANCH   1  27
TORSDOF 4
ENDMDL
MODEL 2
REMARK VINA RESULT:      -8.1      4.771      7.297
REMARK  Name = 
REMARK  5 active torsions:
REMARK  status: ('A' for Active; 'I' for Inactive)
REMARK    1  A    between atoms: C_1  and  C_2
REMARK    2  A    between atoms: C_5  and  C_6
REMARK    3  A    between atoms: C_6  and  C_7
REMARK    4  A    between atoms: C_15  and  C_17
REMARK    5  A    between atoms: C_19  and  C_20
REMARK                            x       y       z     vdW  Elec       q    Type
REMARK                         _______ _______ _______ _____ _____    ______ ____
ROOT
ATOM      1  C   UNL     1       1.102  14.305  19.290  0.00  0.00    +0.000 C 
ATOM      2  C   UNL     1      -0.307  14.263  18.681  0.00  0.00    +0.000 C 
ATOM      3  C   UNL     1      -0.940  12.899  18.899  0.00  0.00    +0.000 C 
ATOM      4  O   UNL     1      -0.118  11.860  18.384  0.00  0.00    +0.000 OA
ATOM      5  C   UNL     1       1.216  11.789  18.915  0.00  0.00    +0.000 C 
ATOM      6  C   UNL     1       1.232  11.396  20.411  0.00  0.00    +0.000 C 
ATOM      7  C   UNL     1       0.614  10.024  20.648  0.00  0.00    +0.000 C 
ATOM      8  N   UNL     1       1.282   9.024  19.826  0.00  0.00    +0.000 N 
ATOM      9  C   UNL     1       1.598   7.797  20.409  0.00  0.00    +0.000 C 
ATOM     10  O   UNL     1       1.269   7.533  21.566  0.00  0.00    +0.000 OA
ATOM     11  C   UNL     1       1.232   9.322  18.391  0.00  0.00    +0.000 C 
ATOM     12  C   UNL     1       1.909  10.669  18.111  0.00  0.00    +0.000 C 
ATOM     13  C   UNL     1       1.924  13.145  18.692  0.00  0.00    +0.000 C 
ENDROOT
BRANCH   9  14
ATOM     14  C   UNL     1       2.317   6.819  19.639  0.00  0.00    +0.000 A 
ATOM     15  C   UNL     1       3.418   6.879  18.814  0.00  0.00    +0.000 A 
ATOM     16  C   UNL     1       3.540   5.594  18.231  0.00  0.00    +0.000 A 
ATOM     17  N   UNL     1       2.659   4.743  18.776  0.00  0.00    +0.000 NA
ATOM     18  N   UNL     1       2.000   5.489  19.680  0.00  0.00    +0.000 N 
ATOM     19  H   UNL     1       1.298   5.050  20.268  0.00  0.00    +0.000 HD
BRANCH  16  20
ATOM     20  C   UNL     1       4.429   5.219  17.132  0.00  0.00    +0.000 A 
ATOM     21  C   UNL     1       4.912   6.197  16.246  0.00  0.00    +0.000 A 
ATOM     22  C   UNL     1       5.691   5.829  15.145  0.00  0.00    +0.000 A 
ATOM     23  C   UNL     1       5.983   4.489  14.935  0.00  0.00    +0.000 A 
ATOM     24  F   UNL     1       6.716   4.138  13.868  0.00  0.00    +0.000 F 
ATOM     25  C   UNL     1       5.522   3.507  15.802  0.00  0.00    +0.000 A 
ATOM     26  C   UNL     1       4.748   3.871  16.904  0.00  0.00    +0.000 A 
ENDBRANCH  16  20
ENDBRANCH   9  14
BRANCH   1  27
ATOM     27  C   UNL     1       1.793  15.662  19.083  0.00  0.00    +0.000 C 
BRANCH  27  32
ATOM     28  C   UNL     1       6.644  15.241  18.194  0.00  0.00    +0.000 C 
ATOM     29  C   UNL     1       5.334  15.344  18.867  0.00  0.00    +0.000 A 
ATOM     30  N   UNL     1       5.203  15.293  20.199  0.00  0.00    +0.000 NA
ATOM     31  O   UNL     1       3.827  15.427  20.390  0.00  0.00    +0.000 OA
ATOM     32  C   UNL     1       3.274  15.544  19.148  0.00  0.00    +0.000 A 
ATOM     33  N   UNL     1       4.158  15.493  18.176  0.00  0.00    +0.000 NA
ENDBRANCH  27  32
ENDBRANCH   1  27
TORSDOF 4
ENDMDL
MODEL 3
REMARK VINA RESULT:      -8.1      4.941      7.279
REMARK  Name = 
REMARK  5 active torsions:
REMARK  status: ('A' for Active; 'I' for Inactive)
REMARK    1  A    between atoms: C_1  and  C_2
REMARK    2  A    between atoms: C_5  and  C_6
REMARK    3  A    between atoms: C_6  and  C_7
REMARK    4  A    between atoms: C_15  and  C_17
REMARK    5  A    between atoms: C_19  and  C_20
REMARK                            x       y       z     vdW  Elec       q    Type
REMARK                         _______ _______ _______ _____ _____    ______ ____
ROOT
ATOM      1  C   UNL     1       0.266  12.382  19.787  0.00  0.00    +0.000 C 
ATOM      2  C   UNL     1      -1.045  12.032  19.067  0.00  0.00    +0.000 C 
ATOM      3  C   UNL     1      -1.189  10.526  18.928  0.00  0.00    +0.000 C 
ATOM      4  O   UNL     1      -0.064   9.958  18.270  0.00  0.00    +0.000 OA
ATOM      5  C   UNL     1       1.213  10.199  18.884  0.00  0.00    +0.000 C 
ATOM      6  C   UNL     1       1.348   9.493  20.254  0.00  0.00    +0.000 C 
ATOM      7  C   UNL     1       1.221   7.980  20.134  0.00  0.00    +0.000 C 
ATOM      8  N   UNL     1       2.189   7.470  19.173  0.00  0.00    +0.000 N 
ATOM      9  C   UNL     1       2.891   6.309  19.499  0.00  0.00    +0.000 C 
ATOM     10  O   UNL     1       2.661   5.691  20.538  0.00  0.00    +0.000 OA
ATOM     11  C   UNL     1       2.053   8.062  17.839  0.00  0.00    +0.000 C 
ATOM     12  C   UNL     1       2.245   9.581  17.916  0.00  0.00    +0.000 C 
ATOM     13  C   UNL     1       1.431  11.722  19.022  0.00  0.00    +0.000 C 
ENDROOT
BRANCH   9  14
ATOM     14  C   UNL     1       3.901   5.824  18.598  0.00  0.00    +0.000 A 
ATOM     15  C   UNL     1       4.185   6.059  17.271  0.00  0.00    +0.000 A 
ATOM     16  C   UNL     1       5.220   5.155  16.927  0.00  0.00    +0.000 A 
ATOM     17  N   UNL     1       5.658   4.503  18.014  0.00  0.00    +0.000 NA
ATOM     18  N   UNL     1       4.904   4.992  19.014  0.00  0.00    +0.000 N 
ATOM     19  H   UNL     1       5.080   4.681  19.965  0.00  0.00    +0.000 HD
BRANCH  16  20
ATOM     20  C   UNL     1       5.720   4.878  15.581  0.00  0.00    +0.000 A 
ATOM     21  C   UNL     1       4.960   4.106  14.686  0.00  0.00    +0.000 A 
ATOM     22  C   UNL     1       5.473   3.768  13.432  0.00  0.00    +0.000 A 
ATOM     23  C   UNL     1       6.743   4.203  13.076  0.00  0.00    +0.000 A 
ATOM     24  F   UNL     1       7.240   3.862  11.878  0.00  0.00    +0.000 F 
ATOM     25  C   UNL     1       7.508   4.973  13.941  0.00  0.00    +0.000 A 
ATOM     26  C   UNL     1       6.996   5.316  15.193  0.00  0.00    +0.000 A 
ENDBRANCH  16  20
ENDBRANCH   9  14
BRANCH   1  27
ATOM     27  C   UNL     1       0.467  13.898  19.939  0.00  0.00    +0.000 C 
BRANCH  27  32
ATOM     28  C   UNL     1       5.160  15.080  20.976  0.00  0.00    +0.000 C 
ATOM     29  C   UNL     1       3.742  14.690  21.096  0.00  0.00    +0.000 A 
ATOM     30  N   UNL     1       3.166  14.416  22.274  0.00  0.00    +0.000 NA
ATOM     31  O   UNL     1       1.852  14.104  21.924  0.00  0.00    +0.000 OA
ATOM     32  C   UNL     1       1.776  14.221  20.567  0.00  0.00    +0.000 A 
ATOM     33  N   UNL     1       2.913  14.574  20.008  0.00  0.00    +0.000 NA
ENDBRANCH  27  32
ENDBRANCH   1  27
TORSDOF 4
ENDMDL
MODEL 4
REMARK VINA RESULT:      -8.1      1.988      2.536
REMARK  Name = 
REMARK  5 active torsions:
REMARK  status: ('A' for Active; 'I' for Inactive)
REMARK    1  A    between atoms: C_1  and  C_2
REMARK    2  A    between atoms: C_5  and  C_6
REMARK    3  A    between atoms: C_6  and  C_7
REMARK    4  A    between atoms: C_15  and  C_17
REMARK    5  A    between atoms: C_19  and  C_20
REMARK                            x       y       z     vdW  Elec       q    Type
REMARK                         _______ _______ _______ _____ _____    ______ ____
ROOT
ATOM      1  C   UNL     1      -2.514  14.021  21.588  0.00  0.00    +0.000 C 
ATOM      2  C   UNL     1      -1.456  14.790  22.391  0.00  0.00    +0.000 C 
ATOM      3  C   UNL     1      -0.059  14.426  21.916  0.00  0.00    +0.000 C 
ATOM      4  O   UNL     1       0.157  13.022  21.977  0.00  0.00    +0.000 OA
ATOM      5  C   UNL     1      -0.762  12.209  21.228  0.00  0.00    +0.000 C 
ATOM      6  C   UNL     1      -0.618  12.415  19.702  0.00  0.00    +0.000 C 
ATOM      7  C   UNL     1       0.772  12.040  19.203  0.00  0.00    +0.000 C 
ATOM      8  N   UNL     1       1.093  10.674  19.591  0.00  0.00    +0.000 N 
ATOM      9  C   UNL     1       1.703   9.848  18.646  0.00  0.00    +0.000 C 
ATOM     10  O   UNL     1       2.022  10.271  17.535  0.00  0.00    +0.000 OA
ATOM     11  C   UNL     1       1.036  10.451  21.039  0.00  0.00    +0.000 C 
ATOM     12  C   UNL     1      -0.373  10.753  21.561  0.00  0.00    +0.000 C 
ATOM     13  C   UNL     1      -2.204  12.514  21.694  0.00  0.00    +0.000 C 
ENDROOT
BRANCH   9  14
ATOM     14  C   UNL     1       1.968   8.476  18.983  0.00  0.00    +0.000 A 
ATOM     15  C   UNL     1       2.622   7.447  18.342  0.00  0.00    +0.000 A 
ATOM     16  C   UNL     1       2.406   6.292  19.134  0.00  0.00    +0.000 A 
ATOM     17  N   UNL     1       1.784   6.614  20.277  0.00  0.00    +0.000 NA
ATOM     18  N   UNL     1       1.615   7.945  20.194  0.00  0.00    +0.000 N 
ATOM     19  H   UNL     1       1.198   8.442  20.976  0.00  0.00    +0.000 HD
BRANCH  16  20
ATOM     20  C   UNL     1       2.725   4.914  18.765  0.00  0.00    +0.000 A 
ATOM     21  C   UNL     1       1.717   3.936  18.733  0.00  0.00    +0.000 A 
ATOM     22  C   UNL     1       2.034   2.602  18.466  0.00  0.00    +0.000 A 
ATOM     23  C   UNL     1       3.356   2.251  18.232  0.00  0.00    +0.000 A 
ATOM     24  F   UNL     1       3.660   0.966  17.993  0.00  0.00    +0.000 F 
ATOM     25  C   UNL     1       4.368   3.201  18.251  0.00  0.00    +0.000 A 
ATOM     26  C   UNL     1       4.053   4.535  18.513  0.00  0.00    +0.000 A 
ENDBRANCH  16  20
ENDBRANCH   9  14
BRANCH   1  27
ATOM     27  C   UNL     1      -3.947  14.343  22.042  0.00  0.00    +0.000 C 
BRANCH  27  32
ATOM     28  C   UNL     1      -7.120  11.809  19.213  0.00  0.00    +0.000 C 
ATOM     29  C   UNL     1      -6.309  12.281  20.352  0.00  0.00    +0.000 A 
ATOM     30  N   UNL     1      -6.381  11.724  21.568  0.00  0.00    +0.000 NA
ATOM     31  O   UNL     1      -5.464  12.466  22.314  0.00  0.00    +0.000 OA
ATOM     32  C   UNL     1      -4.936  13.394  21.465  0.00  0.00    +0.000 A 
ATOM     33  N   UNL     1      -5.426  13.327  20.247  0.00  0.00    +0.000 NA
ENDBRANCH  27  32
ENDBRANCH   1  27
TORSDOF 4
ENDMDL
MODEL 5
REMARK VINA RESULT:      -8.0      5.101      7.404
REMARK  Name = 
REMARK  5 active torsions:
REMARK  status: ('A' for Active; 'I' for Inactive)
REMARK    1  A    between atoms: C_1  and  C_2
REMARK    2  A    between atoms: C_5  and  C_6
REMARK    3  A    between atoms: C_6  and  C_7
REMARK    4  A    between atoms: C_15  and  C_17
REMARK    5  A    between atoms: C_19  and  C_20
REMARK                            x       y       z     vdW  Elec       q    Type
REMARK                         _______ _______ _______ _____ _____    ______ ____
ROOT
ATOM      1  C   UNL     1       0.587  12.473  19.465  0.00  0.00    +0.000 C 
ATOM      2  C   UNL     1      -0.788  12.175  18.850  0.00  0.00    +0.000 C 
ATOM      3  C   UNL     1      -1.077  10.684  18.890  0.00  0.00    +0.000 C 
ATOM      4  O   UNL     1      -0.047   9.941  18.250  0.00  0.00    +0.000 OA
ATOM      5  C   UNL     1       1.279  10.122  18.773  0.00  0.00    +0.000 C 
ATOM      6  C   UNL     1       1.426   9.561  20.207  0.00  0.00    +0.000 C 
ATOM      7  C   UNL     1       1.154   8.062  20.265  0.00  0.00    +0.000 C 
ATOM      8  N   UNL     1       2.016   7.360  19.325  0.00  0.00    +0.000 N 
ATOM      9  C   UNL     1       2.627   6.179  19.749  0.00  0.00    +0.000 C 
ATOM     10  O   UNL     1       2.400   5.703  20.861  0.00  0.00    +0.000 OA
ATOM     11  C   UNL     1       1.861   7.814  17.940  0.00  0.00    +0.000 C 
ATOM     12  C   UNL     1       2.195   9.306  17.836  0.00  0.00    +0.000 C 
ATOM     13  C   UNL     1       1.642  11.624  18.727  0.00  0.00    +0.000 C 
ENDROOT
BRANCH   9  14
ATOM     14  C   UNL     1       3.535   5.503  18.863  0.00  0.00    +0.000 A 
ATOM     15  C   UNL     1       4.318   5.913  17.807  0.00  0.00    +0.000 A 
ATOM     16  C   UNL     1       4.871   4.734  17.249  0.00  0.00    +0.000 A 
ATOM     17  N   UNL     1       4.572   3.669  18.005  0.00  0.00    +0.000 NA
ATOM     18  N   UNL     1       3.842   4.178  19.014  0.00  0.00    +0.000 N 
ATOM     19  H   UNL     1       3.529   3.563  19.759  0.00  0.00    +0.000 HD
BRANCH  16  20
ATOM     20  C   UNL     1       5.603   4.631  15.988  0.00  0.00    +0.000 A 
ATOM     21  C   UNL     1       6.846   5.269  15.834  0.00  0.00    +0.000 A 
ATOM     22  C   UNL     1       7.506   5.243  14.603  0.00  0.00    +0.000 A 
ATOM     23  C   UNL     1       6.922   4.582  13.531  0.00  0.00    +0.000 A 
ATOM     24  F   UNL     1       7.550   4.575  12.346  0.00  0.00    +0.000 F 
ATOM     25  C   UNL     1       5.699   3.939  13.662  0.00  0.00    +0.000 A 
ATOM     26  C   UNL     1       5.040   3.959  14.892  0.00  0.00    +0.000 A 
ENDBRANCH  16  20
ENDBRANCH   9  14
BRANCH   1  27
ATOM     27  C   UNL     1       0.934  13.970  19.435  0.00  0.00    +0.000 C 
BRANCH  27  32
ATOM     28  C   UNL     1       5.307  15.549  21.132  0.00  0.00    +0.000 C 
ATOM     29  C   UNL     1       4.005  14.867  21.002  0.00  0.00    +0.000 A 
ATOM     30  N   UNL     1       3.534  14.029  21.934  0.00  0.00    +0.000 NA
ATOM     31  O   UNL     1       2.304  13.627  21.411  0.00  0.00    +0.000 OA
ATOM     32  C   UNL     1       2.165  14.267  20.215  0.00  0.00    +0.000 A 
ATOM     33  N   UNL     1       3.187  15.038  19.913  0.00  0.00    +0.000 NA
ENDBRANCH  27  32
ENDBRANCH   1  27
TORSDOF 4
ENDMDL
MODEL 6
REMARK VINA RESULT:      -8.0      4.305     11.076
REMARK  Name = 
REMARK  5 active torsions:
REMARK  status: ('A' for Active; 'I' for Inactive)
REMARK    1  A    between atoms: C_1  and  C_2
REMARK    2  A    between atoms: C_5  and  C_6
REMARK    3  A    between atoms: C_6  and  C_7
REMARK    4  A    between atoms: C_15  and  C_17
REMARK    5  A    between atoms: C_19  and  C_20
REMARK                            x       y       z     vdW  Elec       q    Type
REMARK                         _______ _______ _______ _____ _____    ______ ____
ROOT
ATOM      1  C   UNL     1       4.272   5.500  17.661  0.00  0.00    +0.000 C 
ATOM      2  C   UNL     1       3.235   4.380  17.825  0.00  0.00    +0.000 C 
ATOM      3  C   UNL     1       1.832   4.961  17.899  0.00  0.00    +0.000 C 
ATOM      4  O   UNL     1       1.727   5.926  18.938  0.00  0.00    +0.000 OA
ATOM      5  C   UNL     1       2.635   7.038  18.859  0.00  0.00    +0.000 C 
ATOM      6  C   UNL     1       2.341   7.950  17.645  0.00  0.00    +0.000 C 
ATOM      7  C   UNL     1       0.944   8.555  17.709  0.00  0.00    +0.000 C 
ATOM      8  N   UNL     1       0.761   9.264  18.967  0.00  0.00    +0.000 N 
ATOM      9  C   UNL     1       0.133  10.510  18.935  0.00  0.00    +0.000 C 
ATOM     10  O   UNL     1      -0.314  10.976  17.887  0.00  0.00    +0.000 OA
ATOM     11  C   UNL     1       0.964   8.419  20.148  0.00  0.00    +0.000 C 
ATOM     12  C   UNL     1       2.387   7.850  20.148  0.00  0.00    +0.000 C 
ATOM     13  C   UNL     1       4.086   6.507  18.814  0.00  0.00    +0.000 C 
ENDROOT
BRANCH   9  14
ATOM     14  C   UNL     1       0.002  11.260  20.155  0.00  0.00    +0.000 A 
ATOM     15  C   UNL     1      -1.036  11.476  21.033  0.00  0.00    +0.000 A 
ATOM     16  C   UNL     1      -0.569  12.436  21.963  0.00  0.00    +0.000 A 
ATOM     17  N   UNL     1       0.733  12.689  21.767  0.00  0.00    +0.000 NA
ATOM     18  N   UNL     1       1.066  11.901  20.729  0.00  0.00    +0.000 N 
ATOM     19  H   UNL     1       2.031  11.878  20.413  0.00  0.00    +0.000 HD
BRANCH  16  20
ATOM     20  C   UNL     1      -1.371  13.139  22.963  0.00  0.00    +0.000 A 
ATOM     21  C   UNL     1      -2.653  12.671  23.302  0.00  0.00    +0.000 A 
ATOM     22  C   UNL     1      -3.454  13.390  24.193  0.00  0.00    +0.000 A 
ATOM     23  C   UNL     1      -2.974  14.571  24.739  0.00  0.00    +0.000 A 
ATOM     24  F   UNL     1      -3.754  15.268  25.580  0.00  0.00    +0.000 F 
ATOM     25  C   UNL     1      -1.709  15.049  24.424  0.00  0.00    +0.000 A 
ATOM     26  C   UNL     1      -0.904  14.331  23.539  0.00  0.00    +0.000 A 
ENDBRANCH  16  20
ENDBRANCH   9  14
BRANCH   1  27
ATOM     27  C   UNL     1       5.711   4.964  17.596  0.00  0.00    +0.000 C 
BRANCH  27  32
ATOM     28  C   UNL     1       6.531   3.784  12.860  0.00  0.00    +0.000 C 
ATOM     29  C   UNL     1       6.624   4.395  14.200  0.00  0.00    +0.000 A 
ATOM     30  N   UNL     1       7.569   5.287  14.522  0.00  0.00    +0.000 NA
ATOM     31  O   UNL     1       7.284   5.590  15.854  0.00  0.00    +0.000 OA
ATOM     32  C   UNL     1       6.194   4.845  16.194  0.00  0.00    +0.000 A 
ATOM     33  N   UNL     1       5.751   4.087  15.214  0.00  0.00    +0.000 NA
ENDBRANCH  27  32
ENDBRANCH   1  27
TORSDOF 4
ENDMDL
MODEL 7
REMARK VINA RESULT:      -7.9      4.737      6.980
REMARK  Name = 
REMARK  5 active torsions:
REMARK  status: ('A' for Active; 'I' for Inactive)
REMARK    1  A    between atoms: C_1  and  C_2
REMARK    2  A    between atoms: C_5  and  C_6
REMARK    3  A    between atoms: C_6  and  C_7
REMARK    4  A    between atoms: C_15  and  C_17
REMARK    5  A    between atoms: C_19  and  C_20
REMARK                            x       y       z     vdW  Elec       q    Type
REMARK                         _______ _______ _______ _____ _____    ______ ____
ROOT
ATOM      1  C   UNL     1       0.987  13.782  19.857  0.00  0.00    +0.000 C 
ATOM      2  C   UNL     1      -0.389  13.779  19.177  0.00  0.00    +0.000 C 
ATOM      3  C   UNL     1      -0.973  12.376  19.164  0.00  0.00    +0.000 C 
ATOM      4  O   UNL     1      -0.085  11.452  18.549  0.00  0.00    +0.000 OA
ATOM      5  C   UNL     1       1.224  11.352  19.133  0.00  0.00    +0.000 C 
ATOM      6  C   UNL     1       1.187  10.747  20.556  0.00  0.00    +0.000 C 
ATOM      7  C   UNL     1       0.618   9.334  20.563  0.00  0.00    +0.000 C 
ATOM      8  N   UNL     1       1.364   8.489  19.642  0.00  0.00    +0.000 N 
ATOM      9  C   UNL     1       1.704   7.201  20.059  0.00  0.00    +0.000 C 
ATOM     10  O   UNL     1       1.334   6.761  21.147  0.00  0.00    +0.000 OA
ATOM     11  C   UNL     1       1.368   8.989  18.264  0.00  0.00    +0.000 C 
ATOM     12  C   UNL     1       2.000  10.385  18.214  0.00  0.00    +0.000 C 
ATOM     13  C   UNL     1       1.884  12.750  19.143  0.00  0.00    +0.000 C 
ENDROOT
BRANCH   9  14
ATOM     14  C   UNL     1       2.499   6.371  19.195  0.00  0.00    +0.000 A 
ATOM     15  C   UNL     1       3.744   6.508  18.625  0.00  0.00    +0.000 A 
ATOM     16  C   UNL     1       3.898   5.405  17.750  0.00  0.00    +0.000 A 
ATOM     17  N   UNL     1       2.872   4.551  17.883  0.00  0.00    +0.000 NA
ATOM     18  N   UNL     1       2.095   5.118  18.822  0.00  0.00    +0.000 N 
ATOM     19  H   UNL     1       1.262   4.630  19.137  0.00  0.00    +0.000 HD
BRANCH  16  20
ATOM     20  C   UNL     1       4.963   5.217  16.766  0.00  0.00    +0.000 A 
ATOM     21  C   UNL     1       6.109   6.030  16.798  0.00  0.00    +0.000 A 
ATOM     22  C   UNL     1       7.088   5.910  15.808  0.00  0.00    +0.000 A 
ATOM     23  C   UNL     1       6.918   4.980  14.792  0.00  0.00    +0.000 A 
ATOM     24  F   UNL     1       7.850   4.880  13.833  0.00  0.00    +0.000 F 
ATOM     25  C   UNL     1       5.797   4.162  14.744  0.00  0.00    +0.000 A 
ATOM     26  C   UNL     1       4.820   4.276  15.734  0.00  0.00    +0.000 A 
ENDBRANCH  16  20
ENDBRANCH   9  14
BRANCH   1  27
ATOM     27  C   UNL     1       1.629  15.178  19.882  0.00  0.00    +0.000 C 
BRANCH  27  32
ATOM     28  C   UNL     1       5.814  15.960  22.405  0.00  0.00    +0.000 C 
ATOM     29  C   UNL     1       4.454  15.535  22.023  0.00  0.00    +0.000 A 
ATOM     30  N   UNL     1       3.657  14.843  22.846  0.00  0.00    +0.000 NA
ATOM     31  O   UNL     1       2.497  14.662  22.092  0.00  0.00    +0.000 OA
ATOM     32  C   UNL     1       2.720  15.266  20.890  0.00  0.00    +0.000 A 
ATOM     33  N   UNL     1       3.912  15.814  20.793  0.00  0.00    +0.000 NA
ENDBRANCH  27  32
ENDBRANCH   1  27
TORSDOF 4
ENDMDL
MODEL 8
REMARK VINA RESULT:      -7.8      4.575      7.115
REMARK  Name = 
REMARK  5 active torsions:
REMARK  status: ('A' for Active; 'I' for Inactive)
REMARK    1  A    between atoms: C_1  and  C_2
REMARK    2  A    between atoms: C_5  and  C_6
REMARK    3  A    between atoms: C_6  and  C_7
REMARK    4  A    between atoms: C_15  and  C_17
REMARK    5  A    between atoms: C_19  and  C_20
REMARK                            x       y       z     vdW  Elec       q    Type
REMARK                         _______ _______ _______ _____ _____    ______ ____
ROOT
ATOM      1  C   UNL     1       1.197  14.967  19.107  0.00  0.00    +0.000 C 
ATOM      2  C   UNL     1      -0.235  14.936  18.552  0.00  0.00    +0.000 C 
ATOM      3  C   UNL     1      -0.933  13.648  18.953  0.00  0.00    +0.000 C 
ATOM      4  O   UNL     1      -0.189  12.508  18.543  0.00  0.00    +0.000 OA
ATOM      5  C   UNL     1       1.158  12.422  19.038  0.00  0.00    +0.000 C 
ATOM      6  C   UNL     1       1.208  12.210  20.569  0.00  0.00    +0.000 C 
ATOM      7  C   UNL     1       0.525  10.915  20.991  0.00  0.00    +0.000 C 
ATOM      8  N   UNL     1       1.105   9.787  20.276  0.00  0.00    +0.000 N 
ATOM      9  C   UNL     1       1.374   8.621  20.994  0.00  0.00    +0.000 C 
ATOM     10  O   UNL     1       1.076   8.518  22.184  0.00  0.00    +0.000 OA
ATOM     11  C   UNL     1       1.018   9.914  18.818  0.00  0.00    +0.000 C 
ATOM     12  C   UNL     1       1.757  11.174  18.355  0.00  0.00    +0.000 C 
ATOM     13  C   UNL     1       1.930  13.697  18.630  0.00  0.00    +0.000 C 
ENDROOT
BRANCH   9  14
ATOM     14  C   UNL     1       2.009   7.518  20.326  0.00  0.00    +0.000 A 
ATOM     15  C   UNL     1       2.939   7.423  19.315  0.00  0.00    +0.000 A 
ATOM     16  C   UNL     1       3.041   6.045  19.004  0.00  0.00    +0.000 A 
ATOM     17  N   UNL     1       2.331   5.312  19.874  0.00  0.00    +0.000 NA
ATOM     18  N   UNL     1       1.794   6.221  20.707  0.00  0.00    +0.000 N 
ATOM     19  H   UNL     1       1.239   5.903  21.496  0.00  0.00    +0.000 HD
BRANCH  16  20
ATOM     20  C   UNL     1       3.743   5.462  17.863  0.00  0.00    +0.000 A 
ATOM     21  C   UNL     1       3.762   4.069  17.677  0.00  0.00    +0.000 A 
ATOM     22  C   UNL     1       4.503   3.504  16.636  0.00  0.00    +0.000 A 
ATOM     23  C   UNL     1       5.223   4.333  15.787  0.00  0.00    +0.000 A 
ATOM     24  F   UNL     1       5.949   3.786  14.799  0.00  0.00    +0.000 F 
ATOM     25  C   UNL     1       5.213   5.712  15.946  0.00  0.00    +0.000 A 
ATOM     26  C   UNL     1       4.469   6.278  16.982  0.00  0.00    +0.000 A 
ENDBRANCH  16  20
ENDBRANCH   9  14
BRANCH   1  27
ATOM     27  C   UNL     1       1.953  16.246  18.715  0.00  0.00    +0.000 C 
BRANCH  27  32
ATOM     28  C   UNL     1       5.895  16.047  21.702  0.00  0.00    +0.000 C 
ATOM     29  C   UNL     1       5.010  16.280  20.544  0.00  0.00    +0.000 A 
ATOM     30  N   UNL     1       5.440  16.853  19.412  0.00  0.00    +0.000 NA
ATOM     31  O   UNL     1       4.298  16.872  18.610  0.00  0.00    +0.000 OA
ATOM     32  C   UNL     1       3.299  16.308  19.347  0.00  0.00    +0.000 A 
ATOM     33  N   UNL     1       3.683  15.931  20.547  0.00  0.00    +0.000 NA
ENDBRANCH  27  32
ENDBRANCH   1  27
TORSDOF 4
ENDMDL
MODEL 9
REMARK VINA RESULT:      -7.8      4.612      6.229
REMARK  Name = 
REMARK  5 active torsions:
REMARK  status: ('A' for Active; 'I' for Inactive)
REMARK    1  A    between atoms: C_1  and  C_2
REMARK    2  A    between atoms: C_5  and  C_6
REMARK    3  A    between atoms: C_6  and  C_7
REMARK    4  A    between atoms: C_15  and  C_17
REMARK    5  A    between atoms: C_19  and  C_20
REMARK                            x       y       z     vdW  Elec       q    Type
REMARK                         _______ _______ _______ _____ _____    ______ ____
ROOT
ATOM      1  C   UNL     1       0.738  13.857  19.407  0.00  0.00    +0.000 C 
ATOM      2  C   UNL     1      -0.698  13.730  18.879  0.00  0.00    +0.000 C 
ATOM      3  C   UNL     1      -1.215  12.315  19.078  0.00  0.00    +0.000 C 
ATOM      4  O   UNL     1      -0.352  11.360  18.475  0.00  0.00    +0.000 OA
ATOM      5  C   UNL     1       1.013  11.372  18.926  0.00  0.00    +0.000 C 
ATOM      6  C   UNL     1       1.148  10.928  20.402  0.00  0.00    +0.000 C 
ATOM      7  C   UNL     1       0.647   9.505  20.619  0.00  0.00    +0.000 C 
ATOM      8  N   UNL     1       1.336   8.589  19.721  0.00  0.00    +0.000 N 
ATOM      9  C   UNL     1       1.775   7.368  20.235  0.00  0.00    +0.000 C 
ATOM     10  O   UNL     1       1.537   7.039  21.397  0.00  0.00    +0.000 OA
ATOM     11  C   UNL     1       1.178   8.933  18.304  0.00  0.00    +0.000 C 
ATOM     12  C   UNL     1       1.737  10.335  18.040  0.00  0.00    +0.000 C 
ATOM     13  C   UNL     1       1.605  12.784  18.717  0.00  0.00    +0.000 C 
ENDROOT
BRANCH   9  14
ATOM     14  C   UNL     1       2.516   6.476  19.386  0.00  0.00    +0.000 A 
ATOM     15  C   UNL     1       3.643   6.618  18.607  0.00  0.00    +0.000 A 
ATOM     16  C   UNL     1       3.780   5.403  17.892  0.00  0.00    +0.000 A 
ATOM     17  N   UNL     1       2.881   4.503  18.315  0.00  0.00    +0.000 NA
ATOM     18  N   UNL     1       2.195   5.150  19.273  0.00  0.00    +0.000 N 
ATOM     19  H   UNL     1       1.474   4.654  19.788  0.00  0.00    +0.000 HD
BRANCH  16  20
ATOM     20  C   UNL     1       4.702   5.144  16.788  0.00  0.00    +0.000 A 
ATOM     21  C   UNL     1       5.089   6.186  15.927  0.00  0.00    +0.000 A 
ATOM     22  C   UNL     1       5.901   5.924  14.821  0.00  0.00    +0.000 A 
ATOM     23  C   UNL     1       6.323   4.624  14.579  0.00  0.00    +0.000 A 
ATOM     24  F   UNL     1       7.087   4.373  13.506  0.00  0.00    +0.000 F 
ATOM     25  C   UNL     1       5.959   3.581  15.420  0.00  0.00    +0.000 A 
ATOM     26  C   UNL     1       5.152   3.840  16.528  0.00  0.00    +0.000 A 
ENDBRANCH  16  20
ENDBRANCH   9  14
BRANCH   1  27
ATOM     27  C   UNL     1       1.315  15.268  19.215  0.00  0.00    +0.000 C 
BRANCH  27  32
ATOM     28  C   UNL     1      -2.118  18.631  18.030  0.00  0.00    +0.000 C 
ATOM     29  C   UNL     1      -1.202  17.751  18.782  0.00  0.00    +0.000 A 
ATOM     30  N   UNL     1      -1.123  17.768  20.119  0.00  0.00    +0.000 NA
ATOM     31  O   UNL     1      -0.156  16.800  20.394  0.00  0.00    +0.000 OA
ATOM     32  C   UNL     1       0.246  16.303  19.190  0.00  0.00    +0.000 A 
ATOM     33  N   UNL     1      -0.363  16.859  18.165  0.00  0.00    +0.000 NA
ENDBRANCH  27  32
ENDBRANCH   1  27
TORSDOF 4
ENDMDL
