MODEL 1
REMARK VINA RESULT:      -7.3      0.000      0.000
REMARK  Name = 
REMARK  8 active torsions:
REMARK  status: ('A' for Active; 'I' for Inactive)
REMARK    1  A    between atoms: C_1  and  O_2
REMARK    2  A    between atoms: O_2  and  C_3
REMARK    3  A    between atoms: C_6  and  C_7
REMARK    4  A    between atoms: C_12  and  O_13
REMARK    5  A    between atoms: C_19  and  O_20
REMARK    6  A    between atoms: O_20  and  C_21
REMARK    7  A    between atoms: C_22  and  O_23
REMARK    8  A    between atoms: O_23  and  C_24
REMARK                            x       y       z     vdW  Elec       q    Type
REMARK                         _______ _______ _______ _____ _____    ______ ____
ROOT
ATOM      1  C   UNL     1       3.190   3.909  18.773  0.00  0.00    +0.000 C 
ATOM      2  C   UNL     1       4.472   3.347  19.404  0.00  0.00    +0.000 C 
ATOM      3  O   UNL     1       5.657   4.009  18.900  0.00  0.00    +0.000 OA
ATOM      4  C   UNL     1       5.672   4.194  17.542  0.00  0.00    +0.000 A 
ATOM      5  C   UNL     1       6.788   4.838  17.007  0.00  0.00    +0.000 A 
ATOM      6  C   UNL     1       6.850   5.063  15.637  0.00  0.00    +0.000 A 
ATOM      7  C   UNL     1       5.868   4.586  14.780  0.00  0.00    +0.000 A 
ATOM      8  C   UNL     1       4.731   3.968  15.311  0.00  0.00    +0.000 A 
ATOM      9  C   UNL     1       4.624   3.828  16.697  0.00  0.00    +0.000 A 
ATOM     10  C   UNL     1       3.352   3.430  17.330  0.00  0.00    +0.000 C 
ATOM     11  O   UNL     1       2.527   2.764  16.716  0.00  0.00    +0.000 OA
ENDROOT
BRANCH   1  15
ATOM     12  C   UNL     1       2.256   8.147  18.923  0.00  0.00    +0.000 A 
ATOM     13  C   UNL     1       2.974   7.645  17.846  0.00  0.00    +0.000 A 
ATOM     14  C   UNL     1       3.330   6.297  17.813  0.00  0.00    +0.000 A 
ATOM     15  C   UNL     1       3.035   5.440  18.893  0.00  0.00    +0.000 A 
ATOM     16  C   UNL     1       2.462   5.997  20.053  0.00  0.00    +0.000 A 
ATOM     17  C   UNL     1       1.913   7.285  19.976  0.00  0.00    +0.000 A 
BRANCH  12  19
ATOM     18  C   UNL     1       0.658   9.622  18.014  0.00  0.00    +0.000 C 
ATOM     19  O   UNL     1       1.843   9.448  18.791  0.00  0.00    +0.000 OA
ENDBRANCH  12  19
BRANCH  16  20
ATOM     20  O   UNL     1       2.453   5.166  21.134  0.00  0.00    +0.000 OA
ATOM     21  C   UNL     1       1.488   4.130  21.220  0.00  0.00    +0.000 C 
ENDBRANCH  16  20
BRANCH  17  22
ATOM     22  O   UNL     1       0.886   7.633  20.826  0.00  0.00    +0.000 OA
ATOM     23  C   UNL     1       1.386   8.584  21.785  0.00  0.00    +0.000 C 
ENDBRANCH  17  22
ENDBRANCH   1  15
BRANCH   6  24
ATOM     24  O   UNL     1       7.866   5.796  15.096  0.00  0.00    +0.000 OA
ATOM     25  H   UNL     1       8.618   5.757  15.712  0.00  0.00    +0.000 HD
ENDBRANCH   6  24
TORSDOF 5
ENDMDL
MODEL 2
REMARK VINA RESULT:      -7.0      2.151      3.503
REMARK  Name = 
REMARK  8 active torsions:
REMARK  status: ('A' for Active; 'I' for Inactive)
REMARK    1  A    between atoms: C_1  and  O_2
REMARK    2  A    between atoms: O_2  and  C_3
REMARK    3  A    between atoms: C_6  and  C_7
REMARK    4  A    between atoms: C_12  and  O_13
REMARK    5  A    between atoms: C_19  and  O_20
REMARK    6  A    between atoms: O_20  and  C_21
REMARK    7  A    between atoms: C_22  and  O_23
REMARK    8  A    between atoms: O_23  and  C_24
REMARK                            x       y       z     vdW  Elec       q    Type
REMARK                         _______ _______ _______ _____ _____    ______ ____
ROOT
ATOM      1  C   UNL     1       4.884   4.555  16.949  0.00  0.00    +0.000 C 
ATOM      2  C   UNL     1       6.135   3.727  17.279  0.00  0.00    +0.000 C 
ATOM      3  O   UNL     1       7.010   4.416  18.205  0.00  0.00    +0.000 OA
ATOM      4  C   UNL     1       7.209   5.742  17.922  0.00  0.00    +0.000 A 
ATOM      5  C   UNL     1       8.036   6.454  18.792  0.00  0.00    +0.000 A 
ATOM      6  C   UNL     1       8.262   7.806  18.559  0.00  0.00    +0.000 A 
ATOM      7  C   UNL     1       7.754   8.442  17.435  0.00  0.00    +0.000 A 
ATOM      8  C   UNL     1       6.899   7.744  16.576  0.00  0.00    +0.000 A 
ATOM      9  C   UNL     1       6.594   6.411  16.863  0.00  0.00    +0.000 A 
ATOM     10  C   UNL     1       5.508   5.705  16.157  0.00  0.00    +0.000 C 
ATOM     11  O   UNL     1       5.171   6.041  15.028  0.00  0.00    +0.000 OA
ENDROOT
BRANCH   1  15
ATOM     12  C   UNL     1       2.200   5.842  20.110  0.00  0.00    +0.000 A 
ATOM     13  C   UNL     1       2.900   6.794  19.382  0.00  0.00    +0.000 A 
ATOM     14  C   UNL     1       3.809   6.392  18.403  0.00  0.00    +0.000 A 
ATOM     15  C   UNL     1       4.086   5.027  18.183  0.00  0.00    +0.000 A 
ATOM     16  C   UNL     1       3.501   4.078  19.044  0.00  0.00    +0.000 A 
ATOM     17  C   UNL     1       2.433   4.481  19.858  0.00  0.00    +0.000 A 
BRANCH  12  19
ATOM     18  C   UNL     1       1.200   7.768  21.028  0.00  0.00    +0.000 C 
ATOM     19  O   UNL     1       1.239   6.343  20.950  0.00  0.00    +0.000 OA
ENDBRANCH  12  19
BRANCH  16  20
ATOM     20  O   UNL     1       4.020   2.821  18.934  0.00  0.00    +0.000 OA
ATOM     21  C   UNL     1       3.261   1.795  18.317  0.00  0.00    +0.000 C 
ENDBRANCH  16  20
BRANCH  17  22
ATOM     22  O   UNL     1       1.495   3.551  20.249  0.00  0.00    +0.000 OA
ATOM     23  C   UNL     1       1.844   3.071  21.561  0.00  0.00    +0.000 C 
ENDBRANCH  17  22
ENDBRANCH   1  15
BRANCH   6  24
ATOM     24  O   UNL     1       8.964   8.559  19.455  0.00  0.00    +0.000 OA
ATOM     25  H   UNL     1       9.911   8.413  19.286  0.00  0.00    +0.000 HD
ENDBRANCH   6  24
TORSDOF 5
ENDMDL
MODEL 3
REMARK VINA RESULT:      -7.0      2.289      6.383
REMARK  Name = 
REMARK  8 active torsions:
REMARK  status: ('A' for Active; 'I' for Inactive)
REMARK    1  A    between atoms: C_1  and  O_2
REMARK    2  A    between atoms: O_2  and  C_3
REMARK    3  A    between atoms: C_6  and  C_7
REMARK    4  A    between atoms: C_12  and  O_13
REMARK    5  A    between atoms: C_19  and  O_20
REMARK    6  A    between atoms: O_20  and  C_21
REMARK    7  A    between atoms: C_22  and  O_23
REMARK    8  A    between atoms: O_23  and  C_24
REMARK                            x       y       z     vdW  Elec       q    Type
REMARK                         _______ _______ _______ _____ _____    ______ ____
ROOT
ATOM      1  C   UNL     1       5.158   6.197  17.864  0.00  0.00    +0.000 C 
ATOM      2  C   UNL     1       5.528   5.647  19.249  0.00  0.00    +0.000 C 
ATOM      3  O   UNL     1       5.066   4.286  19.431  0.00  0.00    +0.000 OA
ATOM      4  C   UNL     1       3.784   4.058  19.003  0.00  0.00    +0.000 A 
ATOM      5  C   UNL     1       3.295   2.759  19.145  0.00  0.00    +0.000 A 
ATOM      6  C   UNL     1       2.005   2.468  18.715  0.00  0.00    +0.000 A 
ATOM      7  C   UNL     1       1.165   3.459  18.228  0.00  0.00    +0.000 A 
ATOM      8  C   UNL     1       1.658   4.756  18.052  0.00  0.00    +0.000 A 
ATOM      9  C   UNL     1       2.985   5.026  18.394  0.00  0.00    +0.000 A 
ATOM     10  C   UNL     1       3.637   6.287  17.994  0.00  0.00    +0.000 C 
ATOM     11  O   UNL     1       2.976   7.301  17.800  0.00  0.00    +0.000 OA
ENDROOT
BRANCH   1  15
ATOM     12  C   UNL     1       6.311   4.135  14.222  0.00  0.00    +0.000 A 
ATOM     13  C   UNL     1       5.077   3.863  14.797  0.00  0.00    +0.000 A 
ATOM     14  C   UNL     1       4.718   4.475  15.997  0.00  0.00    +0.000 A 
ATOM     15  C   UNL     1       5.618   5.318  16.683  0.00  0.00    +0.000 A 
ATOM     16  C   UNL     1       6.927   5.448  16.181  0.00  0.00    +0.000 A 
ATOM     17  C   UNL     1       7.189   5.015  14.873  0.00  0.00    +0.000 A 
BRANCH  12  19
ATOM     18  C   UNL     1       5.309   3.259  12.277  0.00  0.00    +0.000 C 
ATOM     19  O   UNL     1       6.508   3.586  12.980  0.00  0.00    +0.000 OA
ENDBRANCH  12  19
BRANCH  16  20
ATOM     20  O   UNL     1       7.800   6.058  17.032  0.00  0.00    +0.000 OA
ATOM     21  C   UNL     1       7.771   7.468  17.182  0.00  0.00    +0.000 C 
ENDBRANCH  16  20
BRANCH  17  22
ATOM     22  O   UNL     1       8.206   5.608  14.157  0.00  0.00    +0.000 OA
ATOM     23  C   UNL     1       7.845   5.608  12.763  0.00  0.00    +0.000 C 
ENDBRANCH  17  22
ENDBRANCH   1  15
BRANCH   6  24
ATOM     24  O   UNL     1       1.540   1.185  18.728  0.00  0.00    +0.000 OA
ATOM     25  H   UNL     1       0.686   1.185  19.194  0.00  0.00    +0.000 HD
ENDBRANCH   6  24
TORSDOF 5
ENDMDL
MODEL 4
REMARK VINA RESULT:      -6.6      1.420      2.301
REMARK  Name = 
REMARK  8 active torsions:
REMARK  status: ('A' for Active; 'I' for Inactive)
REMARK    1  A    between atoms: C_1  and  O_2
REMARK    2  A    between atoms: O_2  and  C_3
REMARK    3  A    between atoms: C_6  and  C_7
REMARK    4  A    between atoms: C_12  and  O_13
REMARK    5  A    between atoms: C_19  and  O_20
REMARK    6  A    between atoms: O_20  and  C_21
REMARK    7  A    between atoms: C_22  and  O_23
REMARK    8  A    between atoms: O_23  and  C_24
REMARK                            x       y       z     vdW  Elec       q    Type
REMARK                         _______ _______ _______ _____ _____    ______ ____
ROOT
ATOM      1  C   UNL     1       1.958   5.542  19.416  0.00  0.00    +0.000 C 
ATOM      2  C   UNL     1       2.911   5.015  20.499  0.00  0.00    +0.000 C 
ATOM      3  O   UNL     1       4.300   5.212  20.138  0.00  0.00    +0.000 OA
ATOM      4  C   UNL     1       4.604   4.888  18.842  0.00  0.00    +0.000 A 
ATOM      5  C   UNL     1       5.928   5.071  18.441  0.00  0.00    +0.000 A 
ATOM      6  C   UNL     1       6.289   4.769  17.133  0.00  0.00    +0.000 A 
ATOM      7  C   UNL     1       5.383   4.209  16.243  0.00  0.00    +0.000 A 
ATOM      8  C   UNL     1       4.047   4.052  16.627  0.00  0.00    +0.000 A 
ATOM      9  C   UNL     1       3.663   4.446  17.911  0.00  0.00    +0.000 A 
ATOM     10  C   UNL     1       2.240   4.551  18.286  0.00  0.00    +0.000 C 
ATOM     11  O   UNL     1       1.390   3.877  17.717  0.00  0.00    +0.000 OA
ENDROOT
BRANCH   1  15
ATOM     12  C   UNL     1       2.172   9.642  18.004  0.00  0.00    +0.000 A 
ATOM     13  C   UNL     1       2.903   8.658  17.353  0.00  0.00    +0.000 A 
ATOM     14  C   UNL     1       2.889   7.348  17.830  0.00  0.00    +0.000 A 
ATOM     15  C   UNL     1       2.198   7.012  19.013  0.00  0.00    +0.000 A 
ATOM     16  C   UNL     1       1.604   8.048  19.760  0.00  0.00    +0.000 A 
ATOM     17  C   UNL     1       1.439   9.301  19.152  0.00  0.00    +0.000 A 
BRANCH  12  19
ATOM     18  C   UNL     1       2.553  11.960  18.193  0.00  0.00    +0.000 C 
ATOM     19  O   UNL     1       2.148  10.861  17.376  0.00  0.00    +0.000 OA
ENDBRANCH  12  19
BRANCH  16  20
ATOM     20  O   UNL     1       1.192   7.681  21.006  0.00  0.00    +0.000 OA
ATOM     21  C   UNL     1       1.252   8.614  22.073  0.00  0.00    +0.000 C 
ENDBRANCH  16  20
BRANCH  17  22
ATOM     22  O   UNL     1       0.412  10.121  19.566  0.00  0.00    +0.000 OA
ATOM     23  C   UNL     1      -0.695   9.965  18.657  0.00  0.00    +0.000 C 
ENDBRANCH  17  22
ENDBRANCH   1  15
BRANCH   6  24
ATOM     24  O   UNL     1       7.543   5.051  16.674  0.00  0.00    +0.000 OA
ATOM     25  H   UNL     1       7.525   4.982  15.704  0.00  0.00    +0.000 HD
ENDBRANCH   6  24
TORSDOF 5
ENDMDL
MODEL 5
REMARK VINA RESULT:      -6.5      2.154      4.834
REMARK  Name = 
REMARK  8 active torsions:
REMARK  status: ('A' for Active; 'I' for Inactive)
REMARK    1  A    between atoms: C_1  and  O_2
REMARK    2  A    between atoms: O_2  and  C_3
REMARK    3  A    between atoms: C_6  and  C_7
REMARK    4  A    between atoms: C_12  and  O_13
REMARK    5  A    between atoms: C_19  and  O_20
REMARK    6  A    between atoms: O_20  and  C_21
REMARK    7  A    between atoms: C_22  and  O_23
REMARK    8  A    between atoms: O_23  and  C_24
REMARK                            x       y       z     vdW  Elec       q    Type
REMARK                         _______ _______ _______ _____ _____    ______ ____
ROOT
ATOM      1  C   UNL     1       2.139   5.545  19.012  0.00  0.00    +0.000 C 
ATOM      2  C   UNL     1       1.881   5.087  20.455  0.00  0.00    +0.000 C 
ATOM      3  O   UNL     1       2.837   4.087  20.884  0.00  0.00    +0.000 OA
ATOM      4  C   UNL     1       3.083   3.103  19.963  0.00  0.00    +0.000 A 
ATOM      5  C   UNL     1       4.006   2.120  20.322  0.00  0.00    +0.000 A 
ATOM      6  C   UNL     1       4.302   1.104  19.421  0.00  0.00    +0.000 A 
ATOM      7  C   UNL     1       3.638   0.998  18.207  0.00  0.00    +0.000 A 
ATOM      8  C   UNL     1       2.736   1.996  17.825  0.00  0.00    +0.000 A 
ATOM      9  C   UNL     1       2.510   3.069  18.691  0.00  0.00    +0.000 A 
ATOM     10  C   UNL     1       1.782   4.272  18.245  0.00  0.00    +0.000 C 
ATOM     11  O   UNL     1       0.963   4.208  17.336  0.00  0.00    +0.000 OA
ENDROOT
BRANCH   1  15
ATOM     12  C   UNL     1       6.233   6.501  17.928  0.00  0.00    +0.000 A 
ATOM     13  C   UNL     1       5.982   5.834  19.119  0.00  0.00    +0.000 A 
ATOM     14  C   UNL     1       4.669   5.571  19.507  0.00  0.00    +0.000 A 
ATOM     15  C   UNL     1       3.577   6.035  18.744  0.00  0.00    +0.000 A 
ATOM     16  C   UNL     1       3.840   6.859  17.632  0.00  0.00    +0.000 A 
ATOM     17  C   UNL     1       5.151   6.918  17.137  0.00  0.00    +0.000 A 
BRANCH  12  19
ATOM     18  C   UNL     1       8.166   7.848  17.860  0.00  0.00    +0.000 C 
ATOM     19  O   UNL     1       7.556   6.588  17.578  0.00  0.00    +0.000 OA
ENDBRANCH  12  19
BRANCH  16  20
ATOM     20  O   UNL     1       2.740   7.475  17.113  0.00  0.00    +0.000 OA
ATOM     21  C   UNL     1       2.271   8.684  17.686  0.00  0.00    +0.000 C 
ENDBRANCH  16  20
BRANCH  17  22
ATOM     22  O   UNL     1       5.357   7.201  15.805  0.00  0.00    +0.000 OA
ATOM     23  C   UNL     1       5.380   5.961  15.071  0.00  0.00    +0.000 C 
ENDBRANCH  17  22
ENDBRANCH   1  15
BRANCH   6  24
ATOM     24  O   UNL     1       5.287   0.199  19.691  0.00  0.00    +0.000 OA
ATOM     25  H   UNL     1       4.876  -0.558  20.143  0.00  0.00    +0.000 HD
ENDBRANCH   6  24
TORSDOF 5
ENDMDL
MODEL 6
REMARK VINA RESULT:      -6.5      1.910      4.172
REMARK  Name = 
REMARK  8 active torsions:
REMARK  status: ('A' for Active; 'I' for Inactive)
REMARK    1  A    between atoms: C_1  and  O_2
REMARK    2  A    between atoms: O_2  and  C_3
REMARK    3  A    between atoms: C_6  and  C_7
REMARK    4  A    between atoms: C_12  and  O_13
REMARK    5  A    between atoms: C_19  and  O_20
REMARK    6  A    between atoms: O_20  and  C_21
REMARK    7  A    between atoms: C_22  and  O_23
REMARK    8  A    between atoms: O_23  and  C_24
REMARK                            x       y       z     vdW  Elec       q    Type
REMARK                         _______ _______ _______ _____ _____    ______ ____
ROOT
ATOM      1  C   UNL     1       4.679   4.946  15.668  0.00  0.00    +0.000 C 
ATOM      2  C   UNL     1       5.794   3.977  15.247  0.00  0.00    +0.000 C 
ATOM      3  O   UNL     1       6.666   3.644  16.354  0.00  0.00    +0.000 OA
ATOM      4  C   UNL     1       7.041   4.712  17.126  0.00  0.00    +0.000 A 
ATOM      5  C   UNL     1       7.873   4.443  18.214  0.00  0.00    +0.000 A 
ATOM      6  C   UNL     1       8.273   5.488  19.037  0.00  0.00    +0.000 A 
ATOM      7  C   UNL     1       7.935   6.803  18.753  0.00  0.00    +0.000 A 
ATOM      8  C   UNL     1       7.076   7.079  17.684  0.00  0.00    +0.000 A 
ATOM      9  C   UNL     1       6.595   6.017  16.914  0.00  0.00    +0.000 A 
ATOM     10  C   UNL     1       5.494   6.208  15.951  0.00  0.00    +0.000 C 
ATOM     11  O   UNL     1       5.291   7.302  15.438  0.00  0.00    +0.000 OA
ENDROOT
BRANCH   1  15
ATOM     12  C   UNL     1       2.798   3.594  19.340  0.00  0.00    +0.000 A 
ATOM     13  C   UNL     1       3.064   2.676  18.333  0.00  0.00    +0.000 A 
ATOM     14  C   UNL     1       3.615   3.106  17.126  0.00  0.00    +0.000 A 
ATOM     15  C   UNL     1       3.845   4.475  16.878  0.00  0.00    +0.000 A 
ATOM     16  C   UNL     1       3.411   5.412  17.836  0.00  0.00    +0.000 A 
ATOM     17  C   UNL     1       3.075   4.952  19.117  0.00  0.00    +0.000 A 
BRANCH  12  19
ATOM     18  C   UNL     1       0.987   2.766  20.600  0.00  0.00    +0.000 C 
ATOM     19  O   UNL     1       2.384   3.050  20.529  0.00  0.00    +0.000 OA
ENDBRANCH  12  19
BRANCH  16  20
ATOM     20  O   UNL     1       3.429   6.707  17.408  0.00  0.00    +0.000 OA
ATOM     21  C   UNL     1       2.312   7.546  17.652  0.00  0.00    +0.000 C 
ENDBRANCH  16  20
BRANCH  17  22
ATOM     22  O   UNL     1       3.210   5.800  20.195  0.00  0.00    +0.000 OA
ATOM     23  C   UNL     1       1.898   6.226  20.610  0.00  0.00    +0.000 C 
ENDBRANCH  17  22
ENDBRANCH   1  15
BRANCH   6  24
ATOM     24  O   UNL     1       8.984   5.244  20.176  0.00  0.00    +0.000 OA
ATOM     25  H   UNL     1       8.833   5.988  20.784  0.00  0.00    +0.000 HD
ENDBRANCH   6  24
TORSDOF 5
ENDMDL
MODEL 7
REMARK VINA RESULT:      -6.4      1.881      3.898
REMARK  Name = 
REMARK  8 active torsions:
REMARK  status: ('A' for Active; 'I' for Inactive)
REMARK    1  A    between atoms: C_1  and  O_2
REMARK    2  A    between atoms: O_2  and  C_3
REMARK    3  A    between atoms: C_6  and  C_7
REMARK    4  A    between atoms: C_12  and  O_13
REMARK    5  A    between atoms: C_19  and  O_20
REMARK    6  A    between atoms: O_20  and  C_21
REMARK    7  A    between atoms: C_22  and  O_23
REMARK    8  A    between atoms: O_23  and  C_24
REMARK                            x       y       z     vdW  Elec       q    Type
REMARK                         _______ _______ _______ _____ _____    ______ ____
ROOT
ATOM      1  C   UNL     1       5.077   5.997  18.281  0.00  0.00    +0.000 C 
ATOM      2  C   UNL     1       5.173   7.232  17.373  0.00  0.00    +0.000 C 
ATOM      3  O   UNL     1       4.859   6.915  15.995  0.00  0.00    +0.000 OA
ATOM      4  C   UNL     1       5.439   5.764  15.529  0.00  0.00    +0.000 A 
ATOM      5  C   UNL     1       5.158   5.408  14.209  0.00  0.00    +0.000 A 
ATOM      6  C   UNL     1       5.709   4.243  13.689  0.00  0.00    +0.000 A 
ATOM      7  C   UNL     1       6.600   3.473  14.423  0.00  0.00    +0.000 A 
ATOM      8  C   UNL     1       6.862   3.806  15.756  0.00  0.00    +0.000 A 
ATOM      9  C   UNL     1       6.232   4.923  16.310  0.00  0.00    +0.000 A 
ATOM     10  C   UNL     1       6.257   5.174  17.763  0.00  0.00    +0.000 C 
ATOM     11  O   UNL     1       7.171   4.746  18.458  0.00  0.00    +0.000 OA
ENDROOT
BRANCH   1  15
ATOM     12  C   UNL     1       1.497   3.546  18.416  0.00  0.00    +0.000 A 
ATOM     13  C   UNL     1       2.402   3.371  17.379  0.00  0.00    +0.000 A 
ATOM     14  C   UNL     1       3.527   4.191  17.291  0.00  0.00    +0.000 A 
ATOM     15  C   UNL     1       3.730   5.248  18.202  0.00  0.00    +0.000 A 
ATOM     16  C   UNL     1       2.719   5.525  19.143  0.00  0.00    +0.000 A 
ATOM     17  C   UNL     1       1.722   4.563  19.357  0.00  0.00    +0.000 A 
BRANCH  12  19
ATOM     18  C   UNL     1       0.912   1.339  19.002  0.00  0.00    +0.000 C 
ATOM     19  O   UNL     1       0.501   2.604  18.484  0.00  0.00    +0.000 OA
ENDBRANCH  12  19
BRANCH  16  20
ATOM     20  O   UNL     1       2.870   6.710  19.802  0.00  0.00    +0.000 OA
ATOM     21  C   UNL     1       2.045   7.813  19.466  0.00  0.00    +0.000 C 
ENDBRANCH  16  20
BRANCH  17  22
ATOM     22  O   UNL     1       1.097   4.500  20.583  0.00  0.00    +0.000 OA
ATOM     23  C   UNL     1       1.977   3.841  21.513  0.00  0.00    +0.000 C 
ENDBRANCH  17  22
ENDBRANCH   1  15
BRANCH   6  24
ATOM     24  O   UNL     1       5.360   3.802  12.445  0.00  0.00    +0.000 OA
ATOM     25  H   UNL     1       4.589   4.320  12.154  0.00  0.00    +0.000 HD
ENDBRANCH   6  24
TORSDOF 5
ENDMDL
MODEL 8
REMARK VINA RESULT:      -6.2      7.082     11.206
REMARK  Name = 
REMARK  8 active torsions:
REMARK  status: ('A' for Active; 'I' for Inactive)
REMARK    1  A    between atoms: C_1  and  O_2
REMARK    2  A    between atoms: O_2  and  C_3
REMARK    3  A    between atoms: C_6  and  C_7
REMARK    4  A    between atoms: C_12  and  O_13
REMARK    5  A    between atoms: C_19  and  O_20
REMARK    6  A    between atoms: O_20  and  C_21
REMARK    7  A    between atoms: C_22  and  O_23
REMARK    8  A    between atoms: O_23  and  C_24
REMARK                            x       y       z     vdW  Elec       q    Type
REMARK                         _______ _______ _______ _____ _____    ______ ____
ROOT
ATOM      1  C   UNL     1      -1.083  13.253  20.376  0.00  0.00    +0.000 C 
ATOM      2  C   UNL     1      -0.267  12.390  21.351  0.00  0.00    +0.000 C 
ATOM      3  O   UNL     1      -1.114  11.711  22.309  0.00  0.00    +0.000 OA
ATOM      4  C   UNL     1      -2.097  12.493  22.857  0.00  0.00    +0.000 A 
ATOM      5  C   UNL     1      -2.948  11.882  23.779  0.00  0.00    +0.000 A 
ATOM      6  C   UNL     1      -3.970  12.626  24.356  0.00  0.00    +0.000 A 
ATOM      7  C   UNL     1      -4.110  13.983  24.102  0.00  0.00    +0.000 A 
ATOM      8  C   UNL     1      -3.282  14.596  23.155  0.00  0.00    +0.000 A 
ATOM      9  C   UNL     1      -2.316  13.825  22.503  0.00  0.00    +0.000 A 
ATOM     10  C   UNL     1      -1.596  14.338  21.322  0.00  0.00    +0.000 C 
ATOM     11  O   UNL     1      -1.440  15.542  21.157  0.00  0.00    +0.000 OA
ENDROOT
BRANCH   1  15
ATOM     12  C   UNL     1      -4.306  11.564  18.008  0.00  0.00    +0.000 A 
ATOM     13  C   UNL     1      -4.593  12.134  19.241  0.00  0.00    +0.000 A 
ATOM     14  C   UNL     1      -3.560  12.628  20.037  0.00  0.00    +0.000 A 
ATOM     15  C   UNL     1      -2.212  12.497  19.645  0.00  0.00    +0.000 A 
ATOM     16  C   UNL     1      -1.923  11.764  18.477  0.00  0.00    +0.000 A 
ATOM     17  C   UNL     1      -2.969  11.480  17.589  0.00  0.00    +0.000 A 
BRANCH  12  19
ATOM     18  C   UNL     1      -6.657  11.572  17.840  0.00  0.00    +0.000 C 
ATOM     19  O   UNL     1      -5.401  11.234  17.251  0.00  0.00    +0.000 OA
ENDBRANCH  12  19
BRANCH  16  20
ATOM     20  O   UNL     1      -0.603  11.462  18.313  0.00  0.00    +0.000 OA
ATOM     21  C   UNL     1      -0.158  10.127  18.487  0.00  0.00    +0.000 C 
ENDBRANCH  16  20
BRANCH  17  22
ATOM     22  O   UNL     1      -2.691  11.310  16.250  0.00  0.00    +0.000 OA
ATOM     23  C   UNL     1      -2.763   9.905  15.942  0.00  0.00    +0.000 C 
ENDBRANCH  17  22
ENDBRANCH   1  15
BRANCH   6  24
ATOM     24  O   UNL     1      -4.893  12.031  25.166  0.00  0.00    +0.000 OA
ATOM     25  H   UNL     1      -4.496  11.942  26.050  0.00  0.00    +0.000 HD
ENDBRANCH   6  24
TORSDOF 5
ENDMDL
MODEL 9
REMARK VINA RESULT:      -6.2      1.509      5.349
REMARK  Name = 
REMARK  8 active torsions:
REMARK  status: ('A' for Active; 'I' for Inactive)
REMARK    1  A    between atoms: C_1  and  O_2
REMARK    2  A    between atoms: O_2  and  C_3
REMARK    3  A    between atoms: C_6  and  C_7
REMARK    4  A    between atoms: C_12  and  O_13
REMARK    5  A    between atoms: C_19  and  O_20
REMARK    6  A    between atoms: O_20  and  C_21
REMARK    7  A    between atoms: C_22  and  O_23
REMARK    8  A    between atoms: O_23  and  C_24
REMARK                            x       y       z     vdW  Elec       q    Type
REMARK                         _______ _______ _______ _____ _____    ______ ____
ROOT
ATOM      1  C   UNL     1       2.623   3.274  18.979  0.00  0.00    +0.000 C 
ATOM      2  C   UNL     1       1.344   3.376  18.136  0.00  0.00    +0.000 C 
ATOM      3  O   UNL     1       1.286   4.615  17.390  0.00  0.00    +0.000 OA
ATOM      4  C   UNL     1       1.638   5.729  18.106  0.00  0.00    +0.000 A 
ATOM      5  C   UNL     1       1.610   6.949  17.429  0.00  0.00    +0.000 A 
ATOM      6  C   UNL     1       1.971   8.109  18.105  0.00  0.00    +0.000 A 
ATOM      7  C   UNL     1       2.274   8.093  19.459  0.00  0.00    +0.000 A 
ATOM      8  C   UNL     1       2.336   6.871  20.137  0.00  0.00    +0.000 A 
ATOM      9  C   UNL     1       2.068   5.694  19.434  0.00  0.00    +0.000 A 
ATOM     10  C   UNL     1       2.367   4.371  20.013  0.00  0.00    +0.000 C 
ATOM     11  O   UNL     1       2.391   4.209  21.227  0.00  0.00    +0.000 OA
ENDROOT
BRANCH   1  15
ATOM     12  C   UNL     1       6.238   4.372  16.841  0.00  0.00    +0.000 A 
ATOM     13  C   UNL     1       5.072   4.130  16.127  0.00  0.00    +0.000 A 
ATOM     14  C   UNL     1       3.919   3.721  16.796  0.00  0.00    +0.000 A 
ATOM     15  C   UNL     1       3.931   3.477  18.185  0.00  0.00    +0.000 A 
ATOM     16  C   UNL     1       5.160   3.557  18.869  0.00  0.00    +0.000 A 
ATOM     17  C   UNL     1       6.241   4.182  18.231  0.00  0.00    +0.000 A 
BRANCH  12  19
ATOM     18  C   UNL     1       7.064   4.883  14.694  0.00  0.00    +0.000 C 
ATOM     19  O   UNL     1       7.271   4.896  16.106  0.00  0.00    +0.000 OA
ENDBRANCH  12  19
BRANCH  16  20
ATOM     20  O   UNL     1       5.134   3.056  20.137  0.00  0.00    +0.000 OA
ATOM     21  C   UNL     1       4.963   1.663  20.342  0.00  0.00    +0.000 C 
ENDBRANCH  16  20
BRANCH  17  22
ATOM     22  O   UNL     1       7.216   4.787  18.994  0.00  0.00    +0.000 OA
ATOM     23  C   UNL     1       7.259   6.187  18.658  0.00  0.00    +0.000 C 
ENDBRANCH  17  22
ENDBRANCH   1  15
BRANCH   6  24
ATOM     24  O   UNL     1       2.072   9.298  17.443  0.00  0.00    +0.000 OA
ATOM     25  H   UNL     1       1.832  10.004  18.066  0.00  0.00    +0.000 HD
ENDBRANCH   6  24
TORSDOF 5
ENDMDL
