MODEL 1
REMARK VINA RESULT:      -6.2      0.000      0.000
REMARK  Name = 
REMARK  5 active torsions:
REMARK  status: ('A' for Active; 'I' for Inactive)
REMARK    1  A    between atoms: C_1  and  C_2
REMARK    2  A    between atoms: N_6  and  C_7
REMARK    3  A    between atoms: C_7  and  C_8
REMARK    4  A    between atoms: C_8  and  O_9
REMARK    5  A    between atoms: O_9  and  C_10
REMARK                            x       y       z     vdW  Elec       q    Type
REMARK                         _______ _______ _______ _____ _____    ______ ____
ROOT
ATOM      1  C   UNL     1       3.884   6.246  17.307  0.00  0.00    +0.000 C 
ENDROOT
BRANCH   1   2
ATOM      2  C   UNL     1       5.171   6.765  16.681  0.00  0.00    +0.000 C 
BRANCH   2   8
ATOM      3  C   UNL     1       6.654   4.832  14.735  0.00  0.00    +0.000 C 
ATOM      4  C   UNL     1       6.930   4.996  16.184  0.00  0.00    +0.000 A 
ATOM      5  N   UNL     1       7.823   4.305  16.866  0.00  0.00    +0.000 NA
ATOM      6  C   UNL     1       7.742   4.744  18.158  0.00  0.00    +0.000 A 
ATOM      7  C   UNL     1       6.781   5.716  18.276  0.00  0.00    +0.000 A 
ATOM      8  N   UNL     1       6.276   5.879  17.012  0.00  0.00    +0.000 N 
ENDBRANCH   2   8
ENDBRANCH   1   2
BRANCH   1   9
ATOM      9  O   UNL     1       3.742   4.827  17.149  0.00  0.00    +0.000 OA
BRANCH   9  10
ATOM     10  C   UNL     1       3.204   4.197  18.248  0.00  0.00    +0.000 A 
ATOM     11  C   UNL     1       1.907   4.573  18.607  0.00  0.00    +0.000 A 
ATOM     12  C   UNL     1       1.312   4.041  19.756  0.00  0.00    +0.000 A 
ATOM     13  C   UNL     1       2.011   3.126  20.542  0.00  0.00    +0.000 A 
ATOM     14 CL   UNL     1       1.306   2.505  21.982  0.00  0.00    +0.000 Cl
ATOM     15  C   UNL     1       3.287   2.719  20.173  0.00  0.00    +0.000 A 
ATOM     16  C   UNL     1       3.875   3.241  19.020  0.00  0.00    +0.000 A 
ENDBRANCH   9  10
ENDBRANCH   1   9
TORSDOF 4
ENDMDL
MODEL 2
REMARK VINA RESULT:      -6.1      3.568      5.874
REMARK  Name = 
REMARK  5 active torsions:
REMARK  status: ('A' for Active; 'I' for Inactive)
REMARK    1  A    between atoms: C_1  and  C_2
REMARK    2  A    between atoms: N_6  and  C_7
REMARK    3  A    between atoms: C_7  and  C_8
REMARK    4  A    between atoms: C_8  and  O_9
REMARK    5  A    between atoms: O_9  and  C_10
REMARK                            x       y       z     vdW  Elec       q    Type
REMARK                         _______ _______ _______ _____ _____    ______ ____
ROOT
ATOM      1  C   UNL     1       4.810   4.851  19.416  0.00  0.00    +0.000 C 
ENDROOT
BRANCH   1   2
ATOM      2  C   UNL     1       3.467   5.460  19.795  0.00  0.00    +0.000 C 
BRANCH   2   8
ATOM      3  C   UNL     1       1.532   4.190  17.705  0.00  0.00    +0.000 C 
ATOM      4  C   UNL     1       1.610   3.847  19.147  0.00  0.00    +0.000 A 
ATOM      5  N   UNL     1       0.831   2.976  19.759  0.00  0.00    +0.000 NA
ATOM      6  C   UNL     1       1.215   2.976  21.071  0.00  0.00    +0.000 A 
ATOM      7  C   UNL     1       2.241   3.863  21.272  0.00  0.00    +0.000 A 
ATOM      8  N   UNL     1       2.495   4.406  20.040  0.00  0.00    +0.000 N 
ENDBRANCH   2   8
ENDBRANCH   1   2
BRANCH   1   9
ATOM      9  O   UNL     1       5.641   5.780  18.708  0.00  0.00    +0.000 OA
BRANCH   9  10
ATOM     10  C   UNL     1       5.932   5.394  17.419  0.00  0.00    +0.000 A 
ATOM     11  C   UNL     1       5.003   5.751  16.439  0.00  0.00    +0.000 A 
ATOM     12  C   UNL     1       5.179   5.332  15.115  0.00  0.00    +0.000 A 
ATOM     13  C   UNL     1       6.289   4.564  14.770  0.00  0.00    +0.000 A 
ATOM     14 CL   UNL     1       6.489   4.005  13.157  0.00  0.00    +0.000 Cl
ATOM     15  C   UNL     1       7.238   4.235  15.731  0.00  0.00    +0.000 A 
ATOM     16  C   UNL     1       7.067   4.663  17.048  0.00  0.00    +0.000 A 
ENDBRANCH   9  10
ENDBRANCH   1   9
TORSDOF 4
ENDMDL
MODEL 3
REMARK VINA RESULT:      -6.1      3.413      5.735
REMARK  Name = 
REMARK  5 active torsions:
REMARK  status: ('A' for Active; 'I' for Inactive)
REMARK    1  A    between atoms: C_1  and  C_2
REMARK    2  A    between atoms: N_6  and  C_7
REMARK    3  A    between atoms: C_7  and  C_8
REMARK    4  A    between atoms: C_8  and  O_9
REMARK    5  A    between atoms: O_9  and  C_10
REMARK                            x       y       z     vdW  Elec       q    Type
REMARK                         _______ _______ _______ _____ _____    ______ ____
ROOT
ATOM      1  C   UNL     1       3.770   3.061  17.540  0.00  0.00    +0.000 C 
ENDROOT
BRANCH   1   2
ATOM      2  C   UNL     1       2.362   3.565  17.825  0.00  0.00    +0.000 C 
BRANCH   2   8
ATOM      3  C   UNL     1       2.872   5.846  19.888  0.00  0.00    +0.000 C 
ATOM      4  C   UNL     1       2.339   4.495  20.192  0.00  0.00    +0.000 A 
ATOM      5  N   UNL     1       2.045   4.053  21.400  0.00  0.00    +0.000 NA
ATOM      6  C   UNL     1       1.612   2.766  21.241  0.00  0.00    +0.000 A 
ATOM      7  C   UNL     1       1.644   2.407  19.918  0.00  0.00    +0.000 A 
ATOM      8  N   UNL     1       2.098   3.517  19.254  0.00  0.00    +0.000 N 
ENDBRANCH   2   8
ENDBRANCH   1   2
BRANCH   1   9
ATOM      9  O   UNL     1       4.385   3.769  16.455  0.00  0.00    +0.000 OA
BRANCH   9  10
ATOM     10  C   UNL     1       5.252   4.759  16.859  0.00  0.00    +0.000 A 
ATOM     11  C   UNL     1       4.825   6.075  16.665  0.00  0.00    +0.000 A 
ATOM     12  C   UNL     1       5.674   7.145  16.974  0.00  0.00    +0.000 A 
ATOM     13  C   UNL     1       6.947   6.896  17.484  0.00  0.00    +0.000 A 
ATOM     14 CL   UNL     1       8.015   8.201  17.821  0.00  0.00    +0.000 Cl
ATOM     15  C   UNL     1       7.367   5.592  17.714  0.00  0.00    +0.000 A 
ATOM     16  C   UNL     1       6.514   4.527  17.418  0.00  0.00    +0.000 A 
ENDBRANCH   9  10
ENDBRANCH   1   9
TORSDOF 4
ENDMDL
MODEL 4
REMARK VINA RESULT:      -6.1      1.373      1.917
REMARK  Name = 
REMARK  5 active torsions:
REMARK  status: ('A' for Active; 'I' for Inactive)
REMARK    1  A    between atoms: C_1  and  C_2
REMARK    2  A    between atoms: N_6  and  C_7
REMARK    3  A    between atoms: C_7  and  C_8
REMARK    4  A    between atoms: C_8  and  O_9
REMARK    5  A    between atoms: O_9  and  C_10
REMARK                            x       y       z     vdW  Elec       q    Type
REMARK                         _______ _______ _______ _____ _____    ______ ____
ROOT
ATOM      1  C   UNL     1       3.982   6.549  17.998  0.00  0.00    +0.000 C 
ENDROOT
BRANCH   1   2
ATOM      2  C   UNL     1       5.063   5.535  18.348  0.00  0.00    +0.000 C 
BRANCH   2   8
ATOM      3  C   UNL     1       7.521   7.255  17.501  0.00  0.00    +0.000 C 
ATOM      4  C   UNL     1       6.996   6.067  16.783  0.00  0.00    +0.000 A 
ATOM      5  N   UNL     1       7.477   5.596  15.649  0.00  0.00    +0.000 NA
ATOM      6  C   UNL     1       6.700   4.520  15.321  0.00  0.00    +0.000 A 
ATOM      7  C   UNL     1       5.722   4.328  16.264  0.00  0.00    +0.000 A 
ATOM      8  N   UNL     1       5.923   5.311  17.198  0.00  0.00    +0.000 N 
ENDBRANCH   2   8
ENDBRANCH   1   2
BRANCH   1   9
ATOM      9  O   UNL     1       2.734   5.919  17.680  0.00  0.00    +0.000 OA
BRANCH   9  10
ATOM     10  C   UNL     1       2.285   5.056  18.654  0.00  0.00    +0.000 A 
ATOM     11  C   UNL     1       2.254   5.553  19.959  0.00  0.00    +0.000 A 
ATOM     12  C   UNL     1       1.886   4.721  21.023  0.00  0.00    +0.000 A 
ATOM     13  C   UNL     1       1.540   3.392  20.778  0.00  0.00    +0.000 A 
ATOM     14 CL   UNL     1       1.133   2.349  22.083  0.00  0.00    +0.000 Cl
ATOM     15  C   UNL     1       1.533   2.899  19.479  0.00  0.00    +0.000 A 
ATOM     16  C   UNL     1       1.888   3.734  18.419  0.00  0.00    +0.000 A 
ENDBRANCH   9  10
ENDBRANCH   1   9
TORSDOF 4
ENDMDL
MODEL 5
REMARK VINA RESULT:      -6.0      3.408      5.802
REMARK  Name = 
REMARK  5 active torsions:
REMARK  status: ('A' for Active; 'I' for Inactive)
REMARK    1  A    between atoms: C_1  and  C_2
REMARK    2  A    between atoms: N_6  and  C_7
REMARK    3  A    between atoms: C_7  and  C_8
REMARK    4  A    between atoms: C_8  and  O_9
REMARK    5  A    between atoms: O_9  and  C_10
REMARK                            x       y       z     vdW  Elec       q    Type
REMARK                         _______ _______ _______ _____ _____    ______ ____
ROOT
ATOM      1  C   UNL     1       4.152   3.240  17.464  0.00  0.00    +0.000 C 
ENDROOT
BRANCH   1   2
ATOM      2  C   UNL     1       2.743   3.807  17.344  0.00  0.00    +0.000 C 
BRANCH   2   8
ATOM      3  C   UNL     1       0.574   2.220  18.925  0.00  0.00    +0.000 C 
ATOM      4  C   UNL     1       1.249   3.464  19.374  0.00  0.00    +0.000 A 
ATOM      5  N   UNL     1       0.988   4.101  20.499  0.00  0.00    +0.000 NA
ATOM      6  C   UNL     1       1.805   5.197  20.515  0.00  0.00    +0.000 A 
ATOM      7  C   UNL     1       2.576   5.240  19.382  0.00  0.00    +0.000 A 
ATOM      8  N   UNL     1       2.224   4.126  18.664  0.00  0.00    +0.000 N 
ENDBRANCH   2   8
ENDBRANCH   1   2
BRANCH   1   9
ATOM      9  O   UNL     1       5.050   3.828  16.514  0.00  0.00    +0.000 OA
BRANCH   9  10
ATOM     10  C   UNL     1       5.830   4.835  17.036  0.00  0.00    +0.000 A 
ATOM     11  C   UNL     1       5.518   6.136  16.631  0.00  0.00    +0.000 A 
ATOM     12  C   UNL     1       6.308   7.213  17.051  0.00  0.00    +0.000 A 
ATOM     13  C   UNL     1       7.403   6.989  17.883  0.00  0.00    +0.000 A 
ATOM     14 CL   UNL     1       8.407   8.299  18.365  0.00  0.00    +0.000 Cl
ATOM     15  C   UNL     1       7.699   5.704  18.320  0.00  0.00    +0.000 A 
ATOM     16  C   UNL     1       6.904   4.632  17.911  0.00  0.00    +0.000 A 
ENDBRANCH   9  10
ENDBRANCH   1   9
TORSDOF 4
ENDMDL
MODEL 6
REMARK VINA RESULT:      -6.0      3.549      5.843
REMARK  Name = 
REMARK  5 active torsions:
REMARK  status: ('A' for Active; 'I' for Inactive)
REMARK    1  A    between atoms: C_1  and  C_2
REMARK    2  A    between atoms: N_6  and  C_7
REMARK    3  A    between atoms: C_7  and  C_8
REMARK    4  A    between atoms: C_8  and  O_9
REMARK    5  A    between atoms: O_9  and  C_10
REMARK                            x       y       z     vdW  Elec       q    Type
REMARK                         _______ _______ _______ _____ _____    ______ ____
ROOT
ATOM      1  C   UNL     1       2.945   3.558  17.169  0.00  0.00    +0.000 C 
ENDROOT
BRANCH   1   2
ATOM      2  C   UNL     1       1.655   4.059  17.804  0.00  0.00    +0.000 C 
BRANCH   2   8
ATOM      3  C   UNL     1       2.093   6.024  20.185  0.00  0.00    +0.000 C 
ATOM      4  C   UNL     1       1.855   4.563  20.289  0.00  0.00    +0.000 A 
ATOM      5  N   UNL     1       1.839   3.879  21.417  0.00  0.00    +0.000 NA
ATOM      6  C   UNL     1       1.612   2.576  21.071  0.00  0.00    +0.000 A 
ATOM      7  C   UNL     1       1.492   2.454  19.710  0.00  0.00    +0.000 A 
ATOM      8  N   UNL     1       1.637   3.725  19.220  0.00  0.00    +0.000 N 
ENDBRANCH   2   8
ENDBRANCH   1   2
BRANCH   1   9
ATOM      9  O   UNL     1       4.052   3.620  18.079  0.00  0.00    +0.000 OA
BRANCH   9  10
ATOM     10  C   UNL     1       4.907   4.672  17.841  0.00  0.00    +0.000 A 
ATOM     11  C   UNL     1       6.172   4.589  18.430  0.00  0.00    +0.000 A 
ATOM     12  C   UNL     1       7.077   5.650  18.306  0.00  0.00    +0.000 A 
ATOM     13  C   UNL     1       6.720   6.788  17.585  0.00  0.00    +0.000 A 
ATOM     14 CL   UNL     1       7.808   8.115  17.468  0.00  0.00    +0.000 Cl
ATOM     15  C   UNL     1       5.479   6.864  16.965  0.00  0.00    +0.000 A 
ATOM     16  C   UNL     1       4.582   5.800  17.079  0.00  0.00    +0.000 A 
ENDBRANCH   9  10
ENDBRANCH   1   9
TORSDOF 4
ENDMDL
MODEL 7
REMARK VINA RESULT:      -6.0      1.323      1.880
REMARK  Name = 
REMARK  5 active torsions:
REMARK  status: ('A' for Active; 'I' for Inactive)
REMARK    1  A    between atoms: C_1  and  C_2
REMARK    2  A    between atoms: N_6  and  C_7
REMARK    3  A    between atoms: C_7  and  C_8
REMARK    4  A    between atoms: C_8  and  O_9
REMARK    5  A    between atoms: O_9  and  C_10
REMARK                            x       y       z     vdW  Elec       q    Type
REMARK                         _______ _______ _______ _____ _____    ______ ____
ROOT
ATOM      1  C   UNL     1       3.923   7.003  17.736  0.00  0.00    +0.000 C 
ENDROOT
BRANCH   1   2
ATOM      2  C   UNL     1       4.647   7.007  16.396  0.00  0.00    +0.000 C 
BRANCH   2   8
ATOM      3  C   UNL     1       7.584   7.129  17.435  0.00  0.00    +0.000 C 
ATOM      4  C   UNL     1       6.935   5.965  16.782  0.00  0.00    +0.000 A 
ATOM      5  N   UNL     1       7.533   4.821  16.509  0.00  0.00    +0.000 NA
ATOM      6  C   UNL     1       6.597   4.038  15.894  0.00  0.00    +0.000 A 
ATOM      7  C   UNL     1       5.406   4.709  15.781  0.00  0.00    +0.000 A 
ATOM      8  N   UNL     1       5.626   5.932  16.359  0.00  0.00    +0.000 N 
ENDBRANCH   2   8
ENDBRANCH   1   2
BRANCH   1   9
ATOM      9  O   UNL     1       2.636   6.378  17.650  0.00  0.00    +0.000 OA
BRANCH   9  10
ATOM     10  C   UNL     1       2.383   5.485  18.667  0.00  0.00    +0.000 A 
ATOM     11  C   UNL     1       1.895   4.232  18.287  0.00  0.00    +0.000 A 
ATOM     12  C   UNL     1       1.536   3.290  19.259  0.00  0.00    +0.000 A 
ATOM     13  C   UNL     1       1.675   3.600  20.611  0.00  0.00    +0.000 A 
ATOM     14 CL   UNL     1       1.193   2.468  21.812  0.00  0.00    +0.000 Cl
ATOM     15  C   UNL     1       2.194   4.829  20.998  0.00  0.00    +0.000 A 
ATOM     16  C   UNL     1       2.563   5.762  20.027  0.00  0.00    +0.000 A 
ENDBRANCH   9  10
ENDBRANCH   1   9
TORSDOF 4
ENDMDL
MODEL 8
REMARK VINA RESULT:      -6.0      3.552      5.782
REMARK  Name = 
REMARK  5 active torsions:
REMARK  status: ('A' for Active; 'I' for Inactive)
REMARK    1  A    between atoms: C_1  and  C_2
REMARK    2  A    between atoms: N_6  and  C_7
REMARK    3  A    between atoms: C_7  and  C_8
REMARK    4  A    between atoms: C_8  and  O_9
REMARK    5  A    between atoms: O_9  and  C_10
REMARK                            x       y       z     vdW  Elec       q    Type
REMARK                         _______ _______ _______ _____ _____    ______ ____
ROOT
ATOM      1  C   UNL     1       2.897   5.611  18.667  0.00  0.00    +0.000 C 
ENDROOT
BRANCH   1   2
ATOM      2  C   UNL     1       2.394   4.176  18.582  0.00  0.00    +0.000 C 
BRANCH   2   8
ATOM      3  C   UNL     1       4.496   2.346  19.981  0.00  0.00    +0.000 C 
ATOM      4  C   UNL     1       3.193   2.773  20.548  0.00  0.00    +0.000 A 
ATOM      5  N   UNL     1       2.719   2.397  21.720  0.00  0.00    +0.000 NA
ATOM      6  C   UNL     1       1.495   2.991  21.847  0.00  0.00    +0.000 A 
ATOM      7  C   UNL     1       1.206   3.740  20.735  0.00  0.00    +0.000 A 
ATOM      8  N   UNL     1       2.297   3.605  19.917  0.00  0.00    +0.000 N 
ENDBRANCH   2   8
ENDBRANCH   1   2
BRANCH   1   9
ATOM      9  O   UNL     1       4.300   5.673  18.955  0.00  0.00    +0.000 OA
BRANCH   9  10
ATOM     10  C   UNL     1       5.102   5.508  17.849  0.00  0.00    +0.000 A 
ATOM     11  C   UNL     1       4.679   6.138  16.676  0.00  0.00    +0.000 A 
ATOM     12  C   UNL     1       5.392   5.960  15.484  0.00  0.00    +0.000 A 
ATOM     13  C   UNL     1       6.533   5.159  15.469  0.00  0.00    +0.000 A 
ATOM     14 CL   UNL     1       7.386   4.895  14.000  0.00  0.00    +0.000 Cl
ATOM     15  C   UNL     1       6.981   4.558  16.639  0.00  0.00    +0.000 A 
ATOM     16  C   UNL     1       6.277   4.747  17.829  0.00  0.00    +0.000 A 
ENDBRANCH   9  10
ENDBRANCH   1   9
TORSDOF 4
ENDMDL
MODEL 9
REMARK VINA RESULT:      -6.0      3.374      5.878
REMARK  Name = 
REMARK  5 active torsions:
REMARK  status: ('A' for Active; 'I' for Inactive)
REMARK    1  A    between atoms: C_1  and  C_2
REMARK    2  A    between atoms: N_6  and  C_7
REMARK    3  A    between atoms: C_7  and  C_8
REMARK    4  A    between atoms: C_8  and  O_9
REMARK    5  A    between atoms: O_9  and  C_10
REMARK                            x       y       z     vdW  Elec       q    Type
REMARK                         _______ _______ _______ _____ _____    ______ ____
ROOT
ATOM      1  C   UNL     1       4.118   3.303  17.573  0.00  0.00    +0.000 C 
ENDROOT
BRANCH   1   2
ATOM      2  C   UNL     1       2.849   4.135  17.442  0.00  0.00    +0.000 C 
BRANCH   2   8
ATOM      3  C   UNL     1       0.719   2.440  18.962  0.00  0.00    +0.000 C 
ATOM      4  C   UNL     1       1.340   3.699  19.443  0.00  0.00    +0.000 A 
ATOM      5  N   UNL     1       1.040   4.305  20.575  0.00  0.00    +0.000 NA
ATOM      6  C   UNL     1       1.814   5.431  20.623  0.00  0.00    +0.000 A 
ATOM      7  C   UNL     1       2.599   5.523  19.502  0.00  0.00    +0.000 A 
ATOM      8  N   UNL     1       2.300   4.411  18.760  0.00  0.00    +0.000 N 
ENDBRANCH   2   8
ENDBRANCH   1   2
BRANCH   1   9
ATOM      9  O   UNL     1       5.090   3.645  16.575  0.00  0.00    +0.000 OA
BRANCH   9  10
ATOM     10  C   UNL     1       5.845   4.751  16.892  0.00  0.00    +0.000 A 
ATOM     11  C   UNL     1       6.879   4.555  17.811  0.00  0.00    +0.000 A 
ATOM     12  C   UNL     1       7.647   5.640  18.250  0.00  0.00    +0.000 A 
ATOM     13  C   UNL     1       7.385   6.920  17.762  0.00  0.00    +0.000 A 
ATOM     14 CL   UNL     1       8.292   8.266  18.331  0.00  0.00    +0.000 Cl
ATOM     15  C   UNL     1       6.383   7.118  16.820  0.00  0.00    +0.000 A 
ATOM     16  C   UNL     1       5.627   6.034  16.374  0.00  0.00    +0.000 A 
ENDBRANCH   9  10
ENDBRANCH   1   9
TORSDOF 4
ENDMDL
