MODEL 1
REMARK VINA RESULT:      -7.0      0.000      0.000
REMARK  Name = 
REMARK  6 active torsions:
REMARK  status: ('A' for Active; 'I' for Inactive)
REMARK    1  A    between atoms: C_1  and  C_2
REMARK    2  A    between atoms: C_2  and  O_3
REMARK    3  A    between atoms: O_3  and  C_4
REMARK    4  A    between atoms: C_4  and  C_6
REMARK    5  A    between atoms: C_7  and  C_8
REMARK    6  A    between atoms: C_17  and  N_18
REMARK                            x       y       z     vdW  Elec       q    Type
REMARK                         _______ _______ _______ _____ _____    ______ ____
ROOT
ATOM      1  C   UNL     1       5.889   5.724  16.955  0.00  0.00    +0.000 A 
ATOM      2  C   UNL     1       5.254   5.011  18.056  0.00  0.00    +0.000 A 
ATOM      3  C   UNL     1       6.027   5.085  19.200  0.00  0.00    +0.000 A 
ATOM      4  S   UNL     1       7.458   5.978  18.983  0.00  0.00    +0.000 S 
ATOM      5  C   UNL     1       7.087   6.299  17.345  0.00  0.00    +0.000 A 
ENDROOT
BRANCH   2   6
ATOM      6  C   UNL     1       3.997   4.244  18.056  0.00  0.00    +0.000 A 
ATOM      7  C   UNL     1       4.012   2.845  18.186  0.00  0.00    +0.000 A 
ATOM      8  C   UNL     1       2.832   2.100  18.164  0.00  0.00    +0.000 A 
ATOM      9  C   UNL     1       1.607   2.745  18.062  0.00  0.00    +0.000 A 
ATOM     10  C   UNL     1       1.562   4.133  17.962  0.00  0.00    +0.000 A 
ATOM     11  C   UNL     1       2.746   4.867  17.942  0.00  0.00    +0.000 A 
ATOM     12  F   UNL     1       2.643   6.200  17.810  0.00  0.00    +0.000 F 
ENDBRANCH   2   6
BRANCH   5  13
ATOM     13  N   UNL     1       7.937   7.060  16.623  0.00  0.00    +0.000 N 
ATOM     14  H   UNL     1       8.770   6.632  16.227  0.00  0.00    +0.000 HD
ATOM     15  H   UNL     1       7.597   7.868  16.106  0.00  0.00    +0.000 HD
ENDBRANCH   5  13
BRANCH   1  16
ATOM     16  C   UNL     1       5.332   5.874  15.614  0.00  0.00    +0.000 C 
ATOM     17  O   UNL     1       4.965   6.952  15.154  0.00  0.00    +0.000 OA
BRANCH  16  18
ATOM     18  O   UNL     1       5.167   4.684  14.957  0.00  0.00    +0.000 OA
BRANCH  18  20
ATOM     19  C   UNL     1       6.097   3.619  12.981  0.00  0.00    +0.000 C 
ATOM     20  C   UNL     1       6.370   4.149  14.380  0.00  0.00    +0.000 C 
ENDBRANCH  18  20
ENDBRANCH  16  18
ENDBRANCH   1  16
TORSDOF 5
ENDMDL
MODEL 2
REMARK VINA RESULT:      -6.8      3.592      5.334
REMARK  Name = 
REMARK  6 active torsions:
REMARK  status: ('A' for Active; 'I' for Inactive)
REMARK    1  A    between atoms: C_1  and  C_2
REMARK    2  A    between atoms: C_2  and  O_3
REMARK    3  A    between atoms: O_3  and  C_4
REMARK    4  A    between atoms: C_4  and  C_6
REMARK    5  A    between atoms: C_7  and  C_8
REMARK    6  A    between atoms: C_17  and  N_18
REMARK                            x       y       z     vdW  Elec       q    Type
REMARK                         _______ _______ _______ _____ _____    ______ ____
ROOT
ATOM      1  C   UNL     1       3.032   4.566  18.365  0.00  0.00    +0.000 A 
ATOM      2  C   UNL     1       3.490   5.941  18.519  0.00  0.00    +0.000 A 
ATOM      3  C   UNL     1       4.871   6.004  18.493  0.00  0.00    +0.000 A 
ATOM      4  S   UNL     1       5.607   4.485  18.285  0.00  0.00    +0.000 S 
ATOM      5  C   UNL     1       4.095   3.689  18.220  0.00  0.00    +0.000 A 
ENDROOT
BRANCH   2   6
ATOM      6  C   UNL     1       2.692   7.161  18.730  0.00  0.00    +0.000 A 
ATOM      7  C   UNL     1       2.567   8.119  17.710  0.00  0.00    +0.000 A 
ATOM      8  C   UNL     1       1.834   9.291  17.900  0.00  0.00    +0.000 A 
ATOM      9  C   UNL     1       1.169   9.506  19.099  0.00  0.00    +0.000 A 
ATOM     10  C   UNL     1       1.252   8.558  20.116  0.00  0.00    +0.000 A 
ATOM     11  C   UNL     1       2.020   7.410  19.935  0.00  0.00    +0.000 A 
ATOM     12  F   UNL     1       2.091   6.547  20.961  0.00  0.00    +0.000 F 
ENDBRANCH   2   6
BRANCH   5  13
ATOM     13  N   UNL     1       4.071   2.354  18.021  0.00  0.00    +0.000 N 
ATOM     14  H   UNL     1       4.943   1.865  17.842  0.00  0.00    +0.000 HD
ATOM     15  H   UNL     1       3.349   1.779  18.451  0.00  0.00    +0.000 HD
ENDBRANCH   5  13
BRANCH   1  16
ATOM     16  C   UNL     1       1.636   4.142  18.317  0.00  0.00    +0.000 C 
ATOM     17  O   UNL     1       1.038   3.914  17.268  0.00  0.00    +0.000 OA
BRANCH  16  18
ATOM     18  O   UNL     1       1.031   4.119  19.546  0.00  0.00    +0.000 OA
BRANCH  18  20
ATOM     19  C   UNL     1       1.923   3.031  21.526  0.00  0.00    +0.000 C 
ATOM     20  C   UNL     1       1.133   2.863  20.237  0.00  0.00    +0.000 C 
ENDBRANCH  18  20
ENDBRANCH  16  18
ENDBRANCH   1  16
TORSDOF 5
ENDMDL
MODEL 3
REMARK VINA RESULT:      -6.7      2.586      3.436
REMARK  Name = 
REMARK  6 active torsions:
REMARK  status: ('A' for Active; 'I' for Inactive)
REMARK    1  A    between atoms: C_1  and  C_2
REMARK    2  A    between atoms: C_2  and  O_3
REMARK    3  A    between atoms: O_3  and  C_4
REMARK    4  A    between atoms: C_4  and  C_6
REMARK    5  A    between atoms: C_7  and  C_8
REMARK    6  A    between atoms: C_17  and  N_18
REMARK                            x       y       z     vdW  Elec       q    Type
REMARK                         _______ _______ _______ _____ _____    ______ ____
ROOT
ATOM      1  C   UNL     1       4.228   5.593  17.772  0.00  0.00    +0.000 A 
ATOM      2  C   UNL     1       3.014   5.695  18.572  0.00  0.00    +0.000 A 
ATOM      3  C   UNL     1       2.472   6.964  18.482  0.00  0.00    +0.000 A 
ATOM      4  S   UNL     1       3.365   8.004  17.475  0.00  0.00    +0.000 S 
ATOM      5  C   UNL     1       4.511   6.784  17.122  0.00  0.00    +0.000 A 
ENDROOT
BRANCH   2   6
ATOM      6  C   UNL     1       2.388   4.677  19.433  0.00  0.00    +0.000 A 
ATOM      7  C   UNL     1       2.731   4.579  20.791  0.00  0.00    +0.000 A 
ATOM      8  C   UNL     1       2.165   3.606  21.616  0.00  0.00    +0.000 A 
ATOM      9  C   UNL     1       1.204   2.742  21.109  0.00  0.00    +0.000 A 
ATOM     10  C   UNL     1       0.824   2.837  19.772  0.00  0.00    +0.000 A 
ATOM     11  C   UNL     1       1.423   3.783  18.945  0.00  0.00    +0.000 A 
ATOM     12  F   UNL     1       1.042   3.808  17.658  0.00  0.00    +0.000 F 
ENDBRANCH   2   6
BRANCH   5  13
ATOM     13  N   UNL     1       5.521   7.066  16.272  0.00  0.00    +0.000 N 
ATOM     14  H   UNL     1       5.856   8.023  16.203  0.00  0.00    +0.000 HD
ATOM     15  H   UNL     1       6.218   6.360  16.044  0.00  0.00    +0.000 HD
ENDBRANCH   5  13
BRANCH   1  16
ATOM     16  C   UNL     1       5.036   4.387  17.615  0.00  0.00    +0.000 C 
ATOM     17  O   UNL     1       4.791   3.516  16.784  0.00  0.00    +0.000 OA
BRANCH  16  18
ATOM     18  O   UNL     1       6.033   4.275  18.547  0.00  0.00    +0.000 OA
BRANCH  18  20
ATOM     19  C   UNL     1       7.813   5.890  18.899  0.00  0.00    +0.000 C 
ATOM     20  C   UNL     1       7.328   4.697  18.090  0.00  0.00    +0.000 C 
ENDBRANCH  18  20
ENDBRANCH  16  18
ENDBRANCH   1  16
TORSDOF 5
ENDMDL
MODEL 4
REMARK VINA RESULT:      -6.7      2.436      2.939
REMARK  Name = 
REMARK  6 active torsions:
REMARK  status: ('A' for Active; 'I' for Inactive)
REMARK    1  A    between atoms: C_1  and  C_2
REMARK    2  A    between atoms: C_2  and  O_3
REMARK    3  A    between atoms: O_3  and  C_4
REMARK    4  A    between atoms: C_4  and  C_6
REMARK    5  A    between atoms: C_7  and  C_8
REMARK    6  A    between atoms: C_17  and  N_18
REMARK                            x       y       z     vdW  Elec       q    Type
REMARK                         _______ _______ _______ _____ _____    ______ ____
ROOT
ATOM      1  C   UNL     1       4.214   5.632  17.839  0.00  0.00    +0.000 A 
ATOM      2  C   UNL     1       2.990   5.715  18.625  0.00  0.00    +0.000 A 
ATOM      3  C   UNL     1       2.435   6.979  18.536  0.00  0.00    +0.000 A 
ATOM      4  S   UNL     1       3.329   8.034  17.547  0.00  0.00    +0.000 S 
ATOM      5  C   UNL     1       4.492   6.829  17.200  0.00  0.00    +0.000 A 
ENDROOT
BRANCH   2   6
ATOM      6  C   UNL     1       2.365   4.686  19.472  0.00  0.00    +0.000 A 
ATOM      7  C   UNL     1       2.710   4.567  20.828  0.00  0.00    +0.000 A 
ATOM      8  C   UNL     1       2.145   3.583  21.639  0.00  0.00    +0.000 A 
ATOM      9  C   UNL     1       1.182   2.726  21.122  0.00  0.00    +0.000 A 
ATOM     10  C   UNL     1       0.800   2.842  19.787  0.00  0.00    +0.000 A 
ATOM     11  C   UNL     1       1.399   3.799  18.973  0.00  0.00    +0.000 A 
ATOM     12  F   UNL     1       1.015   3.843  17.687  0.00  0.00    +0.000 F 
ENDBRANCH   2   6
BRANCH   5  13
ATOM     13  N   UNL     1       5.509   7.128  16.365  0.00  0.00    +0.000 N 
ATOM     14  H   UNL     1       6.412   6.684  16.506  0.00  0.00    +0.000 HD
ATOM     15  H   UNL     1       5.324   7.403  15.402  0.00  0.00    +0.000 HD
ENDBRANCH   5  13
BRANCH   1  16
ATOM     16  C   UNL     1       5.038   4.436  17.685  0.00  0.00    +0.000 C 
ATOM     17  O   UNL     1       5.768   4.003  18.573  0.00  0.00    +0.000 OA
BRANCH  16  18
ATOM     18  O   UNL     1       4.991   3.901  16.425  0.00  0.00    +0.000 OA
BRANCH  18  20
ATOM     19  C   UNL     1       6.083   4.045  14.261  0.00  0.00    +0.000 C 
ATOM     20  C   UNL     1       6.261   3.836  15.757  0.00  0.00    +0.000 C 
ENDBRANCH  18  20
ENDBRANCH  16  18
ENDBRANCH   1  16
TORSDOF 5
ENDMDL
MODEL 5
REMARK VINA RESULT:      -6.6      3.577      5.277
REMARK  Name = 
REMARK  6 active torsions:
REMARK  status: ('A' for Active; 'I' for Inactive)
REMARK    1  A    between atoms: C_1  and  C_2
REMARK    2  A    between atoms: C_2  and  O_3
REMARK    3  A    between atoms: O_3  and  C_4
REMARK    4  A    between atoms: C_4  and  C_6
REMARK    5  A    between atoms: C_7  and  C_8
REMARK    6  A    between atoms: C_17  and  N_18
REMARK                            x       y       z     vdW  Elec       q    Type
REMARK                         _______ _______ _______ _____ _____    ______ ____
ROOT
ATOM      1  C   UNL     1       2.980   4.492  18.475  0.00  0.00    +0.000 A 
ATOM      2  C   UNL     1       3.404   5.838  18.840  0.00  0.00    +0.000 A 
ATOM      3  C   UNL     1       4.784   5.933  18.844  0.00  0.00    +0.000 A 
ATOM      4  S   UNL     1       5.556   4.478  18.421  0.00  0.00    +0.000 S 
ATOM      5  C   UNL     1       4.064   3.669  18.215  0.00  0.00    +0.000 A 
ENDROOT
BRANCH   2   6
ATOM      6  C   UNL     1       2.577   6.995  19.219  0.00  0.00    +0.000 A 
ATOM      7  C   UNL     1       2.006   7.079  20.500  0.00  0.00    +0.000 A 
ATOM      8  C   UNL     1       1.201   8.157  20.869  0.00  0.00    +0.000 A 
ATOM      9  C   UNL     1       0.990   9.201  19.978  0.00  0.00    +0.000 A 
ATOM     10  C   UNL     1       1.569   9.157  18.712  0.00  0.00    +0.000 A 
ATOM     11  C   UNL     1       2.337   8.058  18.336  0.00  0.00    +0.000 A 
ATOM     12  F   UNL     1       2.843   8.055  17.092  0.00  0.00    +0.000 F 
ENDBRANCH   2   6
BRANCH   5  13
ATOM     13  N   UNL     1       4.072   2.379  17.818  0.00  0.00    +0.000 N 
ATOM     14  H   UNL     1       3.987   2.166  16.828  0.00  0.00    +0.000 HD
ATOM     15  H   UNL     1       4.574   1.675  18.356  0.00  0.00    +0.000 HD
ENDBRANCH   5  13
BRANCH   1  16
ATOM     16  C   UNL     1       1.594   4.051  18.344  0.00  0.00    +0.000 C 
ATOM     17  O   UNL     1       1.040   3.887  17.259  0.00  0.00    +0.000 OA
BRANCH  16  18
ATOM     18  O   UNL     1       0.944   3.933  19.543  0.00  0.00    +0.000 OA
BRANCH  18  20
ATOM     19  C   UNL     1       1.829   3.039  21.621  0.00  0.00    +0.000 C 
ATOM     20  C   UNL     1       1.229   2.721  20.260  0.00  0.00    +0.000 C 
ENDBRANCH  18  20
ENDBRANCH  16  18
ENDBRANCH   1  16
TORSDOF 5
ENDMDL
MODEL 6
REMARK VINA RESULT:      -6.6      3.177      5.056
REMARK  Name = 
REMARK  6 active torsions:
REMARK  status: ('A' for Active; 'I' for Inactive)
REMARK    1  A    between atoms: C_1  and  C_2
REMARK    2  A    between atoms: C_2  and  O_3
REMARK    3  A    between atoms: O_3  and  C_4
REMARK    4  A    between atoms: C_4  and  C_6
REMARK    5  A    between atoms: C_7  and  C_8
REMARK    6  A    between atoms: C_17  and  N_18
REMARK                            x       y       z     vdW  Elec       q    Type
REMARK                         _______ _______ _______ _____ _____    ______ ____
ROOT
ATOM      1  C   UNL     1       3.667   5.023  19.077  0.00  0.00    +0.000 A 
ATOM      2  C   UNL     1       4.132   5.766  17.913  0.00  0.00    +0.000 A 
ATOM      3  C   UNL     1       3.506   6.997  17.834  0.00  0.00    +0.000 A 
ATOM      4  S   UNL     1       2.406   7.271  19.102  0.00  0.00    +0.000 S 
ATOM      5  C   UNL     1       2.735   5.746  19.803  0.00  0.00    +0.000 A 
ENDROOT
BRANCH   2   6
ATOM      6  C   UNL     1       5.089   5.350  16.874  0.00  0.00    +0.000 A 
ATOM      7  C   UNL     1       4.689   4.497  15.833  0.00  0.00    +0.000 A 
ATOM      8  C   UNL     1       5.588   4.073  14.853  0.00  0.00    +0.000 A 
ATOM      9  C   UNL     1       6.897   4.537  14.867  0.00  0.00    +0.000 A 
ATOM     10  C   UNL     1       7.312   5.408  15.871  0.00  0.00    +0.000 A 
ATOM     11  C   UNL     1       6.420   5.793  16.870  0.00  0.00    +0.000 A 
ATOM     12  F   UNL     1       6.884   6.607  17.831  0.00  0.00    +0.000 F 
ENDBRANCH   2   6
BRANCH   5  13
ATOM     13  N   UNL     1       2.108   5.409  20.951  0.00  0.00    +0.000 N 
ATOM     14  H   UNL     1       1.457   4.629  20.948  0.00  0.00    +0.000 HD
ATOM     15  H   UNL     1       2.549   5.584  21.852  0.00  0.00    +0.000 HD
ENDBRANCH   5  13
BRANCH   1  16
ATOM     16  C   UNL     1       4.142   3.702  19.480  0.00  0.00    +0.000 C 
ATOM     17  O   UNL     1       5.332   3.404  19.535  0.00  0.00    +0.000 OA
BRANCH  16  18
ATOM     18  O   UNL     1       3.132   2.803  19.694  0.00  0.00    +0.000 OA
BRANCH  18  20
ATOM     19  C   UNL     1       0.942   2.437  18.709  0.00  0.00    +0.000 C 
ATOM     20  C   UNL     1       2.448   2.378  18.504  0.00  0.00    +0.000 C 
ENDBRANCH  18  20
ENDBRANCH  16  18
ENDBRANCH   1  16
TORSDOF 5
ENDMDL
MODEL 7
REMARK VINA RESULT:      -6.6      1.133      1.583
REMARK  Name = 
REMARK  6 active torsions:
REMARK  status: ('A' for Active; 'I' for Inactive)
REMARK    1  A    between atoms: C_1  and  C_2
REMARK    2  A    between atoms: C_2  and  O_3
REMARK    3  A    between atoms: O_3  and  C_4
REMARK    4  A    between atoms: C_4  and  C_6
REMARK    5  A    between atoms: C_7  and  C_8
REMARK    6  A    between atoms: C_17  and  N_18
REMARK                            x       y       z     vdW  Elec       q    Type
REMARK                         _______ _______ _______ _____ _____    ______ ____
ROOT
ATOM      1  C   UNL     1       5.845   5.657  17.073  0.00  0.00    +0.000 A 
ATOM      2  C   UNL     1       5.173   5.041  18.210  0.00  0.00    +0.000 A 
ATOM      3  C   UNL     1       5.946   5.146  19.352  0.00  0.00    +0.000 A 
ATOM      4  S   UNL     1       7.419   5.955  19.092  0.00  0.00    +0.000 S 
ATOM      5  C   UNL     1       7.069   6.196  17.436  0.00  0.00    +0.000 A 
ENDROOT
BRANCH   2   6
ATOM      6  C   UNL     1       3.882   4.335  18.247  0.00  0.00    +0.000 A 
ATOM      7  C   UNL     1       2.711   4.959  17.784  0.00  0.00    +0.000 A 
ATOM      8  C   UNL     1       1.475   4.314  17.833  0.00  0.00    +0.000 A 
ATOM      9  C   UNL     1       1.392   3.009  18.301  0.00  0.00    +0.000 A 
ATOM     10  C   UNL     1       2.542   2.357  18.738  0.00  0.00    +0.000 A 
ATOM     11  C   UNL     1       3.766   3.021  18.726  0.00  0.00    +0.000 A 
ATOM     12  F   UNL     1       4.835   2.355  19.189  0.00  0.00    +0.000 F 
ENDBRANCH   2   6
BRANCH   5  13
ATOM     13  N   UNL     1       7.956   6.872  16.675  0.00  0.00    +0.000 N 
ATOM     14  H   UNL     1       7.950   7.888  16.693  0.00  0.00    +0.000 HD
ATOM     15  H   UNL     1       8.860   6.463  16.447  0.00  0.00    +0.000 HD
ENDBRANCH   5  13
BRANCH   1  16
ATOM     16  C   UNL     1       5.300   5.753  15.722  0.00  0.00    +0.000 C 
ATOM     17  O   UNL     1       4.999   6.821  15.193  0.00  0.00    +0.000 OA
BRANCH  16  18
ATOM     18  O   UNL     1       5.066   4.536  15.141  0.00  0.00    +0.000 OA
BRANCH  18  20
ATOM     19  C   UNL     1       6.096   3.718  13.099  0.00  0.00    +0.000 C 
ATOM     20  C   UNL     1       6.234   3.896  14.603  0.00  0.00    +0.000 C 
ENDBRANCH  18  20
ENDBRANCH  16  18
ENDBRANCH   1  16
TORSDOF 5
ENDMDL
MODEL 8
REMARK VINA RESULT:      -6.5      1.401      1.806
REMARK  Name = 
REMARK  6 active torsions:
REMARK  status: ('A' for Active; 'I' for Inactive)
REMARK    1  A    between atoms: C_1  and  C_2
REMARK    2  A    between atoms: C_2  and  O_3
REMARK    3  A    between atoms: O_3  and  C_4
REMARK    4  A    between atoms: C_4  and  C_6
REMARK    5  A    between atoms: C_7  and  C_8
REMARK    6  A    between atoms: C_17  and  N_18
REMARK                            x       y       z     vdW  Elec       q    Type
REMARK                         _______ _______ _______ _____ _____    ______ ____
ROOT
ATOM      1  C   UNL     1       5.689   6.248  17.575  0.00  0.00    +0.000 A 
ATOM      2  C   UNL     1       5.236   5.391  18.663  0.00  0.00    +0.000 A 
ATOM      3  C   UNL     1       6.280   5.093  19.521  0.00  0.00    +0.000 A 
ATOM      4  S   UNL     1       7.751   5.811  19.059  0.00  0.00    +0.000 S 
ATOM      5  C   UNL     1       7.036   6.549  17.691  0.00  0.00    +0.000 A 
ENDROOT
BRANCH   2   6
ATOM      6  C   UNL     1       3.898   4.821  18.893  0.00  0.00    +0.000 A 
ATOM      7  C   UNL     1       3.038   5.378  19.854  0.00  0.00    +0.000 A 
ATOM      8  C   UNL     1       1.776   4.837  20.101  0.00  0.00    +0.000 A 
ATOM      9  C   UNL     1       1.327   3.756  19.355  0.00  0.00    +0.000 A 
ATOM     10  C   UNL     1       2.148   3.203  18.375  0.00  0.00    +0.000 A 
ATOM     11  C   UNL     1       3.423   3.722  18.163  0.00  0.00    +0.000 A 
ATOM     12  F   UNL     1       4.183   3.128  17.229  0.00  0.00    +0.000 F 
ENDBRANCH   2   6
BRANCH   5  13
ATOM     13  N   UNL     1       7.800   7.335  16.903  0.00  0.00    +0.000 N 
ATOM     14  H   UNL     1       7.951   7.067  15.935  0.00  0.00    +0.000 HD
ATOM     15  H   UNL     1       7.861   8.337  17.074  0.00  0.00    +0.000 HD
ENDBRANCH   5  13
BRANCH   1  16
ATOM     16  C   UNL     1       4.842   6.777  16.510  0.00  0.00    +0.000 C 
ATOM     17  O   UNL     1       3.768   7.336  16.719  0.00  0.00    +0.000 OA
BRANCH  16  18
ATOM     18  O   UNL     1       5.314   6.505  15.253  0.00  0.00    +0.000 OA
BRANCH  18  20
ATOM     19  C   UNL     1       6.770   4.770  14.375  0.00  0.00    +0.000 C 
ATOM     20  C   UNL     1       5.397   5.106  14.937  0.00  0.00    +0.000 C 
ENDBRANCH  18  20
ENDBRANCH  16  18
ENDBRANCH   1  16
TORSDOF 5
ENDMDL
MODEL 9
REMARK VINA RESULT:      -6.5      1.050      1.175
REMARK  Name = 
REMARK  6 active torsions:
REMARK  status: ('A' for Active; 'I' for Inactive)
REMARK    1  A    between atoms: C_1  and  C_2
REMARK    2  A    between atoms: C_2  and  O_3
REMARK    3  A    between atoms: O_3  and  C_4
REMARK    4  A    between atoms: C_4  and  C_6
REMARK    5  A    between atoms: C_7  and  C_8
REMARK    6  A    between atoms: C_17  and  N_18
REMARK                            x       y       z     vdW  Elec       q    Type
REMARK                         _______ _______ _______ _____ _____    ______ ____
ROOT
ATOM      1  C   UNL     1       5.689   6.182  17.512  0.00  0.00    +0.000 A 
ATOM      2  C   UNL     1       5.243   5.149  18.438  0.00  0.00    +0.000 A 
ATOM      3  C   UNL     1       6.234   4.850  19.355  0.00  0.00    +0.000 A 
ATOM      4  S   UNL     1       7.648   5.768  19.135  0.00  0.00    +0.000 S 
ATOM      5  C   UNL     1       6.978   6.602  17.801  0.00  0.00    +0.000 A 
ENDROOT
BRANCH   2   6
ATOM      6  C   UNL     1       3.963   4.420  18.460  0.00  0.00    +0.000 A 
ATOM      7  C   UNL     1       3.814   3.214  17.756  0.00  0.00    +0.000 A 
ATOM      8  C   UNL     1       2.602   2.522  17.747  0.00  0.00    +0.000 A 
ATOM      9  C   UNL     1       1.527   2.998  18.486  0.00  0.00    +0.000 A 
ATOM     10  C   UNL     1       1.658   4.176  19.218  0.00  0.00    +0.000 A 
ATOM     11  C   UNL     1       2.857   4.883  19.188  0.00  0.00    +0.000 A 
ATOM     12  F   UNL     1       2.916   6.029  19.886  0.00  0.00    +0.000 F 
ENDBRANCH   2   6
BRANCH   5  13
ATOM     13  N   UNL     1       7.713   7.558  17.194  0.00  0.00    +0.000 N 
ATOM     14  H   UNL     1       8.203   8.241  17.765  0.00  0.00    +0.000 HD
ATOM     15  H   UNL     1       8.143   7.383  16.288  0.00  0.00    +0.000 HD
ENDBRANCH   5  13
BRANCH   1  16
ATOM     16  C   UNL     1       4.885   6.757  16.438  0.00  0.00    +0.000 C 
ATOM     17  O   UNL     1       3.827   7.350  16.633  0.00  0.00    +0.000 OA
BRANCH  16  18
ATOM     18  O   UNL     1       5.373   6.486  15.187  0.00  0.00    +0.000 OA
BRANCH  18  20
ATOM     19  C   UNL     1       6.857   4.787  14.287  0.00  0.00    +0.000 C 
ATOM     20  C   UNL     1       5.490   5.087  14.882  0.00  0.00    +0.000 C 
ENDBRANCH  18  20
ENDBRANCH  16  18
ENDBRANCH   1  16
TORSDOF 5
ENDMDL
