MODEL 1
REMARK VINA RESULT:      -7.0      0.000      0.000
REMARK  Name = 
REMARK  6 active torsions:
REMARK  status: ('A' for Active; 'I' for Inactive)
REMARK    1  A    between atoms: C_1  and  C_2
REMARK    2  A    between atoms: C_2  and  C_3
REMARK    3  A    between atoms: C_2  and  S_17
REMARK    4  A    between atoms: N_5  and  C_6
REMARK    5  A    between atoms: C_6  and  C_7
REMARK    6  A    between atoms: S_17  and  C_18
REMARK                            x       y       z     vdW  Elec       q    Type
REMARK                         _______ _______ _______ _____ _____    ______ ____
ROOT
ATOM      1  C   UNL     1       3.566   5.442  18.823  0.00  0.00    +0.000 C 
ENDROOT
BRANCH   1   2
ATOM      2  C   UNL     1       2.694   6.614  19.199  0.00  0.00    +0.000 A 
ATOM      3  C   UNL     1       2.032   6.643  20.435  0.00  0.00    +0.000 A 
ATOM      4  C   UNL     1       1.295   7.764  20.826  0.00  0.00    +0.000 A 
ATOM      5  C   UNL     1       1.202   8.868  19.978  0.00  0.00    +0.000 A 
ATOM      6  C   UNL     1       1.847   8.849  18.740  0.00  0.00    +0.000 A 
ATOM      7  C   UNL     1       2.571   7.721  18.343  0.00  0.00    +0.000 A 
ATOM      8  O   UNL     1       1.823   9.907  17.866  0.00  0.00    +0.000 OA
ATOM      9  C   UNL     1       1.395  11.114  18.513  0.00  0.00    +0.000 C 
ATOM     10  C   UNL     1       0.176  10.861  19.386  0.00  0.00    +0.000 C 
ATOM     11  O   UNL     1       0.478   9.937  20.439  0.00  0.00    +0.000 OA
ENDBRANCH   1   2
BRANCH   1  14
ATOM     12  C   UNL     1       5.927   5.255  18.207  0.00  0.00    +0.000 C 
ATOM     13  O   UNL     1       6.107   4.411  19.084  0.00  0.00    +0.000 OA
ATOM     14  N   UNL     1       4.681   5.800  17.972  0.00  0.00    +0.000 N 
ATOM     15  H   UNL     1       4.612   6.667  17.437  0.00  0.00    +0.000 HD
BRANCH  12  17
ATOM     16  C   UNL     1       7.434   7.157  17.524  0.00  0.00    +0.000 C 
ATOM     17  C   UNL     1       7.048   5.699  17.286  0.00  0.00    +0.000 C 
BRANCH  17  18
ATOM     18  S   UNL     1       6.589   5.420  15.585  0.00  0.00    +0.000 S 
ATOM     19  C   UNL     1       6.046   3.726  15.496  0.00  0.00    +0.000 C 
ATOM     20  O   UNL     1       5.441   6.258  15.289  0.00  0.00    +0.000 OA
ATOM     21  O   UNL     1       7.791   5.546  14.776  0.00  0.00    +0.000 OA
ENDBRANCH  17  18
ENDBRANCH  12  17
ENDBRANCH   1  14
TORSDOF 4
ENDMDL
MODEL 2
REMARK VINA RESULT:      -7.0      3.721      6.807
REMARK  Name = 
REMARK  6 active torsions:
REMARK  status: ('A' for Active; 'I' for Inactive)
REMARK    1  A    between atoms: C_1  and  C_2
REMARK    2  A    between atoms: C_2  and  C_3
REMARK    3  A    between atoms: C_2  and  S_17
REMARK    4  A    between atoms: N_5  and  C_6
REMARK    5  A    between atoms: C_6  and  C_7
REMARK    6  A    between atoms: S_17  and  C_18
REMARK                            x       y       z     vdW  Elec       q    Type
REMARK                         _______ _______ _______ _____ _____    ______ ____
ROOT
ATOM      1  C   UNL     1       4.651   5.425  19.689  0.00  0.00    +0.000 C 
ENDROOT
BRANCH   1   2
ATOM      2  C   UNL     1       5.423   5.454  18.394  0.00  0.00    +0.000 A 
ATOM      3  C   UNL     1       6.682   6.071  18.328  0.00  0.00    +0.000 A 
ATOM      4  C   UNL     1       7.441   6.023  17.155  0.00  0.00    +0.000 A 
ATOM      5  C   UNL     1       6.945   5.365  16.029  0.00  0.00    +0.000 A 
ATOM      6  C   UNL     1       5.690   4.756  16.078  0.00  0.00    +0.000 A 
ATOM      7  C   UNL     1       4.924   4.818  17.246  0.00  0.00    +0.000 A 
ATOM      8  O   UNL     1       5.149   4.068  15.020  0.00  0.00    +0.000 OA
ATOM      9  C   UNL     1       6.145   3.745  14.040  0.00  0.00    +0.000 C 
ATOM     10  C   UNL     1       7.035   4.943  13.751  0.00  0.00    +0.000 C 
ATOM     11  O   UNL     1       7.755   5.344  14.924  0.00  0.00    +0.000 OA
ENDBRANCH   1   2
BRANCH   1  14
ATOM     12  C   UNL     1       2.361   4.725  20.194  0.00  0.00    +0.000 C 
ATOM     13  O   UNL     1       2.064   5.874  20.520  0.00  0.00    +0.000 OA
ATOM     14  N   UNL     1       3.621   4.409  19.726  0.00  0.00    +0.000 N 
ATOM     15  H   UNL     1       3.916   3.432  19.717  0.00  0.00    +0.000 HD
BRANCH  12  17
ATOM     16  C   UNL     1       1.601   2.632  21.377  0.00  0.00    +0.000 C 
ATOM     17  C   UNL     1       1.344   3.599  20.223  0.00  0.00    +0.000 C 
BRANCH  17  18
ATOM     18  S   UNL     1       1.331   2.748  18.656  0.00  0.00    +0.000 S 
ATOM     19  C   UNL     1       1.330   4.018  17.408  0.00  0.00    +0.000 C 
ATOM     20  O   UNL     1       2.581   2.020  18.532  0.00  0.00    +0.000 OA
ATOM     21  O   UNL     1       0.073   2.024  18.556  0.00  0.00    +0.000 OA
ENDBRANCH  17  18
ENDBRANCH  12  17
ENDBRANCH   1  14
TORSDOF 4
ENDMDL
MODEL 3
REMARK VINA RESULT:      -7.0      1.207      1.999
REMARK  Name = 
REMARK  6 active torsions:
REMARK  status: ('A' for Active; 'I' for Inactive)
REMARK    1  A    between atoms: C_1  and  C_2
REMARK    2  A    between atoms: C_2  and  C_3
REMARK    3  A    between atoms: C_2  and  S_17
REMARK    4  A    between atoms: N_5  and  C_6
REMARK    5  A    between atoms: C_6  and  C_7
REMARK    6  A    between atoms: S_17  and  C_18
REMARK                            x       y       z     vdW  Elec       q    Type
REMARK                         _______ _______ _______ _____ _____    ______ ____
ROOT
ATOM      1  C   UNL     1       3.062   6.000  19.015  0.00  0.00    +0.000 C 
ENDROOT
BRANCH   1   2
ATOM      2  C   UNL     1       2.397   7.352  19.074  0.00  0.00    +0.000 A 
ATOM      3  C   UNL     1       2.283   8.143  17.921  0.00  0.00    +0.000 A 
ATOM      4  C   UNL     1       1.590   9.356  17.951  0.00  0.00    +0.000 A 
ATOM      5  C   UNL     1       1.012   9.800  19.140  0.00  0.00    +0.000 A 
ATOM      6  C   UNL     1       1.126   9.029  20.298  0.00  0.00    +0.000 A 
ATOM      7  C   UNL     1       1.833   7.823  20.272  0.00  0.00    +0.000 A 
ATOM      8  O   UNL     1       0.560   9.388  21.496  0.00  0.00    +0.000 OA
ATOM      9  C   UNL     1      -0.433  10.408  21.324  0.00  0.00    +0.000 C 
ATOM     10  C   UNL     1       0.068  11.504  20.397  0.00  0.00    +0.000 C 
ATOM     11  O   UNL     1       0.332  10.990  19.086  0.00  0.00    +0.000 OA
ENDBRANCH   1   2
BRANCH   1  14
ATOM     12  C   UNL     1       5.414   5.619  18.460  0.00  0.00    +0.000 C 
ATOM     13  O   UNL     1       5.663   5.338  19.632  0.00  0.00    +0.000 OA
ATOM     14  N   UNL     1       4.134   5.924  18.045  0.00  0.00    +0.000 N 
ATOM     15  H   UNL     1       4.002   6.401  17.152  0.00  0.00    +0.000 HD
BRANCH  12  17
ATOM     16  C   UNL     1       7.356   6.838  17.410  0.00  0.00    +0.000 C 
ATOM     17  C   UNL     1       6.486   5.583  17.387  0.00  0.00    +0.000 C 
BRANCH  17  18
ATOM     18  S   UNL     1       5.739   5.343  15.785  0.00  0.00    +0.000 S 
ATOM     19  C   UNL     1       7.057   4.839  14.699  0.00  0.00    +0.000 C 
ATOM     20  O   UNL     1       4.812   4.230  15.886  0.00  0.00    +0.000 OA
ATOM     21  O   UNL     1       5.253   6.635  15.326  0.00  0.00    +0.000 OA
ENDBRANCH  17  18
ENDBRANCH  12  17
ENDBRANCH   1  14
TORSDOF 4
ENDMDL
MODEL 4
REMARK VINA RESULT:      -6.9      3.183      4.561
REMARK  Name = 
REMARK  6 active torsions:
REMARK  status: ('A' for Active; 'I' for Inactive)
REMARK    1  A    between atoms: C_1  and  C_2
REMARK    2  A    between atoms: C_2  and  C_3
REMARK    3  A    between atoms: C_2  and  S_17
REMARK    4  A    between atoms: N_5  and  C_6
REMARK    5  A    between atoms: C_6  and  C_7
REMARK    6  A    between atoms: S_17  and  C_18
REMARK                            x       y       z     vdW  Elec       q    Type
REMARK                         _______ _______ _______ _____ _____    ______ ____
ROOT
ATOM      1  C   UNL     1       3.128   6.892  17.953  0.00  0.00    +0.000 C 
ENDROOT
BRANCH   1   2
ATOM      2  C   UNL     1       2.269   7.934  18.624  0.00  0.00    +0.000 A 
ATOM      3  C   UNL     1       1.681   8.964  17.875  0.00  0.00    +0.000 A 
ATOM      4  C   UNL     1       0.812   9.879  18.477  0.00  0.00    +0.000 A 
ATOM      5  C   UNL     1       0.528   9.781  19.839  0.00  0.00    +0.000 A 
ATOM      6  C   UNL     1       1.113   8.766  20.599  0.00  0.00    +0.000 A 
ATOM      7  C   UNL     1       1.995   7.861  20.000  0.00  0.00    +0.000 A 
ATOM      8  O   UNL     1       0.860   8.590  21.936  0.00  0.00    +0.000 OA
ATOM      9  C   UNL     1      -0.313   9.305  22.347  0.00  0.00    +0.000 C 
ATOM     10  C   UNL     1      -0.315  10.717  21.785  0.00  0.00    +0.000 C 
ATOM     11  O   UNL     1      -0.348  10.702  20.352  0.00  0.00    +0.000 OA
ENDBRANCH   1   2
BRANCH   1  14
ATOM     12  C   UNL     1       3.319   4.662  18.943  0.00  0.00    +0.000 C 
ATOM     13  O   UNL     1       4.300   5.017  19.595  0.00  0.00    +0.000 OA
ATOM     14  N   UNL     1       2.639   5.541  18.123  0.00  0.00    +0.000 N 
ATOM     15  H   UNL     1       2.012   5.168  17.408  0.00  0.00    +0.000 HD
BRANCH  12  17
ATOM     16  C   UNL     1       2.546   2.624  17.676  0.00  0.00    +0.000 C 
ATOM     17  C   UNL     1       2.756   3.258  19.049  0.00  0.00    +0.000 C 
BRANCH  17  18
ATOM     18  S   UNL     1       1.242   3.276  19.992  0.00  0.00    +0.000 S 
ATOM     19  C   UNL     1       1.617   2.479  21.539  0.00  0.00    +0.000 C 
ATOM     20  O   UNL     1       0.916   4.660  20.286  0.00  0.00    +0.000 OA
ATOM     21  O   UNL     1       0.273   2.451  19.288  0.00  0.00    +0.000 OA
ENDBRANCH  17  18
ENDBRANCH  12  17
ENDBRANCH   1  14
TORSDOF 4
ENDMDL
MODEL 5
REMARK VINA RESULT:      -6.8      1.218      1.939
REMARK  Name = 
REMARK  6 active torsions:
REMARK  status: ('A' for Active; 'I' for Inactive)
REMARK    1  A    between atoms: C_1  and  C_2
REMARK    2  A    between atoms: C_2  and  C_3
REMARK    3  A    between atoms: C_2  and  S_17
REMARK    4  A    between atoms: N_5  and  C_6
REMARK    5  A    between atoms: C_6  and  C_7
REMARK    6  A    between atoms: S_17  and  C_18
REMARK                            x       y       z     vdW  Elec       q    Type
REMARK                         _______ _______ _______ _____ _____    ______ ____
ROOT
ATOM      1  C   UNL     1       3.128   5.741  19.463  0.00  0.00    +0.000 C 
ENDROOT
BRANCH   1   2
ATOM      2  C   UNL     1       2.503   7.101  19.275  0.00  0.00    +0.000 A 
ATOM      3  C   UNL     1       2.558   7.745  18.030  0.00  0.00    +0.000 A 
ATOM      4  C   UNL     1       1.904   8.963  17.826  0.00  0.00    +0.000 A 
ATOM      5  C   UNL     1       1.195   9.559  18.870  0.00  0.00    +0.000 A 
ATOM      6  C   UNL     1       1.141   8.934  20.117  0.00  0.00    +0.000 A 
ATOM      7  C   UNL     1       1.809   7.724  20.326  0.00  0.00    +0.000 A 
ATOM      8  O   UNL     1       0.442   9.445  21.182  0.00  0.00    +0.000 OA
ATOM      9  C   UNL     1      -0.490  10.452  20.763  0.00  0.00    +0.000 C 
ATOM     10  C   UNL     1       0.155  11.418  19.783  0.00  0.00    +0.000 C 
ATOM     11  O   UNL     1       0.565  10.743  18.587  0.00  0.00    +0.000 OA
ENDBRANCH   1   2
BRANCH   1  14
ATOM     12  C   UNL     1       4.692   4.607  17.961  0.00  0.00    +0.000 C 
ATOM     13  O   UNL     1       3.806   3.837  17.592  0.00  0.00    +0.000 OA
ATOM     14  N   UNL     1       4.441   5.620  18.864  0.00  0.00    +0.000 N 
ATOM     15  H   UNL     1       5.225   6.063  19.344  0.00  0.00    +0.000 HD
BRANCH  12  17
ATOM     16  C   UNL     1       7.135   5.073  18.380  0.00  0.00    +0.000 C 
ATOM     17  C   UNL     1       6.099   4.533  17.397  0.00  0.00    +0.000 C 
BRANCH  17  18
ATOM     18  S   UNL     1       6.177   5.394  15.837  0.00  0.00    +0.000 S 
ATOM     19  C   UNL     1       5.841   4.173  14.585  0.00  0.00    +0.000 C 
ATOM     20  O   UNL     1       5.092   6.358  15.803  0.00  0.00    +0.000 OA
ATOM     21  O   UNL     1       7.544   5.855  15.653  0.00  0.00    +0.000 OA
ENDBRANCH  17  18
ENDBRANCH  12  17
ENDBRANCH   1  14
TORSDOF 4
ENDMDL
MODEL 6
REMARK VINA RESULT:      -6.8      3.113      4.495
REMARK  Name = 
REMARK  6 active torsions:
REMARK  status: ('A' for Active; 'I' for Inactive)
REMARK    1  A    between atoms: C_1  and  C_2
REMARK    2  A    between atoms: C_2  and  C_3
REMARK    3  A    between atoms: C_2  and  S_17
REMARK    4  A    between atoms: N_5  and  C_6
REMARK    5  A    between atoms: C_6  and  C_7
REMARK    6  A    between atoms: S_17  and  C_18
REMARK                            x       y       z     vdW  Elec       q    Type
REMARK                         _______ _______ _______ _____ _____    ______ ____
ROOT
ATOM      1  C   UNL     1       3.294   6.731  17.978  0.00  0.00    +0.000 C 
ENDROOT
BRANCH   1   2
ATOM      2  C   UNL     1       2.411   7.797  18.576  0.00  0.00    +0.000 A 
ATOM      3  C   UNL     1       1.856   8.800  17.768  0.00  0.00    +0.000 A 
ATOM      4  C   UNL     1       0.966   9.737  18.300  0.00  0.00    +0.000 A 
ATOM      5  C   UNL     1       0.629   9.689  19.653  0.00  0.00    +0.000 A 
ATOM      6  C   UNL     1       1.181   8.702  20.472  0.00  0.00    +0.000 A 
ATOM      7  C   UNL     1       2.084   7.775  19.942  0.00  0.00    +0.000 A 
ATOM      8  O   UNL     1       0.875   8.575  21.804  0.00  0.00    +0.000 OA
ATOM      9  C   UNL     1      -0.311   9.306  22.142  0.00  0.00    +0.000 C 
ATOM     10  C   UNL     1      -0.288  10.697  21.529  0.00  0.00    +0.000 C 
ATOM     11  O   UNL     1      -0.265  10.629  20.097  0.00  0.00    +0.000 OA
ENDBRANCH   1   2
BRANCH   1  14
ATOM     12  C   UNL     1       3.321   4.348  18.534  0.00  0.00    +0.000 C 
ATOM     13  O   UNL     1       2.880   4.065  17.420  0.00  0.00    +0.000 OA
ATOM     14  N   UNL     1       3.599   5.651  18.892  0.00  0.00    +0.000 N 
ATOM     15  H   UNL     1       3.706   5.882  19.882  0.00  0.00    +0.000 HD
BRANCH  12  17
ATOM     16  C   UNL     1       3.689   1.885  18.928  0.00  0.00    +0.000 C 
ATOM     17  C   UNL     1       3.647   3.276  19.557  0.00  0.00    +0.000 C 
BRANCH  17  18
ATOM     18  S   UNL     1       2.479   3.342  20.904  0.00  0.00    +0.000 S 
ATOM     19  C   UNL     1       0.916   2.827  20.223  0.00  0.00    +0.000 C 
ATOM     20  O   UNL     1       2.872   2.347  21.885  0.00  0.00    +0.000 OA
ATOM     21  O   UNL     1       2.352   4.733  21.311  0.00  0.00    +0.000 OA
ENDBRANCH  17  18
ENDBRANCH  12  17
ENDBRANCH   1  14
TORSDOF 4
ENDMDL
MODEL 7
REMARK VINA RESULT:      -6.7      4.282      7.098
REMARK  Name = 
REMARK  6 active torsions:
REMARK  status: ('A' for Active; 'I' for Inactive)
REMARK    1  A    between atoms: C_1  and  C_2
REMARK    2  A    between atoms: C_2  and  C_3
REMARK    3  A    between atoms: C_2  and  S_17
REMARK    4  A    between atoms: N_5  and  C_6
REMARK    5  A    between atoms: C_6  and  C_7
REMARK    6  A    between atoms: S_17  and  C_18
REMARK                            x       y       z     vdW  Elec       q    Type
REMARK                         _______ _______ _______ _____ _____    ______ ____
ROOT
ATOM      1  C   UNL     1       6.067   4.971  18.487  0.00  0.00    +0.000 C 
ENDROOT
BRANCH   1   2
ATOM      2  C   UNL     1       6.110   4.638  17.017  0.00  0.00    +0.000 A 
ATOM      3  C   UNL     1       5.073   3.903  16.422  0.00  0.00    +0.000 A 
ATOM      4  C   UNL     1       5.062   3.668  15.044  0.00  0.00    +0.000 A 
ATOM      5  C   UNL     1       6.096   4.156  14.245  0.00  0.00    +0.000 A 
ATOM      6  C   UNL     1       7.140   4.880  14.825  0.00  0.00    +0.000 A 
ATOM      7  C   UNL     1       7.158   5.101  16.205  0.00  0.00    +0.000 A 
ATOM      8  O   UNL     1       8.175   5.414  14.099  0.00  0.00    +0.000 OA
ATOM      9  C   UNL     1       7.866   5.461  12.699  0.00  0.00    +0.000 C 
ATOM     10  C   UNL     1       7.249   4.151  12.234  0.00  0.00    +0.000 C 
ATOM     11  O   UNL     1       6.005   3.902  12.901  0.00  0.00    +0.000 OA
ENDBRANCH   1   2
BRANCH   1  14
ATOM     12  C   UNL     1       4.343   3.734  19.705  0.00  0.00    +0.000 C 
ATOM     13  O   UNL     1       5.113   2.788  19.868  0.00  0.00    +0.000 OA
ATOM     14  N   UNL     1       4.741   4.888  19.062  0.00  0.00    +0.000 N 
ATOM     15  H   UNL     1       4.030   5.532  18.712  0.00  0.00    +0.000 HD
BRANCH  12  17
ATOM     16  C   UNL     1       2.757   2.652  21.340  0.00  0.00    +0.000 C 
ATOM     17  C   UNL     1       2.930   3.716  20.258  0.00  0.00    +0.000 C 
BRANCH  17  18
ATOM     18  S   UNL     1       1.758   3.489  18.933  0.00  0.00    +0.000 S 
ATOM     19  C   UNL     1       2.369   2.125  17.966  0.00  0.00    +0.000 C 
ATOM     20  O   UNL     1       0.497   3.073  19.519  0.00  0.00    +0.000 OA
ATOM     21  O   UNL     1       1.798   4.680  18.098  0.00  0.00    +0.000 OA
ENDBRANCH  17  18
ENDBRANCH  12  17
ENDBRANCH   1  14
TORSDOF 4
ENDMDL
MODEL 8
REMARK VINA RESULT:      -6.7      1.440      2.532
REMARK  Name = 
REMARK  6 active torsions:
REMARK  status: ('A' for Active; 'I' for Inactive)
REMARK    1  A    between atoms: C_1  and  C_2
REMARK    2  A    between atoms: C_2  and  C_3
REMARK    3  A    between atoms: C_2  and  S_17
REMARK    4  A    between atoms: N_5  and  C_6
REMARK    5  A    between atoms: C_6  and  C_7
REMARK    6  A    between atoms: S_17  and  C_18
REMARK                            x       y       z     vdW  Elec       q    Type
REMARK                         _______ _______ _______ _____ _____    ______ ____
ROOT
ATOM      1  C   UNL     1       3.011   5.998  18.711  0.00  0.00    +0.000 C 
ENDROOT
BRANCH   1   2
ATOM      2  C   UNL     1       2.344   7.314  19.023  0.00  0.00    +0.000 A 
ATOM      3  C   UNL     1       2.121   8.259  18.010  0.00  0.00    +0.000 A 
ATOM      4  C   UNL     1       1.424   9.441  18.275  0.00  0.00    +0.000 A 
ATOM      5  C   UNL     1       0.950   9.698  19.562  0.00  0.00    +0.000 A 
ATOM      6  C   UNL     1       1.173   8.772  20.582  0.00  0.00    +0.000 A 
ATOM      7  C   UNL     1       1.884   7.597  20.320  0.00  0.00    +0.000 A 
ATOM      8  O   UNL     1       0.713   8.943  21.864  0.00  0.00    +0.000 OA
ATOM      9  C   UNL     1      -0.300   9.957  21.927  0.00  0.00    +0.000 C 
ATOM     10  C   UNL     1       0.108  11.185  21.129  0.00  0.00    +0.000 C 
ATOM     11  O   UNL     1       0.259  10.869  19.739  0.00  0.00    +0.000 OA
ENDBRANCH   1   2
BRANCH   1  14
ATOM     12  C   UNL     1       4.378   4.874  17.021  0.00  0.00    +0.000 C 
ATOM     13  O   UNL     1       4.077   3.775  17.485  0.00  0.00    +0.000 OA
ATOM     14  N   UNL     1       3.863   6.044  17.542  0.00  0.00    +0.000 N 
ATOM     15  H   UNL     1       4.321   6.929  17.322  0.00  0.00    +0.000 HD
BRANCH  12  17
ATOM     16  C   UNL     1       5.498   3.667  15.112  0.00  0.00    +0.000 C 
ATOM     17  C   UNL     1       5.281   5.008  15.809  0.00  0.00    +0.000 C 
BRANCH  17  18
ATOM     18  S   UNL     1       6.832   5.750  16.283  0.00  0.00    +0.000 S 
ATOM     19  C   UNL     1       7.488   4.726  17.584  0.00  0.00    +0.000 C 
ATOM     20  O   UNL     1       7.739   5.649  15.154  0.00  0.00    +0.000 OA
ATOM     21  O   UNL     1       6.543   7.058  16.849  0.00  0.00    +0.000 OA
ENDBRANCH  17  18
ENDBRANCH  12  17
ENDBRANCH   1  14
TORSDOF 4
ENDMDL
MODEL 9
REMARK VINA RESULT:      -6.7      2.870      7.304
REMARK  Name = 
REMARK  6 active torsions:
REMARK  status: ('A' for Active; 'I' for Inactive)
REMARK    1  A    between atoms: C_1  and  C_2
REMARK    2  A    between atoms: C_2  and  C_3
REMARK    3  A    between atoms: C_2  and  S_17
REMARK    4  A    between atoms: N_5  and  C_6
REMARK    5  A    between atoms: C_6  and  C_7
REMARK    6  A    between atoms: S_17  and  C_18
REMARK                            x       y       z     vdW  Elec       q    Type
REMARK                         _______ _______ _______ _____ _____    ______ ____
ROOT
ATOM      1  C   UNL     1       1.918   8.239  17.988  0.00  0.00    +0.000 C 
ENDROOT
BRANCH   1   2
ATOM      2  C   UNL     1       3.079   7.298  18.185  0.00  0.00    +0.000 A 
ATOM      3  C   UNL     1       3.080   6.377  19.243  0.00  0.00    +0.000 A 
ATOM      4  C   UNL     1       4.111   5.443  19.378  0.00  0.00    +0.000 A 
ATOM      5  C   UNL     1       5.161   5.425  18.460  0.00  0.00    +0.000 A 
ATOM      6  C   UNL     1       5.179   6.341  17.407  0.00  0.00    +0.000 A 
ATOM      7  C   UNL     1       4.156   7.286  17.282  0.00  0.00    +0.000 A 
ATOM      8  O   UNL     1       6.162   6.366  16.450  0.00  0.00    +0.000 OA
ATOM      9  C   UNL     1       6.925   5.152  16.450  0.00  0.00    +0.000 C 
ATOM     10  C   UNL     1       7.295   4.740  17.866  0.00  0.00    +0.000 C 
ATOM     11  O   UNL     1       6.124   4.467  18.647  0.00  0.00    +0.000 OA
ENDBRANCH   1   2
BRANCH   1  14
ATOM     12  C   UNL     1       0.510   9.869  19.150  0.00  0.00    +0.000 C 
ATOM     13  O   UNL     1      -0.199   9.994  18.152  0.00  0.00    +0.000 OA
ATOM     14  N   UNL     1       1.569   8.985  19.179  0.00  0.00    +0.000 N 
ATOM     15  H   UNL     1       2.284   9.091  19.900  0.00  0.00    +0.000 HD
BRANCH  12  17
ATOM     16  C   UNL     1       1.193  11.793  20.629  0.00  0.00    +0.000 C 
ATOM     17  C   UNL     1       0.224  10.630  20.431  0.00  0.00    +0.000 C 
BRANCH  17  18
ATOM     18  S   UNL     1       0.257   9.516  21.823  0.00  0.00    +0.000 S 
ATOM     19  C   UNL     1      -0.771  10.260  23.072  0.00  0.00    +0.000 C 
ATOM     20  O   UNL     1      -0.382   8.276  21.419  0.00  0.00    +0.000 OA
ATOM     21  O   UNL     1       1.620   9.482  22.331  0.00  0.00    +0.000 OA
ENDBRANCH  17  18
ENDBRANCH  12  17
ENDBRANCH   1  14
TORSDOF 4
ENDMDL
