MODEL 1
REMARK VINA RESULT:      -8.6      0.000      0.000
REMARK  Name = 
REMARK  10 active torsions:
REMARK  status: ('A' for Active; 'I' for Inactive)
REMARK    1  A    between atoms: C_1  and  O_2
REMARK    2  A    between atoms: O_2  and  C_3
REMARK    3  A    between atoms: C_5  and  C_6
REMARK    4  A    between atoms: C_7  and  C_8
REMARK    5  A    between atoms: N_10  and  O_11
REMARK    6  A    between atoms: C_14  and  O_15
REMARK    7  A    between atoms: O_15  and  C_16
REMARK    8  A    between atoms: C_16  and  C_17
REMARK    9  A    between atoms: N_19  and  C_20
REMARK   10  A    between atoms: C_24  and  C_25
REMARK                            x       y       z     vdW  Elec       q    Type
REMARK                         _______ _______ _______ _____ _____    ______ ____
ROOT
ATOM      1  C   UNL     1       3.321   2.847  18.418  0.00  0.00    +0.000 A 
ATOM      2  C   UNL     1       3.968   3.272  17.243  0.00  0.00    +0.000 A 
ATOM      3  C   UNL     1       5.043   4.169  17.270  0.00  0.00    +0.000 A 
ATOM      4  C   UNL     1       5.495   4.618  18.507  0.00  0.00    +0.000 A 
ATOM      5  C   UNL     1       4.880   4.187  19.680  0.00  0.00    +0.000 A 
ATOM      6  C   UNL     1       3.776   3.314  19.658  0.00  0.00    +0.000 A 
ENDROOT
BRANCH   1   8
ATOM      7  C   UNL     1       0.978   2.304  18.469  0.00  0.00    +0.000 C 
ATOM      8  O   UNL     1       2.316   1.957  18.151  0.00  0.00    +0.000 OA
ENDBRANCH   1   8
BRANCH   3   9
ATOM      9  C   UNL     1       5.776   4.596  16.072  0.00  0.00    +0.000 C 
ATOM     10  C   UNL     1       6.022   3.811  15.016  0.00  0.00    +0.000 C 
BRANCH  10  11
ATOM     11  C   UNL     1       6.786   4.352  13.869  0.00  0.00    +0.000 C 
ATOM     12  O   UNL     1       6.649   3.967  12.713  0.00  0.00    +0.000 OA
ATOM     13  N   UNL     1       7.666   5.337  14.226  0.00  0.00    +0.000 N 
ATOM     14  H   UNL     1       7.835   5.671  15.166  0.00  0.00    +0.000 HD
BRANCH  13  15
ATOM     15  O   UNL     1       8.440   5.903  13.191  0.00  0.00    +0.000 OA
ATOM     16  H   UNL     1       9.306   6.047  13.632  0.00  0.00    +0.000 HD
ENDBRANCH  13  15
ENDBRANCH  10  11
ENDBRANCH   3   9
BRANCH   6  17
ATOM     17  O   UNL     1       3.165   2.888  20.817  0.00  0.00    +0.000 OA
BRANCH  17  18
ATOM     18  C   UNL     1       2.552   3.936  21.565  0.00  0.00    +0.000 C 
BRANCH  18  19
ATOM     19  C   UNL     1       1.831   4.991  20.746  0.00  0.00    +0.000 C 
ATOM     20  O   UNL     1       0.666   4.803  20.403  0.00  0.00    +0.000 OA
ATOM     21  N   UNL     1       2.601   6.094  20.443  0.00  0.00    +0.000 N 
ATOM     22  H   UNL     1       3.599   6.001  20.622  0.00  0.00    +0.000 HD
BRANCH  21  23
ATOM     23  C   UNL     1       2.137   7.282  19.858  0.00  0.00    +0.000 A 
ATOM     24  C   UNL     1       2.338   7.594  18.511  0.00  0.00    +0.000 A 
ATOM     25  C   UNL     1       1.849   8.783  17.970  0.00  0.00    +0.000 A 
ATOM     26  C   UNL     1       1.152   9.677  18.778  0.00  0.00    +0.000 A 
ATOM     27  C   UNL     1       0.938   9.387  20.131  0.00  0.00    +0.000 A 
ATOM     28  C   UNL     1       1.422   8.177  20.661  0.00  0.00    +0.000 A 
BRANCH  27  29
ATOM     29  C   UNL     1       0.206  10.359  21.021  0.00  0.00    +0.000 C 
ATOM     30  F   UNL     1      -1.012  10.731  20.540  0.00  0.00    +0.000 F 
ATOM     31  F   UNL     1      -0.020   9.854  22.265  0.00  0.00    +0.000 F 
ATOM     32  F   UNL     1       0.903  11.514  21.209  0.00  0.00    +0.000 F 
ENDBRANCH  27  29
ENDBRANCH  21  23
ENDBRANCH  18  19
ENDBRANCH  17  18
ENDBRANCH   6  17
TORSDOF 9
ENDMDL
MODEL 2
REMARK VINA RESULT:      -8.5      2.794      3.964
REMARK  Name = 
REMARK  10 active torsions:
REMARK  status: ('A' for Active; 'I' for Inactive)
REMARK    1  A    between atoms: C_1  and  O_2
REMARK    2  A    between atoms: O_2  and  C_3
REMARK    3  A    between atoms: C_5  and  C_6
REMARK    4  A    between atoms: C_7  and  C_8
REMARK    5  A    between atoms: N_10  and  O_11
REMARK    6  A    between atoms: C_14  and  O_15
REMARK    7  A    between atoms: O_15  and  C_16
REMARK    8  A    between atoms: C_16  and  C_17
REMARK    9  A    between atoms: N_19  and  C_20
REMARK   10  A    between atoms: C_24  and  C_25
REMARK                            x       y       z     vdW  Elec       q    Type
REMARK                         _______ _______ _______ _____ _____    ______ ____
ROOT
ATOM      1  C   UNL     1       3.179   5.170  19.519  0.00  0.00    +0.000 A 
ATOM      2  C   UNL     1       4.043   4.963  18.428  0.00  0.00    +0.000 A 
ATOM      3  C   UNL     1       4.208   5.919  17.419  0.00  0.00    +0.000 A 
ATOM      4  C   UNL     1       3.513   7.120  17.530  0.00  0.00    +0.000 A 
ATOM      5  C   UNL     1       2.672   7.349  18.617  0.00  0.00    +0.000 A 
ATOM      6  C   UNL     1       2.475   6.378  19.616  0.00  0.00    +0.000 A 
ENDROOT
BRANCH   1   8
ATOM      7  C   UNL     1       3.418   2.805  19.888  0.00  0.00    +0.000 C 
ATOM      8  O   UNL     1       3.195   4.113  20.389  0.00  0.00    +0.000 OA
ENDBRANCH   1   8
BRANCH   3   9
ATOM      9  C   UNL     1       5.137   5.762  16.293  0.00  0.00    +0.000 C 
ATOM     10  C   UNL     1       5.399   4.598  15.685  0.00  0.00    +0.000 C 
BRANCH  10  11
ATOM     11  C   UNL     1       6.367   4.564  14.566  0.00  0.00    +0.000 C 
ATOM     12  O   UNL     1       6.314   3.764  13.639  0.00  0.00    +0.000 OA
ATOM     13  N   UNL     1       7.338   5.523  14.666  0.00  0.00    +0.000 N 
ATOM     14  H   UNL     1       7.443   6.187  15.422  0.00  0.00    +0.000 HD
BRANCH  13  15
ATOM     15  O   UNL     1       8.307   5.555  13.642  0.00  0.00    +0.000 OA
ATOM     16  H   UNL     1       8.617   4.622  13.617  0.00  0.00    +0.000 HD
ENDBRANCH  13  15
ENDBRANCH  10  11
ENDBRANCH   3   9
BRANCH   6  17
ATOM     17  O   UNL     1       1.643   6.602  20.691  0.00  0.00    +0.000 OA
BRANCH  17  18
ATOM     18  C   UNL     1       1.650   7.950  21.154  0.00  0.00    +0.000 C 
BRANCH  18  19
ATOM     19  C   UNL     1       0.351   8.713  20.975  0.00  0.00    +0.000 C 
ATOM     20  O   UNL     1      -0.499   8.684  21.862  0.00  0.00    +0.000 OA
ATOM     21  N   UNL     1       0.248   9.377  19.770  0.00  0.00    +0.000 N 
ATOM     22  H   UNL     1       0.944   9.131  19.068  0.00  0.00    +0.000 HD
BRANCH  21  23
ATOM     23  C   UNL     1      -0.756  10.292  19.421  0.00  0.00    +0.000 A 
ATOM     24  C   UNL     1      -1.102  11.381  20.225  0.00  0.00    +0.000 A 
ATOM     25  C   UNL     1      -2.101  12.273  19.833  0.00  0.00    +0.000 A 
ATOM     26  C   UNL     1      -2.767  12.079  18.626  0.00  0.00    +0.000 A 
ATOM     27  C   UNL     1      -2.439  10.996  17.803  0.00  0.00    +0.000 A 
ATOM     28  C   UNL     1      -1.418  10.113  18.202  0.00  0.00    +0.000 A 
BRANCH  27  29
ATOM     29  C   UNL     1      -3.171  10.762  16.506  0.00  0.00    +0.000 C 
ATOM     30  F   UNL     1      -3.296   9.447  16.178  0.00  0.00    +0.000 F 
ATOM     31  F   UNL     1      -4.436  11.266  16.528  0.00  0.00    +0.000 F 
ATOM     32  F   UNL     1      -2.552  11.355  15.448  0.00  0.00    +0.000 F 
ENDBRANCH  27  29
ENDBRANCH  21  23
ENDBRANCH  18  19
ENDBRANCH  17  18
ENDBRANCH   6  17
TORSDOF 9
ENDMDL
MODEL 3
REMARK VINA RESULT:      -8.4      2.287      3.441
REMARK  Name = 
REMARK  10 active torsions:
REMARK  status: ('A' for Active; 'I' for Inactive)
REMARK    1  A    between atoms: C_1  and  O_2
REMARK    2  A    between atoms: O_2  and  C_3
REMARK    3  A    between atoms: C_5  and  C_6
REMARK    4  A    between atoms: C_7  and  C_8
REMARK    5  A    between atoms: N_10  and  O_11
REMARK    6  A    between atoms: C_14  and  O_15
REMARK    7  A    between atoms: O_15  and  C_16
REMARK    8  A    between atoms: C_16  and  C_17
REMARK    9  A    between atoms: N_19  and  C_20
REMARK   10  A    between atoms: C_24  and  C_25
REMARK                            x       y       z     vdW  Elec       q    Type
REMARK                         _______ _______ _______ _____ _____    ______ ____
ROOT
ATOM      1  C   UNL     1       6.030   5.043  18.501  0.00  0.00    +0.000 A 
ATOM      2  C   UNL     1       6.587   4.570  17.298  0.00  0.00    +0.000 A 
ATOM      3  C   UNL     1       5.790   4.177  16.216  0.00  0.00    +0.000 A 
ATOM      4  C   UNL     1       4.410   4.296  16.337  0.00  0.00    +0.000 A 
ATOM      5  C   UNL     1       3.845   4.786  17.513  0.00  0.00    +0.000 A 
ATOM      6  C   UNL     1       4.638   5.149  18.618  0.00  0.00    +0.000 A 
ENDROOT
BRANCH   1   8
ATOM      7  C   UNL     1       8.023   6.286  19.021  0.00  0.00    +0.000 C 
ATOM      8  O   UNL     1       6.997   5.388  19.408  0.00  0.00    +0.000 OA
ENDBRANCH   1   8
BRANCH   3   9
ATOM      9  C   UNL     1       6.333   3.727  14.929  0.00  0.00    +0.000 C 
ATOM     10  C   UNL     1       5.843   4.085  13.734  0.00  0.00    +0.000 C 
BRANCH  10  11
ATOM     11  C   UNL     1       6.469   3.553  12.503  0.00  0.00    +0.000 C 
ATOM     12  O   UNL     1       7.257   4.186  11.809  0.00  0.00    +0.000 OA
ATOM     13  N   UNL     1       6.082   2.274  12.211  0.00  0.00    +0.000 N 
ATOM     14  H   UNL     1       5.415   1.721  12.735  0.00  0.00    +0.000 HD
BRANCH  13  15
ATOM     15  O   UNL     1       6.627   1.695  11.047  0.00  0.00    +0.000 OA
ATOM     16  H   UNL     1       6.202   2.219  10.333  0.00  0.00    +0.000 HD
ENDBRANCH  13  15
ENDBRANCH  10  11
ENDBRANCH   3   9
BRANCH   6  17
ATOM     17  O   UNL     1       4.082   5.632  19.782  0.00  0.00    +0.000 OA
BRANCH  17  18
ATOM     18  C   UNL     1       2.663   5.761  19.732  0.00  0.00    +0.000 C 
BRANCH  18  19
ATOM     19  C   UNL     1       2.130   7.179  19.820  0.00  0.00    +0.000 C 
ATOM     20  O   UNL     1       2.282   7.945  18.872  0.00  0.00    +0.000 OA
ATOM     21  N   UNL     1       1.516   7.478  21.019  0.00  0.00    +0.000 N 
ATOM     22  H   UNL     1       1.656   6.804  21.768  0.00  0.00    +0.000 HD
BRANCH  21  23
ATOM     23  C   UNL     1       0.786   8.644  21.298  0.00  0.00    +0.000 A 
ATOM     24  C   UNL     1       0.527   9.083  22.598  0.00  0.00    +0.000 A 
ATOM     25  C   UNL     1      -0.194  10.255  22.828  0.00  0.00    +0.000 A 
ATOM     26  C   UNL     1      -0.666  11.000  21.751  0.00  0.00    +0.000 A 
ATOM     27  C   UNL     1      -0.419  10.581  20.439  0.00  0.00    +0.000 A 
ATOM     28  C   UNL     1       0.323   9.406  20.220  0.00  0.00    +0.000 A 
BRANCH  27  29
ATOM     29  C   UNL     1      -0.948  11.366  19.266  0.00  0.00    +0.000 C 
ATOM     30  F   UNL     1      -1.740  10.638  18.433  0.00  0.00    +0.000 F 
ATOM     31  F   UNL     1      -1.695  12.437  19.653  0.00  0.00    +0.000 F 
ATOM     32  F   UNL     1       0.050  11.870  18.489  0.00  0.00    +0.000 F 
ENDBRANCH  27  29
ENDBRANCH  21  23
ENDBRANCH  18  19
ENDBRANCH  17  18
ENDBRANCH   6  17
TORSDOF 9
ENDMDL
MODEL 4
REMARK VINA RESULT:      -8.3      2.634      3.584
REMARK  Name = 
REMARK  10 active torsions:
REMARK  status: ('A' for Active; 'I' for Inactive)
REMARK    1  A    between atoms: C_1  and  O_2
REMARK    2  A    between atoms: O_2  and  C_3
REMARK    3  A    between atoms: C_5  and  C_6
REMARK    4  A    between atoms: C_7  and  C_8
REMARK    5  A    between atoms: N_10  and  O_11
REMARK    6  A    between atoms: C_14  and  O_15
REMARK    7  A    between atoms: O_15  and  C_16
REMARK    8  A    between atoms: C_16  and  C_17
REMARK    9  A    between atoms: N_19  and  C_20
REMARK   10  A    between atoms: C_24  and  C_25
REMARK                            x       y       z     vdW  Elec       q    Type
REMARK                         _______ _______ _______ _____ _____    ______ ____
ROOT
ATOM      1  C   UNL     1       2.213   4.515  18.696  0.00  0.00    +0.000 A 
ATOM      2  C   UNL     1       3.027   4.090  17.630  0.00  0.00    +0.000 A 
ATOM      3  C   UNL     1       4.099   4.861  17.162  0.00  0.00    +0.000 A 
ATOM      4  C   UNL     1       4.374   6.065  17.802  0.00  0.00    +0.000 A 
ATOM      5  C   UNL     1       3.591   6.487  18.875  0.00  0.00    +0.000 A 
ATOM      6  C   UNL     1       2.490   5.735  19.328  0.00  0.00    +0.000 A 
ENDROOT
BRANCH   1   8
ATOM      7  C   UNL     1       1.617   2.366  19.597  0.00  0.00    +0.000 C 
ATOM      8  O   UNL     1       1.245   3.594  18.995  0.00  0.00    +0.000 OA
ENDBRANCH   1   8
BRANCH   3   9
ATOM      9  C   UNL     1       5.002   4.430  16.088  0.00  0.00    +0.000 C 
ATOM     10  C   UNL     1       5.841   5.243  15.433  0.00  0.00    +0.000 C 
BRANCH  10  11
ATOM     11  C   UNL     1       6.695   4.692  14.357  0.00  0.00    +0.000 C 
ATOM     12  O   UNL     1       7.780   5.164  14.036  0.00  0.00    +0.000 OA
ATOM     13  N   UNL     1       6.153   3.593  13.749  0.00  0.00    +0.000 N 
ATOM     14  H   UNL     1       5.251   3.183  13.957  0.00  0.00    +0.000 HD
BRANCH  13  15
ATOM     15  O   UNL     1       6.901   3.011  12.705  0.00  0.00    +0.000 OA
ATOM     16  H   UNL     1       6.632   2.067  12.755  0.00  0.00    +0.000 HD
ENDBRANCH  13  15
ENDBRANCH  10  11
ENDBRANCH   3   9
BRANCH   6  17
ATOM     17  O   UNL     1       1.714   6.151  20.387  0.00  0.00    +0.000 OA
BRANCH  17  18
ATOM     18  C   UNL     1       1.966   7.495  20.792  0.00  0.00    +0.000 C 
BRANCH  18  19
ATOM     19  C   UNL     1       0.798   8.453  20.652  0.00  0.00    +0.000 C 
ATOM     20  O   UNL     1      -0.086   8.464  21.505  0.00  0.00    +0.000 OA
ATOM     21  N   UNL     1       0.843   9.236  19.517  0.00  0.00    +0.000 N 
ATOM     22  H   UNL     1       1.527   8.959  18.815  0.00  0.00    +0.000 HD
BRANCH  21  23
ATOM     23  C   UNL     1      -0.004  10.317  19.232  0.00  0.00    +0.000 A 
ATOM     24  C   UNL     1       0.071  11.538  19.906  0.00  0.00    +0.000 A 
ATOM     25  C   UNL     1      -0.786  12.590  19.582  0.00  0.00    +0.000 A 
ATOM     26  C   UNL     1      -1.733  12.426  18.575  0.00  0.00    +0.000 A 
ATOM     27  C   UNL     1      -1.828  11.212  17.884  0.00  0.00    +0.000 A 
ATOM     28  C   UNL     1      -0.947  10.165  18.210  0.00  0.00    +0.000 A 
BRANCH  27  29
ATOM     29  C   UNL     1      -2.866  11.016  16.809  0.00  0.00    +0.000 C 
ATOM     30  F   UNL     1      -3.445   9.784  16.826  0.00  0.00    +0.000 F 
ATOM     31  F   UNL     1      -3.888  11.912  16.905  0.00  0.00    +0.000 F 
ATOM     32  F   UNL     1      -2.352  11.170  15.558  0.00  0.00    +0.000 F 
ENDBRANCH  27  29
ENDBRANCH  21  23
ENDBRANCH  18  19
ENDBRANCH  17  18
ENDBRANCH   6  17
TORSDOF 9
ENDMDL
MODEL 5
REMARK VINA RESULT:      -8.2      2.837      4.037
REMARK  Name = 
REMARK  10 active torsions:
REMARK  status: ('A' for Active; 'I' for Inactive)
REMARK    1  A    between atoms: C_1  and  O_2
REMARK    2  A    between atoms: O_2  and  C_3
REMARK    3  A    between atoms: C_5  and  C_6
REMARK    4  A    between atoms: C_7  and  C_8
REMARK    5  A    between atoms: N_10  and  O_11
REMARK    6  A    between atoms: C_14  and  O_15
REMARK    7  A    between atoms: O_15  and  C_16
REMARK    8  A    between atoms: C_16  and  C_17
REMARK    9  A    between atoms: N_19  and  C_20
REMARK   10  A    between atoms: C_24  and  C_25
REMARK                            x       y       z     vdW  Elec       q    Type
REMARK                         _______ _______ _______ _____ _____    ______ ____
ROOT
ATOM      1  C   UNL     1       2.985   5.132  19.251  0.00  0.00    +0.000 A 
ATOM      2  C   UNL     1       3.812   4.936  18.129  0.00  0.00    +0.000 A 
ATOM      3  C   UNL     1       4.154   5.984  17.266  0.00  0.00    +0.000 A 
ATOM      4  C   UNL     1       3.681   7.259  17.560  0.00  0.00    +0.000 A 
ATOM      5  C   UNL     1       2.881   7.473  18.680  0.00  0.00    +0.000 A 
ATOM      6  C   UNL     1       2.503   6.418  19.531  0.00  0.00    +0.000 A 
ENDROOT
BRANCH   1   8
ATOM      7  C   UNL     1       3.189   2.739  19.378  0.00  0.00    +0.000 C 
ATOM      8  O   UNL     1       2.804   3.974  19.958  0.00  0.00    +0.000 OA
ENDBRANCH   1   8
BRANCH   3   9
ATOM      9  C   UNL     1       5.054   5.831  16.118  0.00  0.00    +0.000 C 
ATOM     10  C   UNL     1       5.609   4.672  15.741  0.00  0.00    +0.000 C 
BRANCH  10  11
ATOM     11  C   UNL     1       6.514   4.645  14.569  0.00  0.00    +0.000 C 
ATOM     12  O   UNL     1       7.546   5.302  14.487  0.00  0.00    +0.000 OA
ATOM     13  N   UNL     1       6.085   3.807  13.577  0.00  0.00    +0.000 N 
ATOM     14  H   UNL     1       5.229   3.266  13.584  0.00  0.00    +0.000 HD
BRANCH  13  15
ATOM     15  O   UNL     1       6.887   3.729  12.420  0.00  0.00    +0.000 OA
ATOM     16  H   UNL     1       7.714   3.325  12.765  0.00  0.00    +0.000 HD
ENDBRANCH  13  15
ENDBRANCH  10  11
ENDBRANCH   3   9
BRANCH   6  17
ATOM     17  O   UNL     1       1.711   6.627  20.639  0.00  0.00    +0.000 OA
BRANCH  17  18
ATOM     18  C   UNL     1       1.673   7.985  21.072  0.00  0.00    +0.000 C 
BRANCH  18  19
ATOM     19  C   UNL     1       0.344   8.694  20.892  0.00  0.00    +0.000 C 
ATOM     20  O   UNL     1      -0.560   8.506  21.703  0.00  0.00    +0.000 OA
ATOM     21  N   UNL     1       0.281   9.500  19.774  0.00  0.00    +0.000 N 
ATOM     22  H   UNL     1       1.036   9.384  19.101  0.00  0.00    +0.000 HD
BRANCH  21  23
ATOM     23  C   UNL     1      -0.753  10.398  19.468  0.00  0.00    +0.000 A 
ATOM     24  C   UNL     1      -1.123  11.446  20.314  0.00  0.00    +0.000 A 
ATOM     25  C   UNL     1      -2.151  12.322  19.963  0.00  0.00    +0.000 A 
ATOM     26  C   UNL     1      -2.823  12.153  18.755  0.00  0.00    +0.000 A 
ATOM     27  C   UNL     1      -2.470  11.110  17.890  0.00  0.00    +0.000 A 
ATOM     28  C   UNL     1      -1.421  10.243  18.249  0.00  0.00    +0.000 A 
BRANCH  27  29
ATOM     29  C   UNL     1      -3.208  10.902  16.592  0.00  0.00    +0.000 C 
ATOM     30  F   UNL     1      -4.408  11.541  16.538  0.00  0.00    +0.000 F 
ATOM     31  F   UNL     1      -2.499  11.344  15.517  0.00  0.00    +0.000 F 
ATOM     32  F   UNL     1      -3.471   9.589  16.351  0.00  0.00    +0.000 F 
ENDBRANCH  27  29
ENDBRANCH  21  23
ENDBRANCH  18  19
ENDBRANCH  17  18
ENDBRANCH   6  17
TORSDOF 9
ENDMDL
MODEL 6
REMARK VINA RESULT:      -8.1      2.829      3.819
REMARK  Name = 
REMARK  10 active torsions:
REMARK  status: ('A' for Active; 'I' for Inactive)
REMARK    1  A    between atoms: C_1  and  O_2
REMARK    2  A    between atoms: O_2  and  C_3
REMARK    3  A    between atoms: C_5  and  C_6
REMARK    4  A    between atoms: C_7  and  C_8
REMARK    5  A    between atoms: N_10  and  O_11
REMARK    6  A    between atoms: C_14  and  O_15
REMARK    7  A    between atoms: O_15  and  C_16
REMARK    8  A    between atoms: C_16  and  C_17
REMARK    9  A    between atoms: N_19  and  C_20
REMARK   10  A    between atoms: C_24  and  C_25
REMARK                            x       y       z     vdW  Elec       q    Type
REMARK                         _______ _______ _______ _____ _____    ______ ____
ROOT
ATOM      1  C   UNL     1       3.960   4.673  17.805  0.00  0.00    +0.000 A 
ATOM      2  C   UNL     1       4.397   3.934  16.689  0.00  0.00    +0.000 A 
ATOM      3  C   UNL     1       5.089   4.530  15.628  0.00  0.00    +0.000 A 
ATOM      4  C   UNL     1       5.375   5.889  15.710  0.00  0.00    +0.000 A 
ATOM      5  C   UNL     1       4.970   6.629  16.819  0.00  0.00    +0.000 A 
ATOM      6  C   UNL     1       4.243   6.044  17.872  0.00  0.00    +0.000 A 
ENDROOT
BRANCH   1   8
ATOM      7  C   UNL     1       4.089   3.253  19.742  0.00  0.00    +0.000 C 
ATOM      8  O   UNL     1       3.327   3.880  18.724  0.00  0.00    +0.000 OA
ENDBRANCH   1   8
BRANCH   3   9
ATOM      9  C   UNL     1       5.605   3.786  14.474  0.00  0.00    +0.000 C 
ATOM     10  C   UNL     1       6.132   4.354  13.381  0.00  0.00    +0.000 C 
BRANCH  10  11
ATOM     11  C   UNL     1       6.608   3.496  12.273  0.00  0.00    +0.000 C 
ATOM     12  O   UNL     1       7.473   3.831  11.471  0.00  0.00    +0.000 OA
ATOM     13  N   UNL     1       5.986   2.278  12.230  0.00  0.00    +0.000 N 
ATOM     14  H   UNL     1       5.249   1.965  12.849  0.00  0.00    +0.000 HD
BRANCH  13  15
ATOM     15  O   UNL     1       6.377   1.401  11.197  0.00  0.00    +0.000 OA
ATOM     16  H   UNL     1       5.673   1.541  10.525  0.00  0.00    +0.000 HD
ENDBRANCH  13  15
ENDBRANCH  10  11
ENDBRANCH   3   9
BRANCH   6  17
ATOM     17  O   UNL     1       3.840   6.773  18.969  0.00  0.00    +0.000 OA
BRANCH  17  18
ATOM     18  C   UNL     1       2.436   7.014  19.017  0.00  0.00    +0.000 C 
BRANCH  18  19
ATOM     19  C   UNL     1       1.979   8.349  18.459  0.00  0.00    +0.000 C 
ATOM     20  O   UNL     1       2.384   8.719  17.359  0.00  0.00    +0.000 OA
ATOM     21  N   UNL     1       1.132   9.049  19.292  0.00  0.00    +0.000 N 
ATOM     22  H   UNL     1       1.062   8.701  20.247  0.00  0.00    +0.000 HD
BRANCH  21  23
ATOM     23  C   UNL     1       0.427  10.215  18.954  0.00  0.00    +0.000 A 
ATOM     24  C   UNL     1       0.847  11.492  19.333  0.00  0.00    +0.000 A 
ATOM     25  C   UNL     1       0.120  12.624  18.965  0.00  0.00    +0.000 A 
ATOM     26  C   UNL     1      -1.042  12.486  18.211  0.00  0.00    +0.000 A 
ATOM     27  C   UNL     1      -1.484  11.216  17.819  0.00  0.00    +0.000 A 
ATOM     28  C   UNL     1      -0.732  10.084  18.183  0.00  0.00    +0.000 A 
BRANCH  27  29
ATOM     29  C   UNL     1      -2.755  11.053  17.025  0.00  0.00    +0.000 C 
ATOM     30  F   UNL     1      -2.605  11.309  15.697  0.00  0.00    +0.000 F 
ATOM     31  F   UNL     1      -3.261   9.792  17.110  0.00  0.00    +0.000 F 
ATOM     32  F   UNL     1      -3.745  11.882  17.457  0.00  0.00    +0.000 F 
ENDBRANCH  27  29
ENDBRANCH  21  23
ENDBRANCH  18  19
ENDBRANCH  17  18
ENDBRANCH   6  17
TORSDOF 9
ENDMDL
MODEL 7
REMARK VINA RESULT:      -8.1      5.209      8.722
REMARK  Name = 
REMARK  10 active torsions:
REMARK  status: ('A' for Active; 'I' for Inactive)
REMARK    1  A    between atoms: C_1  and  O_2
REMARK    2  A    between atoms: O_2  and  C_3
REMARK    3  A    between atoms: C_5  and  C_6
REMARK    4  A    between atoms: C_7  and  C_8
REMARK    5  A    between atoms: N_10  and  O_11
REMARK    6  A    between atoms: C_14  and  O_15
REMARK    7  A    between atoms: O_15  and  C_16
REMARK    8  A    between atoms: C_16  and  C_17
REMARK    9  A    between atoms: N_19  and  C_20
REMARK   10  A    between atoms: C_24  and  C_25
REMARK                            x       y       z     vdW  Elec       q    Type
REMARK                         _______ _______ _______ _____ _____    ______ ____
ROOT
ATOM      1  C   UNL     1       2.987   5.912  19.567  0.00  0.00    +0.000 A 
ATOM      2  C   UNL     1       2.092   6.975  19.789  0.00  0.00    +0.000 A 
ATOM      3  C   UNL     1       2.108   8.135  19.004  0.00  0.00    +0.000 A 
ATOM      4  C   UNL     1       3.019   8.208  17.956  0.00  0.00    +0.000 A 
ATOM      5  C   UNL     1       3.894   7.152  17.708  0.00  0.00    +0.000 A 
ATOM      6  C   UNL     1       3.908   5.999  18.515  0.00  0.00    +0.000 A 
ENDROOT
BRANCH   1   8
ATOM      7  C   UNL     1       1.451   4.581  20.855  0.00  0.00    +0.000 C 
ATOM      8  O   UNL     1       2.774   4.878  20.439  0.00  0.00    +0.000 OA
ENDBRANCH   1   8
BRANCH   3   9
ATOM      9  C   UNL     1       1.160   9.243  19.172  0.00  0.00    +0.000 C 
ATOM     10  C   UNL     1       0.455   9.793  18.174  0.00  0.00    +0.000 C 
BRANCH  10  11
ATOM     11  C   UNL     1      -0.462  10.917  18.466  0.00  0.00    +0.000 C 
ATOM     12  O   UNL     1      -1.519  10.797  19.076  0.00  0.00    +0.000 OA
ATOM     13  N   UNL     1      -0.012  12.117  17.986  0.00  0.00    +0.000 N 
ATOM     14  H   UNL     1       0.836  12.264  17.454  0.00  0.00    +0.000 HD
BRANCH  13  15
ATOM     15  O   UNL     1      -0.832  13.241  18.215  0.00  0.00    +0.000 OA
ATOM     16  H   UNL     1      -1.612  13.050  17.648  0.00  0.00    +0.000 HD
ENDBRANCH  13  15
ENDBRANCH  10  11
ENDBRANCH   3   9
BRANCH   6  17
ATOM     17  O   UNL     1       4.774   4.955  18.274  0.00  0.00    +0.000 OA
BRANCH  17  18
ATOM     18  C   UNL     1       6.134   5.356  18.129  0.00  0.00    +0.000 C 
BRANCH  18  19
ATOM     19  C   UNL     1       6.805   4.949  16.830  0.00  0.00    +0.000 C 
ATOM     20  O   UNL     1       7.864   4.329  16.861  0.00  0.00    +0.000 OA
ATOM     21  N   UNL     1       6.130   5.353  15.696  0.00  0.00    +0.000 N 
ATOM     22  H   UNL     1       5.384   6.031  15.842  0.00  0.00    +0.000 HD
BRANCH  21  23
ATOM     23  C   UNL     1       6.428   4.962  14.382  0.00  0.00    +0.000 A 
ATOM     24  C   UNL     1       7.650   5.243  13.766  0.00  0.00    +0.000 A 
ATOM     25  C   UNL     1       7.907   4.825  12.460  0.00  0.00    +0.000 A 
ATOM     26  C   UNL     1       6.936   4.120  11.755  0.00  0.00    +0.000 A 
ATOM     27  C   UNL     1       5.703   3.827  12.350  0.00  0.00    +0.000 A 
ATOM     28  C   UNL     1       5.463   4.240  13.674  0.00  0.00    +0.000 A 
BRANCH  27  29
ATOM     29  C   UNL     1       4.635   3.086  11.587  0.00  0.00    +0.000 C 
ATOM     30  F   UNL     1       4.197   3.747  10.480  0.00  0.00    +0.000 F 
ATOM     31  F   UNL     1       5.058   1.867  11.153  0.00  0.00    +0.000 F 
ATOM     32  F   UNL     1       3.528   2.849  12.344  0.00  0.00    +0.000 F 
ENDBRANCH  27  29
ENDBRANCH  21  23
ENDBRANCH  18  19
ENDBRANCH  17  18
ENDBRANCH   6  17
TORSDOF 9
ENDMDL
MODEL 8
REMARK VINA RESULT:      -8.1      2.074      3.137
REMARK  Name = 
REMARK  10 active torsions:
REMARK  status: ('A' for Active; 'I' for Inactive)
REMARK    1  A    between atoms: C_1  and  O_2
REMARK    2  A    between atoms: O_2  and  C_3
REMARK    3  A    between atoms: C_5  and  C_6
REMARK    4  A    between atoms: C_7  and  C_8
REMARK    5  A    between atoms: N_10  and  O_11
REMARK    6  A    between atoms: C_14  and  O_15
REMARK    7  A    between atoms: O_15  and  C_16
REMARK    8  A    between atoms: C_16  and  C_17
REMARK    9  A    between atoms: N_19  and  C_20
REMARK   10  A    between atoms: C_24  and  C_25
REMARK                            x       y       z     vdW  Elec       q    Type
REMARK                         _______ _______ _______ _____ _____    ______ ____
ROOT
ATOM      1  C   UNL     1       4.616   4.286  17.999  0.00  0.00    +0.000 A 
ATOM      2  C   UNL     1       5.187   3.860  16.785  0.00  0.00    +0.000 A 
ATOM      3  C   UNL     1       5.624   4.766  15.811  0.00  0.00    +0.000 A 
ATOM      4  C   UNL     1       5.514   6.126  16.080  0.00  0.00    +0.000 A 
ATOM      5  C   UNL     1       4.973   6.564  17.288  0.00  0.00    +0.000 A 
ATOM      6  C   UNL     1       4.499   5.659  18.256  0.00  0.00    +0.000 A 
ENDROOT
BRANCH   1   8
ATOM      7  C   UNL     1       3.493   2.178  18.278  0.00  0.00    +0.000 C 
ATOM      8  O   UNL     1       4.285   3.230  18.804  0.00  0.00    +0.000 OA
ENDBRANCH   1   8
BRANCH   3   9
ATOM      9  C   UNL     1       6.270   4.362  14.557  0.00  0.00    +0.000 C 
ATOM     10  C   UNL     1       5.640   3.759  13.541  0.00  0.00    +0.000 C 
BRANCH  10  11
ATOM     11  C   UNL     1       6.404   3.387  12.329  0.00  0.00    +0.000 C 
ATOM     12  O   UNL     1       7.145   4.154  11.725  0.00  0.00    +0.000 OA
ATOM     13  N   UNL     1       6.203   2.090  11.943  0.00  0.00    +0.000 N 
ATOM     14  H   UNL     1       5.582   1.426  12.389  0.00  0.00    +0.000 HD
BRANCH  13  15
ATOM     15  O   UNL     1       6.890   1.656  10.790  0.00  0.00    +0.000 OA
ATOM     16  H   UNL     1       6.246   1.034  10.384  0.00  0.00    +0.000 HD
ENDBRANCH  13  15
ENDBRANCH  10  11
ENDBRANCH   3   9
BRANCH   6  17
ATOM     17  O   UNL     1       3.962   6.089  19.450  0.00  0.00    +0.000 OA
BRANCH  17  18
ATOM     18  C   UNL     1       2.540   6.194  19.437  0.00  0.00    +0.000 C 
BRANCH  18  19
ATOM     19  C   UNL     1       1.983   7.585  19.677  0.00  0.00    +0.000 C 
ATOM     20  O   UNL     1       2.057   8.431  18.789  0.00  0.00    +0.000 OA
ATOM     21  N   UNL     1       1.443   7.768  20.934  0.00  0.00    +0.000 N 
ATOM     22  H   UNL     1       1.646   7.038  21.614  0.00  0.00    +0.000 HD
BRANCH  21  23
ATOM     23  C   UNL     1       0.708   8.886  21.355  0.00  0.00    +0.000 A 
ATOM     24  C   UNL     1       0.268   9.052  22.671  0.00  0.00    +0.000 A 
ATOM     25  C   UNL     1      -0.451  10.187  23.048  0.00  0.00    +0.000 A 
ATOM     26  C   UNL     1      -0.739  11.170  22.105  0.00  0.00    +0.000 A 
ATOM     27  C   UNL     1      -0.309  11.025  20.780  0.00  0.00    +0.000 A 
ATOM     28  C   UNL     1       0.429   9.884  20.417  0.00  0.00    +0.000 A 
BRANCH  27  29
ATOM     29  C   UNL     1      -0.637  12.071  19.745  0.00  0.00    +0.000 C 
ATOM     30  F   UNL     1       0.165  13.169  19.803  0.00  0.00    +0.000 F 
ATOM     31  F   UNL     1      -0.529  11.594  18.474  0.00  0.00    +0.000 F 
ATOM     32  F   UNL     1      -1.913  12.533  19.862  0.00  0.00    +0.000 F 
ENDBRANCH  27  29
ENDBRANCH  21  23
ENDBRANCH  18  19
ENDBRANCH  17  18
ENDBRANCH   6  17
TORSDOF 9
ENDMDL
MODEL 9
REMARK VINA RESULT:      -7.9      6.545      7.595
REMARK  Name = 
REMARK  10 active torsions:
REMARK  status: ('A' for Active; 'I' for Inactive)
REMARK    1  A    between atoms: C_1  and  O_2
REMARK    2  A    between atoms: O_2  and  C_3
REMARK    3  A    between atoms: C_5  and  C_6
REMARK    4  A    between atoms: C_7  and  C_8
REMARK    5  A    between atoms: N_10  and  O_11
REMARK    6  A    between atoms: C_14  and  O_15
REMARK    7  A    between atoms: O_15  and  C_16
REMARK    8  A    between atoms: C_16  and  C_17
REMARK    9  A    between atoms: N_19  and  C_20
REMARK   10  A    between atoms: C_24  and  C_25
REMARK                            x       y       z     vdW  Elec       q    Type
REMARK                         _______ _______ _______ _____ _____    ______ ____
ROOT
ATOM      1  C   UNL     1       5.133   6.201  16.749  0.00  0.00    +0.000 A 
ATOM      2  C   UNL     1       4.821   5.322  15.695  0.00  0.00    +0.000 A 
ATOM      3  C   UNL     1       5.805   4.576  15.034  0.00  0.00    +0.000 A 
ATOM      4  C   UNL     1       7.122   4.694  15.466  0.00  0.00    +0.000 A 
ATOM      5  C   UNL     1       7.443   5.542  16.524  0.00  0.00    +0.000 A 
ATOM      6  C   UNL     1       6.465   6.321  17.169  0.00  0.00    +0.000 A 
ENDROOT
BRANCH   1   8
ATOM      7  C   UNL     1       3.094   6.036  18.014  0.00  0.00    +0.000 C 
ATOM      8  O   UNL     1       4.014   6.804  17.257  0.00  0.00    +0.000 OA
ENDBRANCH   1   8
BRANCH   3   9
ATOM      9  C   UNL     1       5.514   3.613  13.966  0.00  0.00    +0.000 C 
ATOM     10  C   UNL     1       6.083   3.631  12.754  0.00  0.00    +0.000 C 
BRANCH  10  11
ATOM     11  C   UNL     1       5.697   2.611  11.753  0.00  0.00    +0.000 C 
ATOM     12  O   UNL     1       4.616   2.594  11.175  0.00  0.00    +0.000 OA
ATOM     13  N   UNL     1       6.674   1.679  11.530  0.00  0.00    +0.000 N 
ATOM     14  H   UNL     1       7.569   1.633  12.000  0.00  0.00    +0.000 HD
BRANCH  13  15
ATOM     15  O   UNL     1       6.383   0.665  10.595  0.00  0.00    +0.000 OA
ATOM     16  H   UNL     1       7.215   0.142  10.586  0.00  0.00    +0.000 HD
ENDBRANCH  13  15
ENDBRANCH  10  11
ENDBRANCH   3   9
BRANCH   6  17
ATOM     17  O   UNL     1       6.780   7.161  18.215  0.00  0.00    +0.000 OA
BRANCH  17  18
ATOM     18  C   UNL     1       8.152   7.547  18.250  0.00  0.00    +0.000 C 
BRANCH  18  19
ATOM     19  C   UNL     1       8.413   9.040  18.318  0.00  0.00    +0.000 C 
ATOM     20  O   UNL     1       7.819   9.797  17.554  0.00  0.00    +0.000 OA
ATOM     21  N   UNL     1       9.348   9.407  19.264  0.00  0.00    +0.000 N 
ATOM     22  H   UNL     1       9.894   8.647  19.666  0.00  0.00    +0.000 HD
BRANCH  21  23
ATOM     23  C   UNL     1       9.645  10.721  19.657  0.00  0.00    +0.000 A 
ATOM     24  C   UNL     1       9.310  11.231  20.914  0.00  0.00    +0.000 A 
ATOM     25  C   UNL     1       9.635  12.541  21.266  0.00  0.00    +0.000 A 
ATOM     26  C   UNL     1      10.299  13.358  20.355  0.00  0.00    +0.000 A 
ATOM     27  C   UNL     1      10.645  12.870  19.089  0.00  0.00    +0.000 A 
ATOM     28  C   UNL     1      10.327  11.542  18.753  0.00  0.00    +0.000 A 
BRANCH  27  29
ATOM     29  C   UNL     1      11.343  13.754  18.086  0.00  0.00    +0.000 C 
ATOM     30  F   UNL     1      12.099  13.069  17.186  0.00  0.00    +0.000 F 
ATOM     31  F   UNL     1      10.468  14.497  17.354  0.00  0.00    +0.000 F 
ATOM     32  F   UNL     1      12.183  14.646  18.679  0.00  0.00    +0.000 F 
ENDBRANCH  27  29
ENDBRANCH  21  23
ENDBRANCH  18  19
ENDBRANCH  17  18
ENDBRANCH   6  17
TORSDOF 9
ENDMDL
