MODEL 1
REMARK VINA RESULT:      -8.1      0.000      0.000
REMARK  Name = 
REMARK  1 active torsions:
REMARK  status: ('A' for Active; 'I' for Inactive)
REMARK    1  A    between atoms: N_1  and  C_2
REMARK                            x       y       z     vdW  Elec       q    Type
REMARK                         _______ _______ _______ _____ _____    ______ ____
ROOT
ATOM      1  C   UNL     1       3.483   3.445  18.320  0.00  0.00    +0.000 A 
ATOM      2  C   UNL     1       4.402   3.356  17.273  0.00  0.00    +0.000 A 
ATOM      3  C   UNL     1       4.812   4.552  16.693  0.00  0.00    +0.000 A 
ATOM      4  N   UNL     1       5.745   4.791  15.718  0.00  0.00    +0.000 N 
ATOM      5  N   UNL     1       5.876   6.087  15.409  0.00  0.00    +0.000 NA
ATOM      6  C   UNL     1       5.008   6.695  16.215  0.00  0.00    +0.000 A 
ATOM      7  C   UNL     1       4.300   5.788  17.064  0.00  0.00    +0.000 A 
ATOM      8  C   UNL     1       3.342   5.889  18.125  0.00  0.00    +0.000 A 
ATOM      9  C   UNL     1       3.063   4.684  18.822  0.00  0.00    +0.000 A 
ATOM     10  N   UNL     1       2.356   4.662  19.965  0.00  0.00    +0.000 NA
ATOM     11  C   UNL     1       1.971   5.826  20.503  0.00  0.00    +0.000 A 
ATOM     12  C   UNL     1       2.068   7.044  19.856  0.00  0.00    +0.000 A 
ATOM     13  C   UNL     1       1.531   8.181  20.441  0.00  0.00    +0.000 A 
ATOM     14  F   UNL     1       1.374   8.249  21.773  0.00  0.00    +0.000 F 
ATOM     15  C   UNL     1       1.172   9.266  19.667  0.00  0.00    +0.000 A 
ATOM     16  C   UNL     1       1.611   9.308  18.351  0.00  0.00    +0.000 A 
ATOM     17  C   UNL     1       2.437   8.285  17.849  0.00  0.00    +0.000 A 
ATOM     18  C   UNL     1       2.652   7.079  18.574  0.00  0.00    +0.000 A 
ATOM     19  H   UNL     1       6.350   4.113  15.259  0.00  0.00    +0.000 HD
ENDROOT
BRANCH   1  20
ATOM     20  N   UNL     1       3.111   2.249  18.999  0.00  0.00    +0.000 N 
ATOM     21  H   UNL     1       2.159   1.965  18.801  0.00  0.00    +0.000 HD
ATOM     22  H   UNL     1       3.277   2.388  20.001  0.00  0.00    +0.000 HD
ENDBRANCH   1  20
TORSDOF 1
ENDMDL
MODEL 2
REMARK VINA RESULT:      -7.9      1.986      3.930
REMARK  Name = 
REMARK  1 active torsions:
REMARK  status: ('A' for Active; 'I' for Inactive)
REMARK    1  A    between atoms: N_1  and  C_2
REMARK                            x       y       z     vdW  Elec       q    Type
REMARK                         _______ _______ _______ _____ _____    ______ ____
ROOT
ATOM      1  C   UNL     1       4.926   4.091  18.911  0.00  0.00    +0.000 A 
ATOM      2  C   UNL     1       4.586   2.989  19.697  0.00  0.00    +0.000 A 
ATOM      3  C   UNL     1       3.422   3.090  20.453  0.00  0.00    +0.000 A 
ATOM      4  N   UNL     1       2.795   2.165  21.246  0.00  0.00    +0.000 N 
ATOM      5  N   UNL     1       1.680   2.625  21.825  0.00  0.00    +0.000 NA
ATOM      6  C   UNL     1       1.584   3.876  21.382  0.00  0.00    +0.000 A 
ATOM      7  C   UNL     1       2.650   4.243  20.502  0.00  0.00    +0.000 A 
ATOM      8  C   UNL     1       3.001   5.387  19.714  0.00  0.00    +0.000 A 
ATOM      9  C   UNL     1       4.089   5.210  18.819  0.00  0.00    +0.000 A 
ATOM     10  N   UNL     1       4.395   6.114  17.872  0.00  0.00    +0.000 NA
ATOM     11  C   UNL     1       3.596   7.178  17.719  0.00  0.00    +0.000 A 
ATOM     12  C   UNL     1       2.595   7.524  18.608  0.00  0.00    +0.000 A 
ATOM     13  C   UNL     1       1.899   8.711  18.435  0.00  0.00    +0.000 A 
ATOM     14  F   UNL     1       1.808   9.274  17.219  0.00  0.00    +0.000 F 
ATOM     15  C   UNL     1       1.271   9.318  19.504  0.00  0.00    +0.000 A 
ATOM     16  C   UNL     1       1.113   8.589  20.674  0.00  0.00    +0.000 A 
ATOM     17  C   UNL     1       1.547   7.252  20.736  0.00  0.00    +0.000 A 
ATOM     18  C   UNL     1       2.358   6.684  19.714  0.00  0.00    +0.000 A 
ATOM     19  H   UNL     1       3.063   1.194  21.395  0.00  0.00    +0.000 HD
ENDROOT
BRANCH   1  20
ATOM     20  N   UNL     1       6.060   3.989  18.054  0.00  0.00    +0.000 N 
ATOM     21  H   UNL     1       6.863   3.576  18.512  0.00  0.00    +0.000 HD
ATOM     22  H   UNL     1       6.259   4.921  17.679  0.00  0.00    +0.000 HD
ENDBRANCH   1  20
TORSDOF 1
ENDMDL
MODEL 3
REMARK VINA RESULT:      -7.8      2.926      3.901
REMARK  Name = 
REMARK  1 active torsions:
REMARK  status: ('A' for Active; 'I' for Inactive)
REMARK    1  A    between atoms: N_1  and  C_2
REMARK                            x       y       z     vdW  Elec       q    Type
REMARK                         _______ _______ _______ _____ _____    ______ ____
ROOT
ATOM      1  C   UNL     1       7.055   5.209  18.617  0.00  0.00    +0.000 A 
ATOM      2  C   UNL     1       7.709   5.160  17.384  0.00  0.00    +0.000 A 
ATOM      3  C   UNL     1       6.963   4.726  16.293  0.00  0.00    +0.000 A 
ATOM      4  N   UNL     1       7.296   4.646  14.966  0.00  0.00    +0.000 N 
ATOM      5  N   UNL     1       6.309   4.176  14.194  0.00  0.00    +0.000 NA
ATOM      6  C   UNL     1       5.313   3.956  15.050  0.00  0.00    +0.000 A 
ATOM      7  C   UNL     1       5.650   4.287  16.400  0.00  0.00    +0.000 A 
ATOM      8  C   UNL     1       4.976   4.315  17.663  0.00  0.00    +0.000 A 
ATOM      9  C   UNL     1       5.689   4.920  18.731  0.00  0.00    +0.000 A 
ATOM     10  N   UNL     1       5.110   5.210  19.910  0.00  0.00    +0.000 NA
ATOM     11  C   UNL     1       3.796   4.991  20.049  0.00  0.00    +0.000 A 
ATOM     12  C   UNL     1       3.030   4.290  19.136  0.00  0.00    +0.000 A 
ATOM     13  C   UNL     1       1.703   4.005  19.423  0.00  0.00    +0.000 A 
ATOM     14  F   UNL     1       1.014   4.775  20.280  0.00  0.00    +0.000 F 
ATOM     15  C   UNL     1       1.066   2.942  18.814  0.00  0.00    +0.000 A 
ATOM     16  C   UNL     1       1.680   2.346  17.722  0.00  0.00    +0.000 A 
ATOM     17  C   UNL     1       2.897   2.855  17.232  0.00  0.00    +0.000 A 
ATOM     18  C   UNL     1       3.649   3.819  17.961  0.00  0.00    +0.000 A 
ATOM     19  H   UNL     1       8.167   4.938  14.527  0.00  0.00    +0.000 HD
ENDROOT
BRANCH   1  20
ATOM     20  N   UNL     1       7.759   5.735  19.738  0.00  0.00    +0.000 N 
ATOM     21  H   UNL     1       7.188   5.784  20.573  0.00  0.00    +0.000 HD
ATOM     22  H   UNL     1       8.141   6.648  19.472  0.00  0.00    +0.000 HD
ENDBRANCH   1  20
TORSDOF 1
ENDMDL
MODEL 4
REMARK VINA RESULT:      -7.5      2.975      4.017
REMARK  Name = 
REMARK  1 active torsions:
REMARK  status: ('A' for Active; 'I' for Inactive)
REMARK    1  A    between atoms: N_1  and  C_2
REMARK                            x       y       z     vdW  Elec       q    Type
REMARK                         _______ _______ _______ _____ _____    ______ ____
ROOT
ATOM      1  C   UNL     1       5.492   4.326  15.750  0.00  0.00    +0.000 A 
ATOM      2  C   UNL     1       6.763   4.761  16.131  0.00  0.00    +0.000 A 
ATOM      3  C   UNL     1       6.956   5.030  17.482  0.00  0.00    +0.000 A 
ATOM      4  N   UNL     1       8.091   5.390  18.161  0.00  0.00    +0.000 N 
ATOM      5  N   UNL     1       7.896   5.567  19.473  0.00  0.00    +0.000 NA
ATOM      6  C   UNL     1       6.602   5.304  19.640  0.00  0.00    +0.000 A 
ATOM      7  C   UNL     1       5.939   4.950  18.423  0.00  0.00    +0.000 A 
ATOM      8  C   UNL     1       4.627   4.523  18.039  0.00  0.00    +0.000 A 
ATOM      9  C   UNL     1       4.487   4.086  16.696  0.00  0.00    +0.000 A 
ATOM     10  N   UNL     1       3.381   3.463  16.254  0.00  0.00    +0.000 NA
ATOM     11  C   UNL     1       2.412   3.174  17.133  0.00  0.00    +0.000 A 
ATOM     12  C   UNL     1       2.377   3.661  18.426  0.00  0.00    +0.000 A 
ATOM     13  C   UNL     1       1.272   3.411  19.227  0.00  0.00    +0.000 A 
ATOM     14  F   UNL     1       0.492   2.343  18.993  0.00  0.00    +0.000 F 
ATOM     15  C   UNL     1       0.972   4.241  20.289  0.00  0.00    +0.000 A 
ATOM     16  C   UNL     1       1.935   5.149  20.705  0.00  0.00    +0.000 A 
ATOM     17  C   UNL     1       3.195   5.178  20.079  0.00  0.00    +0.000 A 
ATOM     18  C   UNL     1       3.444   4.466  18.872  0.00  0.00    +0.000 A 
ATOM     19  H   UNL     1       9.033   5.489  17.786  0.00  0.00    +0.000 HD
ENDROOT
BRANCH   1  20
ATOM     20  N   UNL     1       5.282   3.952  14.391  0.00  0.00    +0.000 N 
ATOM     21  H   UNL     1       6.032   3.381  14.020  0.00  0.00    +0.000 HD
ATOM     22  H   UNL     1       5.135   4.807  13.846  0.00  0.00    +0.000 HD
ENDBRANCH   1  20
TORSDOF 1
ENDMDL
MODEL 5
REMARK VINA RESULT:      -7.4      1.695      3.711
REMARK  Name = 
REMARK  1 active torsions:
REMARK  status: ('A' for Active; 'I' for Inactive)
REMARK    1  A    between atoms: N_1  and  C_2
REMARK                            x       y       z     vdW  Elec       q    Type
REMARK                         _______ _______ _______ _____ _____    ______ ____
ROOT
ATOM      1  C   UNL     1       4.618   5.259  18.017  0.00  0.00    +0.000 A 
ATOM      2  C   UNL     1       4.602   4.025  18.670  0.00  0.00    +0.000 A 
ATOM      3  C   UNL     1       3.663   3.861  19.683  0.00  0.00    +0.000 A 
ATOM      4  N   UNL     1       3.355   2.760  20.438  0.00  0.00    +0.000 N 
ATOM      5  N   UNL     1       2.381   2.978  21.329  0.00  0.00    +0.000 NA
ATOM      6  C   UNL     1       2.049   4.251  21.133  0.00  0.00    +0.000 A 
ATOM      7  C   UNL     1       2.814   4.878  20.100  0.00  0.00    +0.000 A 
ATOM      8  C   UNL     1       2.835   6.154  19.449  0.00  0.00    +0.000 A 
ATOM      9  C   UNL     1       3.674   6.253  18.308  0.00  0.00    +0.000 A 
ATOM     10  N   UNL     1       3.636   7.308  17.477  0.00  0.00    +0.000 NA
ATOM     11  C   UNL     1       2.720   8.262  17.692  0.00  0.00    +0.000 A 
ATOM     12  C   UNL     1       1.946   8.342  18.835  0.00  0.00    +0.000 A 
ATOM     13  C   UNL     1       1.110   9.433  19.026  0.00  0.00    +0.000 A 
ATOM     14  F   UNL     1       0.658  10.134  17.975  0.00  0.00    +0.000 F 
ATOM     15  C   UNL     1       0.714   9.798  20.298  0.00  0.00    +0.000 A 
ATOM     16  C   UNL     1       0.933   8.904  21.336  0.00  0.00    +0.000 A 
ATOM     17  C   UNL     1       1.503   7.644  21.075  0.00  0.00    +0.000 A 
ATOM     18  C   UNL     1       2.084   7.337  19.813  0.00  0.00    +0.000 A 
ATOM     19  H   UNL     1       3.750   1.825  20.359  0.00  0.00    +0.000 HD
ENDROOT
BRANCH   1  20
ATOM     20  N   UNL     1       5.502   5.432  16.914  0.00  0.00    +0.000 N 
ATOM     21  H   UNL     1       5.240   4.875  16.109  0.00  0.00    +0.000 HD
ATOM     22  H   UNL     1       6.454   5.230  17.235  0.00  0.00    +0.000 HD
ENDBRANCH   1  20
TORSDOF 1
ENDMDL
MODEL 6
REMARK VINA RESULT:      -7.3      1.382      3.460
REMARK  Name = 
REMARK  1 active torsions:
REMARK  status: ('A' for Active; 'I' for Inactive)
REMARK    1  A    between atoms: N_1  and  C_2
REMARK                            x       y       z     vdW  Elec       q    Type
REMARK                         _______ _______ _______ _____ _____    ______ ____
ROOT
ATOM      1  C   UNL     1       4.631   4.692  17.001  0.00  0.00    +0.000 A 
ATOM      2  C   UNL     1       4.361   3.334  17.181  0.00  0.00    +0.000 A 
ATOM      3  C   UNL     1       3.302   3.008  18.022  0.00  0.00    +0.000 A 
ATOM      4  N   UNL     1       2.755   1.789  18.329  0.00  0.00    +0.000 N 
ATOM      5  N   UNL     1       1.731   1.864  19.187  0.00  0.00    +0.000 NA
ATOM      6  C   UNL     1       1.614   3.168  19.430  0.00  0.00    +0.000 A 
ATOM      7  C   UNL     1       2.572   3.959  18.722  0.00  0.00    +0.000 A 
ATOM      8  C   UNL     1       2.852   5.354  18.560  0.00  0.00    +0.000 A 
ATOM      9  C   UNL     1       3.817   5.680  17.570  0.00  0.00    +0.000 A 
ATOM     10  N   UNL     1       4.027   6.942  17.159  0.00  0.00    +0.000 NA
ATOM     11  C   UNL     1       3.243   7.914  17.644  0.00  0.00    +0.000 A 
ATOM     12  C   UNL     1       2.368   7.742  18.700  0.00  0.00    +0.000 A 
ATOM     13  C   UNL     1       1.686   8.835  19.216  0.00  0.00    +0.000 A 
ATOM     14  F   UNL     1       1.461   9.916  18.453  0.00  0.00    +0.000 F 
ATOM     15  C   UNL     1       1.210   8.816  20.512  0.00  0.00    +0.000 A 
ATOM     16  C   UNL     1       1.179   7.603  21.184  0.00  0.00    +0.000 A 
ATOM     17  C   UNL     1       1.583   6.424  20.530  0.00  0.00    +0.000 A 
ATOM     18  C   UNL     1       2.248   6.460  19.272  0.00  0.00    +0.000 A 
ATOM     19  H   UNL     1       3.014   0.881  17.950  0.00  0.00    +0.000 HD
ENDROOT
BRANCH   1  20
ATOM     20  N   UNL     1       5.647   5.065  16.075  0.00  0.00    +0.000 N 
ATOM     21  H   UNL     1       5.505   4.667  15.154  0.00  0.00    +0.000 HD
ATOM     22  H   UNL     1       6.553   4.807  16.478  0.00  0.00    +0.000 HD
ENDBRANCH   1  20
TORSDOF 1
ENDMDL
MODEL 7
REMARK VINA RESULT:      -7.2      3.730      6.953
REMARK  Name = 
REMARK  1 active torsions:
REMARK  status: ('A' for Active; 'I' for Inactive)
REMARK    1  A    between atoms: N_1  and  C_2
REMARK                            x       y       z     vdW  Elec       q    Type
REMARK                         _______ _______ _______ _____ _____    ______ ____
ROOT
ATOM      1  C   UNL     1      -0.204  11.009  19.093  0.00  0.00    +0.000 A 
ATOM      2  C   UNL     1      -0.701  11.453  20.320  0.00  0.00    +0.000 A 
ATOM      3  C   UNL     1      -0.332  10.727  21.448  0.00  0.00    +0.000 A 
ATOM      4  N   UNL     1      -0.590  10.956  22.774  0.00  0.00    +0.000 N 
ATOM      5  N   UNL     1      -0.067  10.032  23.588  0.00  0.00    +0.000 NA
ATOM      6  C   UNL     1       0.550   9.192  22.761  0.00  0.00    +0.000 A 
ATOM      7  C   UNL     1       0.432   9.569  21.387  0.00  0.00    +0.000 A 
ATOM      8  C   UNL     1       0.931   9.094  20.130  0.00  0.00    +0.000 A 
ATOM      9  C   UNL     1       0.694   9.937  19.013  0.00  0.00    +0.000 A 
ATOM     10  N   UNL     1       1.280   9.732  17.820  0.00  0.00    +0.000 NA
ATOM     11  C   UNL     1       2.179   8.744  17.709  0.00  0.00    +0.000 A 
ATOM     12  C   UNL     1       2.392   7.784  18.680  0.00  0.00    +0.000 A 
ATOM     13  C   UNL     1       3.254   6.727  18.427  0.00  0.00    +0.000 A 
ATOM     14  F   UNL     1       4.235   6.854  17.519  0.00  0.00    +0.000 F 
ATOM     15  C   UNL     1       3.131   5.540  19.122  0.00  0.00    +0.000 A 
ATOM     16  C   UNL     1       2.327   5.519  20.252  0.00  0.00    +0.000 A 
ATOM     17  C   UNL     1       1.697   6.699  20.691  0.00  0.00    +0.000 A 
ATOM     18  C   UNL     1       1.663   7.870  19.883  0.00  0.00    +0.000 A 
ATOM     19  H   UNL     1      -1.082  11.749  23.182  0.00  0.00    +0.000 HD
ENDROOT
BRANCH   1  20
ATOM     20  N   UNL     1      -0.483  11.781  17.929  0.00  0.00    +0.000 N 
ATOM     21  H   UNL     1      -1.457  11.739  17.654  0.00  0.00    +0.000 HD
ATOM     22  H   UNL     1       0.147  11.470  17.183  0.00  0.00    +0.000 HD
ENDBRANCH   1  20
TORSDOF 1
ENDMDL
MODEL 8
REMARK VINA RESULT:      -7.1      2.860      5.012
REMARK  Name = 
REMARK  1 active torsions:
REMARK  status: ('A' for Active; 'I' for Inactive)
REMARK    1  A    between atoms: N_1  and  C_2
REMARK                            x       y       z     vdW  Elec       q    Type
REMARK                         _______ _______ _______ _____ _____    ______ ____
ROOT
ATOM      1  C   UNL     1       2.216   3.482  20.107  0.00  0.00    +0.000 A 
ATOM      2  C   UNL     1       1.566   4.439  20.888  0.00  0.00    +0.000 A 
ATOM      3  C   UNL     1       1.763   5.772  20.541  0.00  0.00    +0.000 A 
ATOM      4  N   UNL     1       1.208   6.914  21.058  0.00  0.00    +0.000 N 
ATOM      5  N   UNL     1       1.639   8.033  20.464  0.00  0.00    +0.000 NA
ATOM      6  C   UNL     1       2.486   7.595  19.536  0.00  0.00    +0.000 A 
ATOM      7  C   UNL     1       2.613   6.171  19.519  0.00  0.00    +0.000 A 
ATOM      8  C   UNL     1       3.299   5.197  18.723  0.00  0.00    +0.000 A 
ATOM      9  C   UNL     1       2.957   3.842  18.974  0.00  0.00    +0.000 A 
ATOM     10  N   UNL     1       3.353   2.840  18.171  0.00  0.00    +0.000 NA
ATOM     11  C   UNL     1       4.028   3.142  17.053  0.00  0.00    +0.000 A 
ATOM     12  C   UNL     1       4.529   4.399  16.773  0.00  0.00    +0.000 A 
ATOM     13  C   UNL     1       5.321   4.591  15.650  0.00  0.00    +0.000 A 
ATOM     14  F   UNL     1       5.215   3.766  14.596  0.00  0.00    +0.000 F 
ATOM     15  C   UNL     1       6.211   5.645  15.591  0.00  0.00    +0.000 A 
ATOM     16  C   UNL     1       6.100   6.653  16.538  0.00  0.00    +0.000 A 
ATOM     17  C   UNL     1       5.072   6.609  17.498  0.00  0.00    +0.000 A 
ATOM     18  C   UNL     1       4.277   5.443  17.685  0.00  0.00    +0.000 A 
ATOM     19  H   UNL     1       0.501   6.985  21.787  0.00  0.00    +0.000 HD
ENDROOT
BRANCH   1  20
ATOM     20  N   UNL     1       1.965   2.105  20.374  0.00  0.00    +0.000 N 
ATOM     21  H   UNL     1       2.736   1.649  20.847  0.00  0.00    +0.000 HD
ATOM     22  H   UNL     1       1.725   1.649  19.488  0.00  0.00    +0.000 HD
ENDBRANCH   1  20
TORSDOF 1
ENDMDL
MODEL 9
REMARK VINA RESULT:      -7.0      2.731      4.733
REMARK  Name = 
REMARK  1 active torsions:
REMARK  status: ('A' for Active; 'I' for Inactive)
REMARK    1  A    between atoms: N_1  and  C_2
REMARK                            x       y       z     vdW  Elec       q    Type
REMARK                         _______ _______ _______ _____ _____    ______ ____
ROOT
ATOM      1  C   UNL     1       4.528   6.144  16.855  0.00  0.00    +0.000 A 
ATOM      2  C   UNL     1       4.013   7.438  16.756  0.00  0.00    +0.000 A 
ATOM      3  C   UNL     1       3.100   7.827  17.730  0.00  0.00    +0.000 A 
ATOM      4  N   UNL     1       2.491   9.037  17.943  0.00  0.00    +0.000 N 
ATOM      5  N   UNL     1       1.661   9.040  18.992  0.00  0.00    +0.000 NA
ATOM      6  C   UNL     1       1.747   7.801  19.470  0.00  0.00    +0.000 A 
ATOM      7  C   UNL     1       2.645   6.974  18.726  0.00  0.00    +0.000 A 
ATOM      8  C   UNL     1       3.153   5.638  18.825  0.00  0.00    +0.000 A 
ATOM      9  C   UNL     1       4.209   5.310  17.934  0.00  0.00    +0.000 A 
ATOM     10  N   UNL     1       4.924   4.178  18.052  0.00  0.00    +0.000 NA
ATOM     11  C   UNL     1       4.681   3.371  19.094  0.00  0.00    +0.000 A 
ATOM     12  C   UNL     1       3.600   3.516  19.944  0.00  0.00    +0.000 A 
ATOM     13  C   UNL     1       3.360   2.561  20.922  0.00  0.00    +0.000 A 
ATOM     14  F   UNL     1       4.364   1.803  21.391  0.00  0.00    +0.000 F 
ATOM     15  C   UNL     1       2.092   2.394  21.442  0.00  0.00    +0.000 A 
ATOM     16  C   UNL     1       1.140   3.369  21.179  0.00  0.00    +0.000 A 
ATOM     17  C   UNL     1       1.487   4.513  20.438  0.00  0.00    +0.000 A 
ATOM     18  C   UNL     1       2.726   4.602  19.743  0.00  0.00    +0.000 A 
ATOM     19  H   UNL     1       2.638   9.903  17.428  0.00  0.00    +0.000 HD
ENDROOT
BRANCH   1  20
ATOM     20  N   UNL     1       5.535   5.742  15.931  0.00  0.00    +0.000 N 
ATOM     21  H   UNL     1       5.802   6.483  15.293  0.00  0.00    +0.000 HD
ATOM     22  H   UNL     1       5.201   4.906  15.441  0.00  0.00    +0.000 HD
ENDBRANCH   1  20
TORSDOF 1
ENDMDL
