MODEL 1
REMARK VINA RESULT:      -9.5      0.000      0.000
REMARK  Name = 
REMARK  5 active torsions:
REMARK  status: ('A' for Active; 'I' for Inactive)
REMARK    1  A    between atoms: S_2  and  C_4
REMARK    2  A    between atoms: S_2  and  N_28
REMARK    3  A    between atoms: C_8  and  N_9
REMARK    4  A    between atoms: N_9  and  C_10
REMARK    5  A    between atoms: C_19  and  C_20
REMARK                            x       y       z     vdW  Elec       q    Type
REMARK                         _______ _______ _______ _____ _____    ______ ____
ROOT
ATOM      1  N   UNL     1       2.679   5.497  18.258  0.00  0.00    +0.000 N 
ATOM      2  H   UNL     1       2.483   5.088  19.185  0.00  0.00    +0.000 HD
ENDROOT
BRANCH   1   3
ATOM      3  C   UNL     1       3.764   4.588  17.834  0.00  0.00    +0.000 A 
ATOM      4  N   UNL     1       3.530   3.470  18.548  0.00  0.00    +0.000 NA
ATOM      5  C   UNL     1       4.465   3.236  19.456  0.00  0.00    +0.000 A 
ATOM      6 CL   UNL     1       4.032   2.199  20.742  0.00  0.00    +0.000 Cl
ATOM      7  N   UNL     1       5.553   3.976  19.639  0.00  0.00    +0.000 NA
ATOM      8  C   UNL     1       5.881   4.798  18.632  0.00  0.00    +0.000 A 
ATOM      9  C   UNL     1       6.993   5.567  18.870  0.00  0.00    +0.000 A 
ATOM     10  C   UNL     1       7.523   6.420  17.905  0.00  0.00    +0.000 A 
ATOM     11  C   UNL     1       7.054   6.346  16.606  0.00  0.00    +0.000 A 
ATOM     12  C   UNL     1       6.023   5.440  16.276  0.00  0.00    +0.000 A 
ATOM     13  C   UNL     1       5.147   4.972  17.466  0.00  0.00    +0.000 A 
BRANCH  12  14
ATOM     14  C   UNL     1       6.491   4.694  14.937  0.00  0.00    +0.000 A 
ATOM     15  C   UNL     1       7.560   5.290  14.170  0.00  0.00    +0.000 A 
ATOM     16  C   UNL     1       7.745   5.126  12.765  0.00  0.00    +0.000 A 
ATOM     17  C   UNL     1       6.897   4.277  12.075  0.00  0.00    +0.000 A 
ATOM     18  C   UNL     1       5.919   3.589  12.777  0.00  0.00    +0.000 A 
ATOM     19  C   UNL     1       5.710   3.799  14.190  0.00  0.00    +0.000 A 
ENDBRANCH  12  14
ENDBRANCH   1   3
BRANCH   1  24
ATOM     20  C   UNL     1       1.530   8.838  19.847  0.00  0.00    +0.000 A 
ATOM     21  C   UNL     1       1.711   9.693  18.764  0.00  0.00    +0.000 A 
ATOM     22  C   UNL     1       2.239   9.191  17.566  0.00  0.00    +0.000 A 
ATOM     23  C   UNL     1       2.581   7.831  17.399  0.00  0.00    +0.000 A 
ATOM     24  C   UNL     1       2.438   6.919  18.436  0.00  0.00    +0.000 A 
ATOM     25  C   UNL     1       1.892   7.452  19.682  0.00  0.00    +0.000 A 
BRANCH  20  27
ATOM     26  O   UNL     1      -0.437   8.387  21.567  0.00  0.00    +0.000 OA
ATOM     27  S   UNL     1       0.480   9.463  21.229  0.00  0.00    +0.000 S 
ATOM     28  O   UNL     1       1.383   9.973  22.235  0.00  0.00    +0.000 OA
BRANCH  27  29
ATOM     29  N   UNL     1      -0.505  10.778  20.689  0.00  0.00    +0.000 NA
ATOM     30  C   UNL     1       0.174  11.963  20.083  0.00  0.00    +0.000 C 
ATOM     31  C   UNL     1       0.820  12.852  21.151  0.00  0.00    +0.000 C 
ATOM     32  O   UNL     1      -0.168  13.365  22.055  0.00  0.00    +0.000 OA
ATOM     33  C   UNL     1      -0.852  12.296  22.726  0.00  0.00    +0.000 C 
ATOM     34  C   UNL     1      -1.505  11.320  21.725  0.00  0.00    +0.000 C 
ENDBRANCH  27  29
ENDBRANCH  20  27
ENDBRANCH   1  24
TORSDOF 5
ENDMDL
MODEL 2
REMARK VINA RESULT:      -9.4      1.887      2.313
REMARK  Name = 
REMARK  5 active torsions:
REMARK  status: ('A' for Active; 'I' for Inactive)
REMARK    1  A    between atoms: S_2  and  C_4
REMARK    2  A    between atoms: S_2  and  N_28
REMARK    3  A    between atoms: C_8  and  N_9
REMARK    4  A    between atoms: N_9  and  C_10
REMARK    5  A    between atoms: C_19  and  C_20
REMARK                            x       y       z     vdW  Elec       q    Type
REMARK                         _______ _______ _______ _____ _____    ______ ____
ROOT
ATOM      1  N   UNL     1       2.872   7.521  17.917  0.00  0.00    +0.000 N 
ATOM      2  H   UNL     1       2.476   7.739  16.990  0.00  0.00    +0.000 HD
ENDROOT
BRANCH   1   3
ATOM      3  C   UNL     1       3.431   6.187  17.618  0.00  0.00    +0.000 A 
ATOM      4  N   UNL     1       2.532   5.344  18.162  0.00  0.00    +0.000 NA
ATOM      5  C   UNL     1       3.015   4.682  19.202  0.00  0.00    +0.000 A 
ATOM      6 CL   UNL     1       1.867   4.014  20.276  0.00  0.00    +0.000 Cl
ATOM      7  N   UNL     1       4.259   4.779  19.658  0.00  0.00    +0.000 NA
ATOM      8  C   UNL     1       5.153   5.315  18.815  0.00  0.00    +0.000 A 
ATOM      9  C   UNL     1       6.421   5.425  19.332  0.00  0.00    +0.000 A 
ATOM     10  C   UNL     1       7.492   5.887  18.572  0.00  0.00    +0.000 A 
ATOM     11  C   UNL     1       7.334   6.046  17.207  0.00  0.00    +0.000 A 
ATOM     12  C   UNL     1       6.087   5.776  16.603  0.00  0.00    +0.000 A 
ATOM     13  C   UNL     1       4.865   5.822  17.555  0.00  0.00    +0.000 A 
BRANCH  12  14
ATOM     14  C   UNL     1       6.399   4.882  15.309  0.00  0.00    +0.000 A 
ATOM     15  C   UNL     1       7.507   5.274  14.469  0.00  0.00    +0.000 A 
ATOM     16  C   UNL     1       7.613   4.989  13.075  0.00  0.00    +0.000 A 
ATOM     17  C   UNL     1       6.633   4.217  12.475  0.00  0.00    +0.000 A 
ATOM     18  C   UNL     1       5.600   3.719  13.254  0.00  0.00    +0.000 A 
ATOM     19  C   UNL     1       5.477   4.052  14.653  0.00  0.00    +0.000 A 
ENDBRANCH  12  14
ENDBRANCH   1   3
BRANCH   1  24
ATOM     20  C   UNL     1       0.235   9.955  19.376  0.00  0.00    +0.000 A 
ATOM     21  C   UNL     1       0.290   9.592  20.718  0.00  0.00    +0.000 A 
ATOM     22  C   UNL     1       1.135   8.547  21.119  0.00  0.00    +0.000 A 
ATOM     23  C   UNL     1       1.962   7.850  20.211  0.00  0.00    +0.000 A 
ATOM     24  C   UNL     1       1.955   8.148  18.855  0.00  0.00    +0.000 A 
ATOM     25  C   UNL     1       1.068   9.234  18.446  0.00  0.00    +0.000 A 
BRANCH  20  27
ATOM     26  O   UNL     1      -1.376  11.346  17.793  0.00  0.00    +0.000 OA
ATOM     27  S   UNL     1      -0.576  11.565  18.987  0.00  0.00    +0.000 S 
ATOM     28  O   UNL     1      -1.217  12.009  20.203  0.00  0.00    +0.000 OA
BRANCH  27  29
ATOM     29  N   UNL     1       0.611  12.748  18.554  0.00  0.00    +0.000 NA
ATOM     30  C   UNL     1       1.939  12.692  19.236  0.00  0.00    +0.000 C 
ATOM     31  C   UNL     1       1.867  13.249  20.662  0.00  0.00    +0.000 C 
ATOM     32  O   UNL     1       1.470  14.627  20.653  0.00  0.00    +0.000 OA
ATOM     33  C   UNL     1       0.174  14.781  20.054  0.00  0.00    +0.000 C 
ATOM     34  C   UNL     1       0.138  14.210  18.621  0.00  0.00    +0.000 C 
ENDBRANCH  27  29
ENDBRANCH  20  27
ENDBRANCH   1  24
TORSDOF 5
ENDMDL
MODEL 3
REMARK VINA RESULT:      -9.4      1.775      2.263
REMARK  Name = 
REMARK  5 active torsions:
REMARK  status: ('A' for Active; 'I' for Inactive)
REMARK    1  A    between atoms: S_2  and  C_4
REMARK    2  A    between atoms: S_2  and  N_28
REMARK    3  A    between atoms: C_8  and  N_9
REMARK    4  A    between atoms: N_9  and  C_10
REMARK    5  A    between atoms: C_19  and  C_20
REMARK                            x       y       z     vdW  Elec       q    Type
REMARK                         _______ _______ _______ _____ _____    ______ ____
ROOT
ATOM      1  N   UNL     1       2.715   7.055  17.996  0.00  0.00    +0.000 N 
ATOM      2  H   UNL     1       2.036   7.071  17.219  0.00  0.00    +0.000 HD
ENDROOT
BRANCH   1   3
ATOM      3  C   UNL     1       3.407   5.793  17.668  0.00  0.00    +0.000 A 
ATOM      4  N   UNL     1       2.619   4.852  18.224  0.00  0.00    +0.000 NA
ATOM      5  C   UNL     1       3.196   4.237  19.245  0.00  0.00    +0.000 A 
ATOM      6 CL   UNL     1       2.155   3.440  20.338  0.00  0.00    +0.000 Cl
ATOM      7  N   UNL     1       4.433   4.465  19.673  0.00  0.00    +0.000 NA
ATOM      8  C   UNL     1       5.243   5.103  18.815  0.00  0.00    +0.000 A 
ATOM      9  C   UNL     1       6.504   5.345  19.303  0.00  0.00    +0.000 A 
ATOM     10  C   UNL     1       7.499   5.929  18.523  0.00  0.00    +0.000 A 
ATOM     11  C   UNL     1       7.291   6.081  17.164  0.00  0.00    +0.000 A 
ATOM     12  C   UNL     1       6.067   5.682  16.586  0.00  0.00    +0.000 A 
ATOM     13  C   UNL     1       4.871   5.587  17.568  0.00  0.00    +0.000 A 
BRANCH  12  14
ATOM     14  C   UNL     1       6.442   4.839  15.275  0.00  0.00    +0.000 A 
ATOM     15  C   UNL     1       7.512   5.330  14.439  0.00  0.00    +0.000 A 
ATOM     16  C   UNL     1       7.634   5.080  13.041  0.00  0.00    +0.000 A 
ATOM     17  C   UNL     1       6.714   4.245  12.429  0.00  0.00    +0.000 A 
ATOM     18  C   UNL     1       5.727   3.655  13.202  0.00  0.00    +0.000 A 
ATOM     19  C   UNL     1       5.583   3.951  14.607  0.00  0.00    +0.000 A 
ENDBRANCH  12  14
ENDBRANCH   1   3
BRANCH   1  24
ATOM     20  C   UNL     1       0.871   9.704  20.140  0.00  0.00    +0.000 A 
ATOM     21  C   UNL     1       0.794   9.021  21.350  0.00  0.00    +0.000 A 
ATOM     22  C   UNL     1       1.291   7.713  21.441  0.00  0.00    +0.000 A 
ATOM     23  C   UNL     1       1.896   7.055  20.347  0.00  0.00    +0.000 A 
ATOM     24  C   UNL     1       2.002   7.667  19.106  0.00  0.00    +0.000 A 
ATOM     25  C   UNL     1       1.476   9.027  19.020  0.00  0.00    +0.000 A 
BRANCH  20  27
ATOM     26  O   UNL     1      -0.850  11.698  20.445  0.00  0.00    +0.000 OA
ATOM     27  S   UNL     1       0.571  11.523  20.195  0.00  0.00    +0.000 S 
ATOM     28  O   UNL     1       1.531  12.071  21.125  0.00  0.00    +0.000 OA
BRANCH  27  29
ATOM     29  N   UNL     1       0.874  12.231  18.646  0.00  0.00    +0.000 NA
ATOM     30  C   UNL     1       2.271  12.655  18.327  0.00  0.00    +0.000 C 
ATOM     31  C   UNL     1       2.637  13.968  19.027  0.00  0.00    +0.000 C 
ATOM     32  O   UNL     1       1.779  15.033  18.597  0.00  0.00    +0.000 OA
ATOM     33  C   UNL     1       0.407  14.739  18.902  0.00  0.00    +0.000 C 
ATOM     34  C   UNL     1      -0.044  13.407  18.269  0.00  0.00    +0.000 C 
ENDBRANCH  27  29
ENDBRANCH  20  27
ENDBRANCH   1  24
TORSDOF 5
ENDMDL
MODEL 4
REMARK VINA RESULT:      -9.3      0.783      1.234
REMARK  Name = 
REMARK  5 active torsions:
REMARK  status: ('A' for Active; 'I' for Inactive)
REMARK    1  A    between atoms: S_2  and  C_4
REMARK    2  A    between atoms: S_2  and  N_28
REMARK    3  A    between atoms: C_8  and  N_9
REMARK    4  A    between atoms: N_9  and  C_10
REMARK    5  A    between atoms: C_19  and  C_20
REMARK                            x       y       z     vdW  Elec       q    Type
REMARK                         _______ _______ _______ _____ _____    ______ ____
ROOT
ATOM      1  N   UNL     1       2.722   5.481  18.183  0.00  0.00    +0.000 N 
ATOM      2  H   UNL     1       2.491   5.041  19.088  0.00  0.00    +0.000 HD
ENDROOT
BRANCH   1   3
ATOM      3  C   UNL     1       3.821   4.585  17.768  0.00  0.00    +0.000 A 
ATOM      4  N   UNL     1       3.599   3.468  18.487  0.00  0.00    +0.000 NA
ATOM      5  C   UNL     1       4.532   3.251  19.400  0.00  0.00    +0.000 A 
ATOM      6 CL   UNL     1       4.108   2.215  20.689  0.00  0.00    +0.000 Cl
ATOM      7  N   UNL     1       5.609   4.008  19.585  0.00  0.00    +0.000 NA
ATOM      8  C   UNL     1       5.930   4.828  18.575  0.00  0.00    +0.000 A 
ATOM      9  C   UNL     1       7.031   5.614  18.814  0.00  0.00    +0.000 A 
ATOM     10  C   UNL     1       7.554   6.469  17.847  0.00  0.00    +0.000 A 
ATOM     11  C   UNL     1       7.092   6.382  16.546  0.00  0.00    +0.000 A 
ATOM     12  C   UNL     1       6.075   5.460  16.216  0.00  0.00    +0.000 A 
ATOM     13  C   UNL     1       5.200   4.987  17.405  0.00  0.00    +0.000 A 
BRANCH  12  14
ATOM     14  C   UNL     1       6.560   4.713  14.883  0.00  0.00    +0.000 A 
ATOM     15  C   UNL     1       7.610   5.331  14.107  0.00  0.00    +0.000 A 
ATOM     16  C   UNL     1       7.796   5.158  12.704  0.00  0.00    +0.000 A 
ATOM     17  C   UNL     1       6.969   4.279  12.025  0.00  0.00    +0.000 A 
ATOM     18  C   UNL     1       6.012   3.572  12.736  0.00  0.00    +0.000 A 
ATOM     19  C   UNL     1       5.801   3.790  14.147  0.00  0.00    +0.000 A 
ENDBRANCH  12  14
ENDBRANCH   1   3
BRANCH   1  24
ATOM     20  C   UNL     1       1.244   8.751  19.642  0.00  0.00    +0.000 A 
ATOM     21  C   UNL     1       1.754   9.672  18.732  0.00  0.00    +0.000 A 
ATOM     22  C   UNL     1       2.595   9.232  17.700  0.00  0.00    +0.000 A 
ATOM     23  C   UNL     1       2.937   7.873  17.527  0.00  0.00    +0.000 A 
ATOM     24  C   UNL     1       2.474   6.897  18.400  0.00  0.00    +0.000 A 
ATOM     25  C   UNL     1       1.603   7.365  19.475  0.00  0.00    +0.000 A 
BRANCH  20  27
ATOM     26  O   UNL     1      -1.065  10.041  19.837  0.00  0.00    +0.000 OA
ATOM     27  S   UNL     1      -0.147   9.325  20.709  0.00  0.00    +0.000 S 
ATOM     28  O   UNL     1      -0.612   8.169  21.438  0.00  0.00    +0.000 OA
BRANCH  27  29
ATOM     29  N   UNL     1       0.417  10.485  21.862  0.00  0.00    +0.000 NA
ATOM     30  C   UNL     1      -0.317  10.602  23.158  0.00  0.00    +0.000 C 
ATOM     31  C   UNL     1      -1.635  11.367  22.994  0.00  0.00    +0.000 C 
ATOM     32  O   UNL     1      -1.395  12.706  22.538  0.00  0.00    +0.000 OA
ATOM     33  C   UNL     1      -0.728  12.701  21.267  0.00  0.00    +0.000 C 
ATOM     34  C   UNL     1       0.598  11.914  21.323  0.00  0.00    +0.000 C 
ENDBRANCH  27  29
ENDBRANCH  20  27
ENDBRANCH   1  24
TORSDOF 5
ENDMDL
MODEL 5
REMARK VINA RESULT:      -9.3      1.598      2.145
REMARK  Name = 
REMARK  5 active torsions:
REMARK  status: ('A' for Active; 'I' for Inactive)
REMARK    1  A    between atoms: S_2  and  C_4
REMARK    2  A    between atoms: S_2  and  N_28
REMARK    3  A    between atoms: C_8  and  N_9
REMARK    4  A    between atoms: N_9  and  C_10
REMARK    5  A    between atoms: C_19  and  C_20
REMARK                            x       y       z     vdW  Elec       q    Type
REMARK                         _______ _______ _______ _____ _____    ______ ____
ROOT
ATOM      1  N   UNL     1       2.535   5.071  17.820  0.00  0.00    +0.000 N 
ATOM      2  H   UNL     1       1.914   4.283  18.061  0.00  0.00    +0.000 HD
ENDROOT
BRANCH   1   3
ATOM      3  C   UNL     1       3.748   4.305  17.470  0.00  0.00    +0.000 A 
ATOM      4  N   UNL     1       3.643   3.194  18.223  0.00  0.00    +0.000 NA
ATOM      5  C   UNL     1       4.567   3.126  19.169  0.00  0.00    +0.000 A 
ATOM      6 CL   UNL     1       4.232   2.089  20.484  0.00  0.00    +0.000 Cl
ATOM      7  N   UNL     1       5.536   4.016  19.355  0.00  0.00    +0.000 NA
ATOM      8  C   UNL     1       5.786   4.835  18.324  0.00  0.00    +0.000 A 
ATOM      9  C   UNL     1       6.774   5.759  18.563  0.00  0.00    +0.000 A 
ATOM     10  C   UNL     1       7.217   6.639  17.579  0.00  0.00    +0.000 A 
ATOM     11  C   UNL     1       6.811   6.452  16.271  0.00  0.00    +0.000 A 
ATOM     12  C   UNL     1       5.926   5.401  15.948  0.00  0.00    +0.000 A 
ATOM     13  C   UNL     1       5.078   4.862  17.129  0.00  0.00    +0.000 A 
BRANCH  12  14
ATOM     14  C   UNL     1       6.541   4.675  14.657  0.00  0.00    +0.000 A 
ATOM     15  C   UNL     1       7.597   5.353  13.942  0.00  0.00    +0.000 A 
ATOM     16  C   UNL     1       7.882   5.180  12.555  0.00  0.00    +0.000 A 
ATOM     17  C   UNL     1       7.158   4.245  11.836  0.00  0.00    +0.000 A 
ATOM     18  C   UNL     1       6.204   3.484  12.495  0.00  0.00    +0.000 A 
ATOM     19  C   UNL     1       5.890   3.699  13.887  0.00  0.00    +0.000 A 
ENDBRANCH  12  14
ENDBRANCH   1   3
BRANCH   1  24
ATOM     20  C   UNL     1       1.364   8.544  19.075  0.00  0.00    +0.000 A 
ATOM     21  C   UNL     1       1.527   8.372  20.446  0.00  0.00    +0.000 A 
ATOM     22  C   UNL     1       1.964   7.135  20.941  0.00  0.00    +0.000 A 
ATOM     23  C   UNL     1       2.272   6.046  20.096  0.00  0.00    +0.000 A 
ATOM     24  C   UNL     1       2.125   6.138  18.718  0.00  0.00    +0.000 A 
ATOM     25  C   UNL     1       1.664   7.429  18.212  0.00  0.00    +0.000 A 
BRANCH  20  27
ATOM     26  O   UNL     1       2.367  10.573  17.693  0.00  0.00    +0.000 OA
ATOM     27  S   UNL     1       1.178  10.279  18.475  0.00  0.00    +0.000 S 
ATOM     28  O   UNL     1      -0.123  10.364  17.854  0.00  0.00    +0.000 OA
BRANCH  27  29
ATOM     29  N   UNL     1       1.199  11.382  19.808  0.00  0.00    +0.000 NA
ATOM     30  C   UNL     1      -0.103  11.733  20.451  0.00  0.00    +0.000 C 
ATOM     31  C   UNL     1      -0.901  12.731  19.604  0.00  0.00    +0.000 C 
ATOM     32  O   UNL     1      -0.179  13.960  19.447  0.00  0.00    +0.000 OA
ATOM     33  C   UNL     1       1.079  13.733  18.792  0.00  0.00    +0.000 C 
ATOM     34  C   UNL     1       1.941  12.706  19.555  0.00  0.00    +0.000 C 
ENDBRANCH  27  29
ENDBRANCH  20  27
ENDBRANCH   1  24
TORSDOF 5
ENDMDL
MODEL 6
REMARK VINA RESULT:      -9.2      1.762      2.363
REMARK  Name = 
REMARK  5 active torsions:
REMARK  status: ('A' for Active; 'I' for Inactive)
REMARK    1  A    between atoms: S_2  and  C_4
REMARK    2  A    between atoms: S_2  and  N_28
REMARK    3  A    between atoms: C_8  and  N_9
REMARK    4  A    between atoms: N_9  and  C_10
REMARK    5  A    between atoms: C_19  and  C_20
REMARK                            x       y       z     vdW  Elec       q    Type
REMARK                         _______ _______ _______ _____ _____    ______ ____
ROOT
ATOM      1  N   UNL     1       2.859   7.354  17.807  0.00  0.00    +0.000 N 
ATOM      2  H   UNL     1       2.276   7.465  16.963  0.00  0.00    +0.000 HD
ENDROOT
BRANCH   1   3
ATOM      3  C   UNL     1       3.452   6.035  17.502  0.00  0.00    +0.000 A 
ATOM      4  N   UNL     1       2.553   5.167  18.005  0.00  0.00    +0.000 NA
ATOM      5  C   UNL     1       3.017   4.496  19.048  0.00  0.00    +0.000 A 
ATOM      6 CL   UNL     1       1.850   3.789  20.075  0.00  0.00    +0.000 Cl
ATOM      7  N   UNL     1       4.245   4.607  19.542  0.00  0.00    +0.000 NA
ATOM      8  C   UNL     1       5.153   5.175  18.736  0.00  0.00    +0.000 A 
ATOM      9  C   UNL     1       6.403   5.298  19.293  0.00  0.00    +0.000 A 
ATOM     10  C   UNL     1       7.487   5.794  18.573  0.00  0.00    +0.000 A 
ATOM     11  C   UNL     1       7.367   5.973  17.207  0.00  0.00    +0.000 A 
ATOM     12  C   UNL     1       6.145   5.691  16.561  0.00  0.00    +0.000 A 
ATOM     13  C   UNL     1       4.894   5.699  17.477  0.00  0.00    +0.000 A 
BRANCH  12  14
ATOM     14  C   UNL     1       6.512   4.826  15.262  0.00  0.00    +0.000 A 
ATOM     15  C   UNL     1       7.550   5.324  14.390  0.00  0.00    +0.000 A 
ATOM     16  C   UNL     1       7.646   5.043  12.995  0.00  0.00    +0.000 A 
ATOM     17  C   UNL     1       6.735   4.170  12.426  0.00  0.00    +0.000 A 
ATOM     18  C   UNL     1       5.782   3.573  13.235  0.00  0.00    +0.000 A 
ATOM     19  C   UNL     1       5.663   3.900  14.636  0.00  0.00    +0.000 A 
ENDBRANCH  12  14
ENDBRANCH   1   3
BRANCH   1  24
ATOM     20  C   UNL     1       0.827  10.039  19.721  0.00  0.00    +0.000 A 
ATOM     21  C   UNL     1       0.774   9.447  20.980  0.00  0.00    +0.000 A 
ATOM     22  C   UNL     1       1.348   8.183  21.176  0.00  0.00    +0.000 A 
ATOM     23  C   UNL     1       2.009   7.482  20.143  0.00  0.00    +0.000 A 
ATOM     24  C   UNL     1       2.095   8.003  18.859  0.00  0.00    +0.000 A 
ATOM     25  C   UNL     1       1.488   9.318  18.663  0.00  0.00    +0.000 A 
BRANCH  20  27
ATOM     26  O   UNL     1       1.123  12.363  18.479  0.00  0.00    +0.000 OA
ATOM     27  S   UNL     1       0.416  11.835  19.634  0.00  0.00    +0.000 S 
ATOM     28  O   UNL     1      -1.024  11.932  19.693  0.00  0.00    +0.000 OA
BRANCH  27  29
ATOM     29  N   UNL     1       1.057  12.668  21.008  0.00  0.00    +0.000 NA
ATOM     30  C   UNL     1       0.148  13.581  21.764  0.00  0.00    +0.000 C 
ATOM     31  C   UNL     1      -0.062  14.908  21.026  0.00  0.00    +0.000 C 
ATOM     32  O   UNL     1       1.180  15.607  20.867  0.00  0.00    +0.000 OA
ATOM     33  C   UNL     1       2.114  14.824  20.108  0.00  0.00    +0.000 C 
ATOM     34  C   UNL     1       2.360  13.446  20.756  0.00  0.00    +0.000 C 
ENDBRANCH  27  29
ENDBRANCH  20  27
ENDBRANCH   1  24
TORSDOF 5
ENDMDL
MODEL 7
REMARK VINA RESULT:      -9.2      1.475      1.894
REMARK  Name = 
REMARK  5 active torsions:
REMARK  status: ('A' for Active; 'I' for Inactive)
REMARK    1  A    between atoms: S_2  and  C_4
REMARK    2  A    between atoms: S_2  and  N_28
REMARK    3  A    between atoms: C_8  and  N_9
REMARK    4  A    between atoms: N_9  and  C_10
REMARK    5  A    between atoms: C_19  and  C_20
REMARK                            x       y       z     vdW  Elec       q    Type
REMARK                         _______ _______ _______ _____ _____    ______ ____
ROOT
ATOM      1  N   UNL     1       2.818   7.127  17.818  0.00  0.00    +0.000 N 
ATOM      2  H   UNL     1       2.153   7.150  17.029  0.00  0.00    +0.000 HD
ENDROOT
BRANCH   1   3
ATOM      3  C   UNL     1       3.499   5.855  17.504  0.00  0.00    +0.000 A 
ATOM      4  N   UNL     1       2.688   4.925  18.044  0.00  0.00    +0.000 NA
ATOM      5  C   UNL     1       3.237   4.303  19.076  0.00  0.00    +0.000 A 
ATOM      6 CL   UNL     1       2.164   3.520  20.148  0.00  0.00    +0.000 Cl
ATOM      7  N   UNL     1       4.468   4.514  19.527  0.00  0.00    +0.000 NA
ATOM      8  C   UNL     1       5.303   5.141  18.686  0.00  0.00    +0.000 A 
ATOM      9  C   UNL     1       6.557   5.366  19.198  0.00  0.00    +0.000 A 
ATOM     10  C   UNL     1       7.575   5.935  18.437  0.00  0.00    +0.000 A 
ATOM     11  C   UNL     1       7.396   6.090  17.074  0.00  0.00    +0.000 A 
ATOM     12  C   UNL     1       6.178   5.708  16.473  0.00  0.00    +0.000 A 
ATOM     13  C   UNL     1       4.962   5.629  17.431  0.00  0.00    +0.000 A 
BRANCH  12  14
ATOM     14  C   UNL     1       6.566   4.859  15.170  0.00  0.00    +0.000 A 
ATOM     15  C   UNL     1       7.594   5.387  14.302  0.00  0.00    +0.000 A 
ATOM     16  C   UNL     1       7.699   5.117  12.906  0.00  0.00    +0.000 A 
ATOM     17  C   UNL     1       6.809   4.227  12.329  0.00  0.00    +0.000 A 
ATOM     18  C   UNL     1       5.868   3.603  13.134  0.00  0.00    +0.000 A 
ATOM     19  C   UNL     1       5.739   3.919  14.536  0.00  0.00    +0.000 A 
ENDBRANCH  12  14
ENDBRANCH   1   3
BRANCH   1  24
ATOM     20  C   UNL     1       0.951   9.795  19.916  0.00  0.00    +0.000 A 
ATOM     21  C   UNL     1       0.864   9.125  21.133  0.00  0.00    +0.000 A 
ATOM     22  C   UNL     1       1.362   7.819  21.242  0.00  0.00    +0.000 A 
ATOM     23  C   UNL     1       1.978   7.150  20.161  0.00  0.00    +0.000 A 
ATOM     24  C   UNL     1       2.094   7.749  18.914  0.00  0.00    +0.000 A 
ATOM     25  C   UNL     1       1.567   9.108  18.809  0.00  0.00    +0.000 A 
BRANCH  20  27
ATOM     26  O   UNL     1       1.474  12.150  21.019  0.00  0.00    +0.000 OA
ATOM     27  S   UNL     1       0.648  11.615  19.949  0.00  0.00    +0.000 S 
ATOM     28  O   UNL     1       0.836  12.089  18.598  0.00  0.00    +0.000 OA
BRANCH  27  29
ATOM     29  N   UNL     1      -0.989  11.944  20.401  0.00  0.00    +0.000 NA
ATOM     30  C   UNL     1      -1.660  13.133  19.794  0.00  0.00    +0.000 C 
ATOM     31  C   UNL     1      -1.191  14.440  20.443  0.00  0.00    +0.000 C 
ATOM     32  O   UNL     1      -1.511  14.460  21.841  0.00  0.00    +0.000 OA
ATOM     33  C   UNL     1      -0.871  13.373  22.527  0.00  0.00    +0.000 C 
ATOM     34  C   UNL     1      -1.254  12.009  21.915  0.00  0.00    +0.000 C 
ENDBRANCH  27  29
ENDBRANCH  20  27
ENDBRANCH   1  24
TORSDOF 5
ENDMDL
MODEL 8
REMARK VINA RESULT:      -9.2      1.793      2.368
REMARK  Name = 
REMARK  5 active torsions:
REMARK  status: ('A' for Active; 'I' for Inactive)
REMARK    1  A    between atoms: S_2  and  C_4
REMARK    2  A    between atoms: S_2  and  N_28
REMARK    3  A    between atoms: C_8  and  N_9
REMARK    4  A    between atoms: N_9  and  C_10
REMARK    5  A    between atoms: C_19  and  C_20
REMARK                            x       y       z     vdW  Elec       q    Type
REMARK                         _______ _______ _______ _____ _____    ______ ____
ROOT
ATOM      1  N   UNL     1       2.992   7.503  17.866  0.00  0.00    +0.000 N 
ATOM      2  H   UNL     1       2.596   7.728  16.940  0.00  0.00    +0.000 HD
ENDROOT
BRANCH   1   3
ATOM      3  C   UNL     1       3.545   6.168  17.559  0.00  0.00    +0.000 A 
ATOM      4  N   UNL     1       2.625   5.327  18.070  0.00  0.00    +0.000 NA
ATOM      5  C   UNL     1       3.076   4.644  19.111  0.00  0.00    +0.000 A 
ATOM      6 CL   UNL     1       1.897   3.972  20.147  0.00  0.00    +0.000 Cl
ATOM      7  N   UNL     1       4.310   4.721  19.597  0.00  0.00    +0.000 NA
ATOM      8  C   UNL     1       5.229   5.261  18.784  0.00  0.00    +0.000 A 
ATOM      9  C   UNL     1       6.485   5.349  19.332  0.00  0.00    +0.000 A 
ATOM     10  C   UNL     1       7.579   5.812  18.604  0.00  0.00    +0.000 A 
ATOM     11  C   UNL     1       7.454   5.993  17.238  0.00  0.00    +0.000 A 
ATOM     12  C   UNL     1       6.220   5.745  16.600  0.00  0.00    +0.000 A 
ATOM     13  C   UNL     1       4.976   5.790  17.525  0.00  0.00    +0.000 A 
BRANCH  12  14
ATOM     14  C   UNL     1       6.553   4.867  15.301  0.00  0.00    +0.000 A 
ATOM     15  C   UNL     1       7.583   5.346  14.409  0.00  0.00    +0.000 A 
ATOM     16  C   UNL     1       7.652   5.056  13.014  0.00  0.00    +0.000 A 
ATOM     17  C   UNL     1       6.720   4.193  12.465  0.00  0.00    +0.000 A 
ATOM     18  C   UNL     1       5.772   3.613  13.294  0.00  0.00    +0.000 A 
ATOM     19  C   UNL     1       5.681   3.950  14.694  0.00  0.00    +0.000 A 
ENDBRANCH  12  14
ENDBRANCH   1   3
BRANCH   1  24
ATOM     20  C   UNL     1       0.520  10.053  19.413  0.00  0.00    +0.000 A 
ATOM     21  C   UNL     1       0.441   9.554  20.710  0.00  0.00    +0.000 A 
ATOM     22  C   UNL     1       1.143   8.388  21.047  0.00  0.00    +0.000 A 
ATOM     23  C   UNL     1       1.957   7.699  20.122  0.00  0.00    +0.000 A 
ATOM     24  C   UNL     1       2.079   8.130  18.808  0.00  0.00    +0.000 A 
ATOM     25  C   UNL     1       1.339   9.342  18.464  0.00  0.00    +0.000 A 
BRANCH  20  27
ATOM     26  O   UNL     1       1.006  12.512  18.545  0.00  0.00    +0.000 OA
ATOM     27  S   UNL     1      -0.091  11.774  19.150  0.00  0.00    +0.000 S 
ATOM     28  O   UNL     1      -1.348  11.662  18.447  0.00  0.00    +0.000 OA
BRANCH  27  29
ATOM     29  N   UNL     1      -0.402  12.541  20.669  0.00  0.00    +0.000 NA
ATOM     30  C   UNL     1      -1.783  12.450  21.233  0.00  0.00    +0.000 C 
ATOM     31  C   UNL     1      -2.748  13.406  20.523  0.00  0.00    +0.000 C 
ATOM     32  O   UNL     1      -2.330  14.768  20.685  0.00  0.00    +0.000 OA
ATOM     33  C   UNL     1      -1.021  14.970  20.129  0.00  0.00    +0.000 C 
ATOM     34  C   UNL     1       0.017  14.018  20.758  0.00  0.00    +0.000 C 
ENDBRANCH  27  29
ENDBRANCH  20  27
ENDBRANCH   1  24
TORSDOF 5
ENDMDL
MODEL 9
REMARK VINA RESULT:      -9.0      1.822      2.461
REMARK  Name = 
REMARK  5 active torsions:
REMARK  status: ('A' for Active; 'I' for Inactive)
REMARK    1  A    between atoms: S_2  and  C_4
REMARK    2  A    between atoms: S_2  and  N_28
REMARK    3  A    between atoms: C_8  and  N_9
REMARK    4  A    between atoms: N_9  and  C_10
REMARK    5  A    between atoms: C_19  and  C_20
REMARK                            x       y       z     vdW  Elec       q    Type
REMARK                         _______ _______ _______ _____ _____    ______ ____
ROOT
ATOM      1  N   UNL     1       3.152   7.314  18.211  0.00  0.00    +0.000 N 
ATOM      2  H   UNL     1       3.087   7.988  17.432  0.00  0.00    +0.000 HD
ENDROOT
BRANCH   1   3
ATOM      3  C   UNL     1       3.447   6.094  17.432  0.00  0.00    +0.000 A 
ATOM      4  N   UNL     1       2.419   5.277  17.734  0.00  0.00    +0.000 NA
ATOM      5  C   UNL     1       2.792   4.224  18.444  0.00  0.00    +0.000 A 
ATOM      6 CL   UNL     1       1.564   3.427  19.322  0.00  0.00    +0.000 Cl
ATOM      7  N   UNL     1       4.042   3.947  18.799  0.00  0.00    +0.000 NA
ATOM      8  C   UNL     1       5.002   4.586  18.114  0.00  0.00    +0.000 A 
ATOM      9  C   UNL     1       6.279   4.295  18.529  0.00  0.00    +0.000 A 
ATOM     10  C   UNL     1       7.401   4.807  17.882  0.00  0.00    +0.000 A 
ATOM     11  C   UNL     1       7.245   5.455  16.669  0.00  0.00    +0.000 A 
ATOM     12  C   UNL     1       5.958   5.624  16.117  0.00  0.00    +0.000 A 
ATOM     13  C   UNL     1       4.787   5.540  17.129  0.00  0.00    +0.000 A 
BRANCH  12  14
ATOM     14  C   UNL     1       6.070   5.197  14.576  0.00  0.00    +0.000 A 
ATOM     15  C   UNL     1       5.066   4.302  14.049  0.00  0.00    +0.000 A 
ATOM     16  C   UNL     1       5.265   3.409  12.955  0.00  0.00    +0.000 A 
ATOM     17  C   UNL     1       6.475   3.437  12.281  0.00  0.00    +0.000 A 
ATOM     18  C   UNL     1       7.438   4.354  12.671  0.00  0.00    +0.000 A 
ATOM     19  C   UNL     1       7.246   5.220  13.810  0.00  0.00    +0.000 A 
ENDBRANCH  12  14
ENDBRANCH   1   3
BRANCH   1  24
ATOM     20  C   UNL     1       0.717   9.675  20.082  0.00  0.00    +0.000 A 
ATOM     21  C   UNL     1       0.448   8.900  21.207  0.00  0.00    +0.000 A 
ATOM     22  C   UNL     1       1.015   7.623  21.319  0.00  0.00    +0.000 A 
ATOM     23  C   UNL     1       1.878   7.087  20.337  0.00  0.00    +0.000 A 
ATOM     24  C   UNL     1       2.185   7.796  19.184  0.00  0.00    +0.000 A 
ATOM     25  C   UNL     1       1.586   9.123  19.073  0.00  0.00    +0.000 A 
BRANCH  20  27
ATOM     26  O   UNL     1      -1.166  11.519  20.376  0.00  0.00    +0.000 OA
ATOM     27  S   UNL     1       0.274  11.463  20.184  0.00  0.00    +0.000 S 
ATOM     28  O   UNL     1       1.149  12.049  21.172  0.00  0.00    +0.000 OA
BRANCH  27  29
ATOM     29  N   UNL     1       0.584  12.247  18.673  0.00  0.00    +0.000 NA
ATOM     30  C   UNL     1       1.930  12.859  18.462  0.00  0.00    +0.000 C 
ATOM     31  C   UNL     1       2.070  14.189  19.211  0.00  0.00    +0.000 C 
ATOM     32  O   UNL     1       1.109  15.144  18.741  0.00  0.00    +0.000 OA
ATOM     33  C   UNL     1      -0.229  14.664  18.942  0.00  0.00    +0.000 C 
ATOM     34  C   UNL     1      -0.455  13.302  18.254  0.00  0.00    +0.000 C 
ENDBRANCH  27  29
ENDBRANCH  20  27
ENDBRANCH   1  24
TORSDOF 5
ENDMDL
