MODEL 1
REMARK VINA RESULT:      -8.7      0.000      0.000
REMARK  Name = 
REMARK  10 active torsions:
REMARK  status: ('A' for Active; 'I' for Inactive)
REMARK    1  A    between atoms: C_2  and  O_3
REMARK    2  A    between atoms: C_2  and  C_22
REMARK    3  A    between atoms: O_3  and  C_4
REMARK    4  A    between atoms: N_9  and  C_10
REMARK    5  A    between atoms: C_10  and  C_11
REMARK    6  A    between atoms: C_11  and  C_12
REMARK    7  A    between atoms: C_12  and  O_13
REMARK    8  A    between atoms: O_13  and  C_14
REMARK    9  A    between atoms: C_22  and  C_23
REMARK   10  A    between atoms: C_22  and  C_29
REMARK                            x       y       z     vdW  Elec       q    Type
REMARK                         _______ _______ _______ _____ _____    ______ ____
ROOT
ATOM      1  C   UNL     1       3.509   3.728  18.695  0.00  0.00    +0.000 C 
ATOM      2  C   UNL     1       2.940   2.302  18.886  0.00  0.00    +0.000 C 
ATOM      3  C   UNL     1       1.841   2.248  19.957  0.00  0.00    +0.000 C 
ATOM      4  C   UNL     1       2.385   2.815  21.262  0.00  0.00    +0.000 C 
ATOM      5  C   UNL     1       2.832   4.260  21.071  0.00  0.00    +0.000 C 
ATOM      6  N   UNL     1       2.658   4.695  19.580  0.00  0.00    +0.000 N 
ATOM      7  C   UNL     1       1.166   4.552  19.253  0.00  0.00    +0.000 C 
ATOM      8  C   UNL     1       0.680   3.133  19.521  0.00  0.00    +0.000 C 
ENDROOT
BRANCH   1   9
ATOM      9  O   UNL     1       3.538   4.056  17.296  0.00  0.00    +0.000 OA
BRANCH   9  11
ATOM     10  O   UNL     1       5.115   2.533  16.667  0.00  0.00    +0.000 OA
ATOM     11  C   UNL     1       4.700   3.686  16.647  0.00  0.00    +0.000 C 
BRANCH  11  12
ATOM     12  C   UNL     1       5.371   4.879  15.938  0.00  0.00    +0.000 C 
BRANCH  12  13
ATOM     13  C   UNL     1       6.369   5.616  16.836  0.00  0.00    +0.000 A 
ATOM     14  C   UNL     1       6.577   7.005  16.729  0.00  0.00    +0.000 A 
ATOM     15  C   UNL     1       7.406   7.672  17.636  0.00  0.00    +0.000 A 
ATOM     16  C   UNL     1       8.058   6.968  18.641  0.00  0.00    +0.000 A 
ATOM     17  C   UNL     1       7.890   5.589  18.743  0.00  0.00    +0.000 A 
ATOM     18  C   UNL     1       7.053   4.917  17.848  0.00  0.00    +0.000 A 
ENDBRANCH  12  13
BRANCH  12  19
ATOM     19  C   UNL     1       5.943   4.569  14.550  0.00  0.00    +0.000 A 
ATOM     20  C   UNL     1       7.197   5.111  14.202  0.00  0.00    +0.000 A 
ATOM     21  C   UNL     1       7.748   4.905  12.934  0.00  0.00    +0.000 A 
ATOM     22  C   UNL     1       7.063   4.139  11.998  0.00  0.00    +0.000 A 
ATOM     23  C   UNL     1       5.855   3.538  12.346  0.00  0.00    +0.000 A 
ATOM     24  C   UNL     1       5.304   3.738  13.617  0.00  0.00    +0.000 A 
ENDBRANCH  12  19
ENDBRANCH  11  12
ENDBRANCH   9  11
ENDBRANCH   1   9
BRANCH   6  25
ATOM     25  C   UNL     1       3.187   6.149  19.528  0.00  0.00    +0.000 C 
BRANCH  25  26
ATOM     26  C   UNL     1       2.574   7.129  18.529  0.00  0.00    +0.000 C 
BRANCH  26  27
ATOM     27  C   UNL     1       1.838   8.293  19.159  0.00  0.00    +0.000 C 
BRANCH  27  28
ATOM     28  O   UNL     1       1.699   8.109  20.558  0.00  0.00    +0.000 OA
BRANCH  28  29
ATOM     29  C   UNL     1       0.900   9.047  21.167  0.00  0.00    +0.000 A 
ATOM     30  C   UNL     1       0.692  10.201  20.416  0.00  0.00    +0.000 A 
ATOM     31  C   UNL     1      -0.065  11.251  20.932  0.00  0.00    +0.000 A 
ATOM     32  C   UNL     1      -0.636  11.146  22.198  0.00  0.00    +0.000 A 
ATOM     33  C   UNL     1      -0.460   9.985  22.945  0.00  0.00    +0.000 A 
ATOM     34  C   UNL     1       0.305   8.935  22.431  0.00  0.00    +0.000 A 
ENDBRANCH  28  29
ENDBRANCH  27  28
ENDBRANCH  26  27
ENDBRANCH  25  26
ENDBRANCH   6  25
TORSDOF 10
ENDMDL
MODEL 2
REMARK VINA RESULT:      -8.4      3.095      7.608
REMARK  Name = 
REMARK  10 active torsions:
REMARK  status: ('A' for Active; 'I' for Inactive)
REMARK    1  A    between atoms: C_2  and  O_3
REMARK    2  A    between atoms: C_2  and  C_22
REMARK    3  A    between atoms: O_3  and  C_4
REMARK    4  A    between atoms: N_9  and  C_10
REMARK    5  A    between atoms: C_10  and  C_11
REMARK    6  A    between atoms: C_11  and  C_12
REMARK    7  A    between atoms: C_12  and  O_13
REMARK    8  A    between atoms: O_13  and  C_14
REMARK    9  A    between atoms: C_22  and  C_23
REMARK   10  A    between atoms: C_22  and  C_29
REMARK                            x       y       z     vdW  Elec       q    Type
REMARK                         _______ _______ _______ _____ _____    ______ ____
ROOT
ATOM      1  C   UNL     1       5.329   6.540  17.140  0.00  0.00    +0.000 C 
ATOM      2  C   UNL     1       4.307   5.537  16.554  0.00  0.00    +0.000 C 
ATOM      3  C   UNL     1       4.807   4.086  16.619  0.00  0.00    +0.000 C 
ATOM      4  C   UNL     1       6.155   3.989  15.918  0.00  0.00    +0.000 C 
ATOM      5  C   UNL     1       7.174   4.902  16.590  0.00  0.00    +0.000 C 
ATOM      6  N   UNL     1       6.505   5.710  17.749  0.00  0.00    +0.000 N 
ATOM      7  C   UNL     1       5.973   4.678  18.752  0.00  0.00    +0.000 C 
ATOM      8  C   UNL     1       5.018   3.700  18.077  0.00  0.00    +0.000 C 
ENDROOT
BRANCH   1   9
ATOM      9  O   UNL     1       4.669   7.422  18.064  0.00  0.00    +0.000 OA
BRANCH   9  11
ATOM     10  O   UNL     1       2.641   7.537  17.028  0.00  0.00    +0.000 OA
ATOM     11  C   UNL     1       3.291   7.338  18.047  0.00  0.00    +0.000 C 
BRANCH  11  12
ATOM     12  C   UNL     1       2.718   6.984  19.434  0.00  0.00    +0.000 C 
BRANCH  12  13
ATOM     13  C   UNL     1       1.693   8.009  19.930  0.00  0.00    +0.000 A 
ATOM     14  C   UNL     1       1.120   7.923  21.213  0.00  0.00    +0.000 A 
ATOM     15  C   UNL     1       0.277   8.933  21.685  0.00  0.00    +0.000 A 
ATOM     16  C   UNL     1      -0.029  10.025  20.882  0.00  0.00    +0.000 A 
ATOM     17  C   UNL     1       0.502  10.112  19.597  0.00  0.00    +0.000 A 
ATOM     18  C   UNL     1       1.356   9.112  19.124  0.00  0.00    +0.000 A 
ENDBRANCH  12  13
BRANCH  12  19
ATOM     19  C   UNL     1       2.227   5.539  19.582  0.00  0.00    +0.000 A 
ATOM     20  C   UNL     1       1.647   4.907  18.463  0.00  0.00    +0.000 A 
ATOM     21  C   UNL     1       1.136   3.609  18.549  0.00  0.00    +0.000 A 
ATOM     22  C   UNL     1       1.211   2.914  19.750  0.00  0.00    +0.000 A 
ATOM     23  C   UNL     1       1.842   3.495  20.848  0.00  0.00    +0.000 A 
ATOM     24  C   UNL     1       2.360   4.793  20.762  0.00  0.00    +0.000 A 
ENDBRANCH  12  19
ENDBRANCH  11  12
ENDBRANCH   9  11
ENDBRANCH   1   9
BRANCH   6  25
ATOM     25  C   UNL     1       7.633   6.616  18.301  0.00  0.00    +0.000 C 
BRANCH  25  26
ATOM     26  C   UNL     1       7.877   7.978  17.655  0.00  0.00    +0.000 C 
BRANCH  26  27
ATOM     27  C   UNL     1       8.452   9.024  18.588  0.00  0.00    +0.000 C 
BRANCH  27  28
ATOM     28  O   UNL     1       8.915  10.151  17.863  0.00  0.00    +0.000 OA
BRANCH  28  29
ATOM     29  C   UNL     1       9.801  10.937  18.561  0.00  0.00    +0.000 A 
ATOM     30  C   UNL     1      10.743  11.587  17.768  0.00  0.00    +0.000 A 
ATOM     31  C   UNL     1      11.726  12.383  18.351  0.00  0.00    +0.000 A 
ATOM     32  C   UNL     1      11.764  12.550  19.733  0.00  0.00    +0.000 A 
ATOM     33  C   UNL     1      10.809  11.930  20.533  0.00  0.00    +0.000 A 
ATOM     34  C   UNL     1       9.827  11.126  19.951  0.00  0.00    +0.000 A 
ENDBRANCH  28  29
ENDBRANCH  27  28
ENDBRANCH  26  27
ENDBRANCH  25  26
ENDBRANCH   6  25
TORSDOF 10
ENDMDL
MODEL 3
REMARK VINA RESULT:      -8.4      1.566      2.051
REMARK  Name = 
REMARK  10 active torsions:
REMARK  status: ('A' for Active; 'I' for Inactive)
REMARK    1  A    between atoms: C_2  and  O_3
REMARK    2  A    between atoms: C_2  and  C_22
REMARK    3  A    between atoms: O_3  and  C_4
REMARK    4  A    between atoms: N_9  and  C_10
REMARK    5  A    between atoms: C_10  and  C_11
REMARK    6  A    between atoms: C_11  and  C_12
REMARK    7  A    between atoms: C_12  and  O_13
REMARK    8  A    between atoms: O_13  and  C_14
REMARK    9  A    between atoms: C_22  and  C_23
REMARK   10  A    between atoms: C_22  and  C_29
REMARK                            x       y       z     vdW  Elec       q    Type
REMARK                         _______ _______ _______ _____ _____    ______ ____
ROOT
ATOM      1  C   UNL     1       3.536   3.453  18.502  0.00  0.00    +0.000 C 
ATOM      2  C   UNL     1       2.964   2.058  18.853  0.00  0.00    +0.000 C 
ATOM      3  C   UNL     1       1.899   2.123  19.957  0.00  0.00    +0.000 C 
ATOM      4  C   UNL     1       2.486   2.814  21.180  0.00  0.00    +0.000 C 
ATOM      5  C   UNL     1       2.934   4.228  20.831  0.00  0.00    +0.000 C 
ATOM      6  N   UNL     1       2.718   4.512  19.310  0.00  0.00    +0.000 N 
ATOM      7  C   UNL     1       1.216   4.350  19.043  0.00  0.00    +0.000 C 
ATOM      8  C   UNL     1       0.730   2.969  19.468  0.00  0.00    +0.000 C 
ENDROOT
BRANCH   1   9
ATOM      9  O   UNL     1       3.525   3.637  17.076  0.00  0.00    +0.000 OA
BRANCH   9  11
ATOM     10  O   UNL     1       5.267   2.312  16.436  0.00  0.00    +0.000 OA
ATOM     11  C   UNL     1       4.743   3.419  16.464  0.00  0.00    +0.000 C 
BRANCH  11  12
ATOM     12  C   UNL     1       5.323   4.712  15.857  0.00  0.00    +0.000 C 
BRANCH  12  13
ATOM     13  C   UNL     1       6.199   5.488  16.845  0.00  0.00    +0.000 A 
ATOM     14  C   UNL     1       6.977   4.833  17.819  0.00  0.00    +0.000 A 
ATOM     15  C   UNL     1       7.856   5.555  18.632  0.00  0.00    +0.000 A 
ATOM     16  C   UNL     1       7.954   6.935  18.507  0.00  0.00    +0.000 A 
ATOM     17  C   UNL     1       7.169   7.605  17.572  0.00  0.00    +0.000 A 
ATOM     18  C   UNL     1       6.298   6.888  16.748  0.00  0.00    +0.000 A 
ENDBRANCH  12  13
BRANCH  12  19
ATOM     19  C   UNL     1       5.987   4.543  14.486  0.00  0.00    +0.000 A 
ATOM     20  C   UNL     1       5.340   3.747  13.517  0.00  0.00    +0.000 A 
ATOM     21  C   UNL     1       5.919   3.515  12.267  0.00  0.00    +0.000 A 
ATOM     22  C   UNL     1       7.147   4.088  11.956  0.00  0.00    +0.000 A 
ATOM     23  C   UNL     1       7.769   4.932  12.873  0.00  0.00    +0.000 A 
ATOM     24  C   UNL     1       7.188   5.171  14.124  0.00  0.00    +0.000 A 
ENDBRANCH  12  19
ENDBRANCH  11  12
ENDBRANCH   9  11
ENDBRANCH   1   9
BRANCH   6  25
ATOM     25  C   UNL     1       3.254   5.949  19.094  0.00  0.00    +0.000 C 
BRANCH  25  26
ATOM     26  C   UNL     1       2.575   6.850  18.065  0.00  0.00    +0.000 C 
BRANCH  26  27
ATOM     27  C   UNL     1       2.768   8.333  18.301  0.00  0.00    +0.000 C 
BRANCH  27  28
ATOM     28  O   UNL     1       1.996   9.097  17.390  0.00  0.00    +0.000 OA
BRANCH  28  29
ATOM     29  C   UNL     1       1.304  10.130  17.975  0.00  0.00    +0.000 A 
ATOM     30  C   UNL     1      -0.052   9.877  18.170  0.00  0.00    +0.000 A 
ATOM     31  C   UNL     1      -0.880  10.856  18.716  0.00  0.00    +0.000 A 
ATOM     32  C   UNL     1      -0.354  12.090  19.090  0.00  0.00    +0.000 A 
ATOM     33  C   UNL     1       1.005  12.343  18.928  0.00  0.00    +0.000 A 
ATOM     34  C   UNL     1       1.834  11.365  18.374  0.00  0.00    +0.000 A 
ENDBRANCH  28  29
ENDBRANCH  27  28
ENDBRANCH  26  27
ENDBRANCH  25  26
ENDBRANCH   6  25
TORSDOF 10
ENDMDL
MODEL 4
REMARK VINA RESULT:      -8.4      1.485      1.597
REMARK  Name = 
REMARK  10 active torsions:
REMARK  status: ('A' for Active; 'I' for Inactive)
REMARK    1  A    between atoms: C_2  and  O_3
REMARK    2  A    between atoms: C_2  and  C_22
REMARK    3  A    between atoms: O_3  and  C_4
REMARK    4  A    between atoms: N_9  and  C_10
REMARK    5  A    between atoms: C_10  and  C_11
REMARK    6  A    between atoms: C_11  and  C_12
REMARK    7  A    between atoms: C_12  and  O_13
REMARK    8  A    between atoms: O_13  and  C_14
REMARK    9  A    between atoms: C_22  and  C_23
REMARK   10  A    between atoms: C_22  and  C_29
REMARK                            x       y       z     vdW  Elec       q    Type
REMARK                         _______ _______ _______ _____ _____    ______ ____
ROOT
ATOM      1  C   UNL     1       3.571   3.487  18.472  0.00  0.00    +0.000 C 
ATOM      2  C   UNL     1       2.850   2.139  18.706  0.00  0.00    +0.000 C 
ATOM      3  C   UNL     1       1.772   2.234  19.796  0.00  0.00    +0.000 C 
ATOM      4  C   UNL     1       2.400   2.766  21.077  0.00  0.00    +0.000 C 
ATOM      5  C   UNL     1       3.002   4.146  20.845  0.00  0.00    +0.000 C 
ATOM      6  N   UNL     1       2.851   4.564  19.346  0.00  0.00    +0.000 N 
ATOM      7  C   UNL     1       1.346   4.583  19.046  0.00  0.00    +0.000 C 
ATOM      8  C   UNL     1       0.710   3.233  19.356  0.00  0.00    +0.000 C 
ENDROOT
BRANCH   1   9
ATOM      9  O   UNL     1       3.612   3.778  17.064  0.00  0.00    +0.000 OA
BRANCH   9  11
ATOM     10  O   UNL     1       5.309   2.373  16.475  0.00  0.00    +0.000 OA
ATOM     11  C   UNL     1       4.820   3.497  16.458  0.00  0.00    +0.000 C 
BRANCH  11  12
ATOM     12  C   UNL     1       5.440   4.745  15.799  0.00  0.00    +0.000 C 
BRANCH  12  13
ATOM     13  C   UNL     1       6.384   5.503  16.737  0.00  0.00    +0.000 A 
ATOM     14  C   UNL     1       6.536   6.901  16.665  0.00  0.00    +0.000 A 
ATOM     15  C   UNL     1       7.314   7.582  17.607  0.00  0.00    +0.000 A 
ATOM     16  C   UNL     1       7.971   6.883  18.612  0.00  0.00    +0.000 A 
ATOM     17  C   UNL     1       7.859   5.496  18.680  0.00  0.00    +0.000 A 
ATOM     18  C   UNL     1       7.074   4.811  17.750  0.00  0.00    +0.000 A 
ENDBRANCH  12  13
BRANCH  12  19
ATOM     19  C   UNL     1       6.049   4.510  14.412  0.00  0.00    +0.000 A 
ATOM     20  C   UNL     1       7.250   5.171  14.083  0.00  0.00    +0.000 A 
ATOM     21  C   UNL     1       7.828   5.035  12.818  0.00  0.00    +0.000 A 
ATOM     22  C   UNL     1       7.225   4.223  11.865  0.00  0.00    +0.000 A 
ATOM     23  C   UNL     1       6.075   3.507  12.193  0.00  0.00    +0.000 A 
ATOM     24  C   UNL     1       5.498   3.637  13.462  0.00  0.00    +0.000 A 
ENDBRANCH  12  19
ENDBRANCH  11  12
ENDBRANCH   9  11
ENDBRANCH   1   9
BRANCH   6  25
ATOM     25  C   UNL     1       3.539   5.948  19.250  0.00  0.00    +0.000 C 
BRANCH  25  26
ATOM     26  C   UNL     1       3.085   6.931  18.172  0.00  0.00    +0.000 C 
BRANCH  26  27
ATOM     27  C   UNL     1       2.197   8.051  18.675  0.00  0.00    +0.000 C 
BRANCH  27  28
ATOM     28  O   UNL     1       2.166   9.126  17.752  0.00  0.00    +0.000 OA
BRANCH  28  29
ATOM     29  C   UNL     1       1.391  10.186  18.158  0.00  0.00    +0.000 A 
ATOM     30  C   UNL     1       2.072  11.398  18.245  0.00  0.00    +0.000 A 
ATOM     31  C   UNL     1       1.416  12.546  18.684  0.00  0.00    +0.000 A 
ATOM     32  C   UNL     1       0.066  12.495  19.023  0.00  0.00    +0.000 A 
ATOM     33  C   UNL     1      -0.632  11.296  18.912  0.00  0.00    +0.000 A 
ATOM     34  C   UNL     1       0.026  10.143  18.479  0.00  0.00    +0.000 A 
ENDBRANCH  28  29
ENDBRANCH  27  28
ENDBRANCH  26  27
ENDBRANCH  25  26
ENDBRANCH   6  25
TORSDOF 10
ENDMDL
MODEL 5
REMARK VINA RESULT:      -8.3      0.469      1.265
REMARK  Name = 
REMARK  10 active torsions:
REMARK  status: ('A' for Active; 'I' for Inactive)
REMARK    1  A    between atoms: C_2  and  O_3
REMARK    2  A    between atoms: C_2  and  C_22
REMARK    3  A    between atoms: O_3  and  C_4
REMARK    4  A    between atoms: N_9  and  C_10
REMARK    5  A    between atoms: C_10  and  C_11
REMARK    6  A    between atoms: C_11  and  C_12
REMARK    7  A    between atoms: C_12  and  O_13
REMARK    8  A    between atoms: O_13  and  C_14
REMARK    9  A    between atoms: C_22  and  C_23
REMARK   10  A    between atoms: C_22  and  C_29
REMARK                            x       y       z     vdW  Elec       q    Type
REMARK                         _______ _______ _______ _____ _____    ______ ____
ROOT
ATOM      1  C   UNL     1       3.480   3.606  18.703  0.00  0.00    +0.000 C 
ATOM      2  C   UNL     1       2.901   2.187  18.914  0.00  0.00    +0.000 C 
ATOM      3  C   UNL     1       1.807   2.155  19.992  0.00  0.00    +0.000 C 
ATOM      4  C   UNL     1       2.361   2.735  21.286  0.00  0.00    +0.000 C 
ATOM      5  C   UNL     1       2.817   4.174  21.075  0.00  0.00    +0.000 C 
ATOM      6  N   UNL     1       2.640   4.591  19.579  0.00  0.00    +0.000 N 
ATOM      7  C   UNL     1       1.145   4.455  19.260  0.00  0.00    +0.000 C 
ATOM      8  C   UNL     1       0.651   3.042  19.549  0.00  0.00    +0.000 C 
ENDROOT
BRANCH   1   9
ATOM      9  O   UNL     1       3.506   3.915  17.299  0.00  0.00    +0.000 OA
BRANCH   9  11
ATOM     10  O   UNL     1       5.160   2.482  16.660  0.00  0.00    +0.000 OA
ATOM     11  C   UNL     1       4.699   3.617  16.671  0.00  0.00    +0.000 C 
BRANCH  11  12
ATOM     12  C   UNL     1       5.340   4.862  16.027  0.00  0.00    +0.000 C 
BRANCH  12  13
ATOM     13  C   UNL     1       6.276   5.607  16.983  0.00  0.00    +0.000 A 
ATOM     14  C   UNL     1       6.995   4.935  17.990  0.00  0.00    +0.000 A 
ATOM     15  C   UNL     1       7.930   5.619  18.773  0.00  0.00    +0.000 A 
ATOM     16  C   UNL     1       8.143   6.979  18.586  0.00  0.00    +0.000 A 
ATOM     17  C   UNL     1       7.418   7.668  17.617  0.00  0.00    +0.000 A 
ATOM     18  C   UNL     1       6.491   6.989  16.822  0.00  0.00    +0.000 A 
ENDBRANCH  12  13
BRANCH  12  19
ATOM     19  C   UNL     1       5.968   4.627  14.648  0.00  0.00    +0.000 A 
ATOM     20  C   UNL     1       5.276   3.820  13.721  0.00  0.00    +0.000 A 
ATOM     21  C   UNL     1       5.820   3.530  12.468  0.00  0.00    +0.000 A 
ATOM     22  C   UNL     1       7.057   4.053  12.111  0.00  0.00    +0.000 A 
ATOM     23  C   UNL     1       7.724   4.908  12.986  0.00  0.00    +0.000 A 
ATOM     24  C   UNL     1       7.179   5.206  14.240  0.00  0.00    +0.000 A 
ENDBRANCH  12  19
ENDBRANCH  11  12
ENDBRANCH   9  11
ENDBRANCH   1   9
BRANCH   6  25
ATOM     25  C   UNL     1       3.180   6.041  19.505  0.00  0.00    +0.000 C 
BRANCH  25  26
ATOM     26  C   UNL     1       2.190   7.197  19.380  0.00  0.00    +0.000 C 
BRANCH  26  27
ATOM     27  C   UNL     1       1.574   7.644  20.690  0.00  0.00    +0.000 C 
BRANCH  27  28
ATOM     28  O   UNL     1       1.891   8.998  20.964  0.00  0.00    +0.000 OA
BRANCH  28  29
ATOM     29  C   UNL     1       0.869   9.701  21.556  0.00  0.00    +0.000 A 
ATOM     30  C   UNL     1       0.547  10.896  20.919  0.00  0.00    +0.000 A 
ATOM     31  C   UNL     1      -0.444  11.728  21.438  0.00  0.00    +0.000 A 
ATOM     32  C   UNL     1      -1.133  11.360  22.591  0.00  0.00    +0.000 A 
ATOM     33  C   UNL     1      -0.841  10.153  23.219  0.00  0.00    +0.000 A 
ATOM     34  C   UNL     1       0.156   9.323  22.703  0.00  0.00    +0.000 A 
ENDBRANCH  28  29
ENDBRANCH  27  28
ENDBRANCH  26  27
ENDBRANCH  25  26
ENDBRANCH   6  25
TORSDOF 10
ENDMDL
MODEL 6
REMARK VINA RESULT:      -8.3      0.616      1.047
REMARK  Name = 
REMARK  10 active torsions:
REMARK  status: ('A' for Active; 'I' for Inactive)
REMARK    1  A    between atoms: C_2  and  O_3
REMARK    2  A    between atoms: C_2  and  C_22
REMARK    3  A    between atoms: O_3  and  C_4
REMARK    4  A    between atoms: N_9  and  C_10
REMARK    5  A    between atoms: C_10  and  C_11
REMARK    6  A    between atoms: C_11  and  C_12
REMARK    7  A    between atoms: C_12  and  O_13
REMARK    8  A    between atoms: O_13  and  C_14
REMARK    9  A    between atoms: C_22  and  C_23
REMARK   10  A    between atoms: C_22  and  C_29
REMARK                            x       y       z     vdW  Elec       q    Type
REMARK                         _______ _______ _______ _____ _____    ______ ____
ROOT
ATOM      1  C   UNL     1       3.446   3.724  18.413  0.00  0.00    +0.000 C 
ATOM      2  C   UNL     1       3.244   2.219  18.711  0.00  0.00    +0.000 C 
ATOM      3  C   UNL     1       2.071   1.965  19.670  0.00  0.00    +0.000 C 
ATOM      4  C   UNL     1       2.284   2.768  20.946  0.00  0.00    +0.000 C 
ATOM      5  C   UNL     1       2.363   4.258  20.633  0.00  0.00    +0.000 C 
ATOM      6  N   UNL     1       2.271   4.499  19.091  0.00  0.00    +0.000 N 
ATOM      7  C   UNL     1       0.919   3.932  18.639  0.00  0.00    +0.000 C 
ATOM      8  C   UNL     1       0.786   2.463  19.022  0.00  0.00    +0.000 C 
ENDROOT
BRANCH   1   9
ATOM      9  O   UNL     1       3.565   3.925  16.994  0.00  0.00    +0.000 OA
BRANCH   9  11
ATOM     10  O   UNL     1       5.288   2.495  16.563  0.00  0.00    +0.000 OA
ATOM     11  C   UNL     1       4.808   3.619  16.476  0.00  0.00    +0.000 C 
BRANCH  11  12
ATOM     12  C   UNL     1       5.475   4.842  15.816  0.00  0.00    +0.000 C 
BRANCH  12  13
ATOM     13  C   UNL     1       6.442   5.568  16.756  0.00  0.00    +0.000 A 
ATOM     14  C   UNL     1       6.630   6.963  16.693  0.00  0.00    +0.000 A 
ATOM     15  C   UNL     1       7.430   7.616  17.636  0.00  0.00    +0.000 A 
ATOM     16  C   UNL     1       8.071   6.893  18.634  0.00  0.00    +0.000 A 
ATOM     17  C   UNL     1       7.924   5.509  18.693  0.00  0.00    +0.000 A 
ATOM     18  C   UNL     1       7.117   4.851  17.761  0.00  0.00    +0.000 A 
ENDBRANCH  12  13
BRANCH  12  19
ATOM     19  C   UNL     1       6.081   4.580  14.432  0.00  0.00    +0.000 A 
ATOM     20  C   UNL     1       7.293   5.218  14.096  0.00  0.00    +0.000 A 
ATOM     21  C   UNL     1       7.868   5.058  12.833  0.00  0.00    +0.000 A 
ATOM     22  C   UNL     1       7.253   4.244  11.889  0.00  0.00    +0.000 A 
ATOM     23  C   UNL     1       6.092   3.550  12.226  0.00  0.00    +0.000 A 
ATOM     24  C   UNL     1       5.516   3.705  13.493  0.00  0.00    +0.000 A 
ENDBRANCH  12  19
ENDBRANCH  11  12
ENDBRANCH   9  11
ENDBRANCH   1   9
BRANCH   6  25
ATOM     25  C   UNL     1       2.410   6.032  18.922  0.00  0.00    +0.000 C 
BRANCH  25  26
ATOM     26  C   UNL     1       2.487   6.915  20.166  0.00  0.00    +0.000 C 
BRANCH  26  27
ATOM     27  C   UNL     1       1.578   8.126  20.137  0.00  0.00    +0.000 C 
BRANCH  27  28
ATOM     28  O   UNL     1       0.604   8.054  21.164  0.00  0.00    +0.000 OA
BRANCH  28  29
ATOM     29  C   UNL     1       0.004   9.257  21.450  0.00  0.00    +0.000 A 
ATOM     30  C   UNL     1      -0.354   9.419  22.785  0.00  0.00    +0.000 A 
ATOM     31  C   UNL     1      -1.007  10.577  23.204  0.00  0.00    +0.000 A 
ATOM     32  C   UNL     1      -1.291  11.590  22.292  0.00  0.00    +0.000 A 
ATOM     33  C   UNL     1      -0.910  11.452  20.961  0.00  0.00    +0.000 A 
ATOM     34  C   UNL     1      -0.262  10.289  20.538  0.00  0.00    +0.000 A 
ENDBRANCH  28  29
ENDBRANCH  27  28
ENDBRANCH  26  27
ENDBRANCH  25  26
ENDBRANCH   6  25
TORSDOF 10
ENDMDL
MODEL 7
REMARK VINA RESULT:      -8.2      3.096      7.419
REMARK  Name = 
REMARK  10 active torsions:
REMARK  status: ('A' for Active; 'I' for Inactive)
REMARK    1  A    between atoms: C_2  and  O_3
REMARK    2  A    between atoms: C_2  and  C_22
REMARK    3  A    between atoms: O_3  and  C_4
REMARK    4  A    between atoms: N_9  and  C_10
REMARK    5  A    between atoms: C_10  and  C_11
REMARK    6  A    between atoms: C_11  and  C_12
REMARK    7  A    between atoms: C_12  and  O_13
REMARK    8  A    between atoms: O_13  and  C_14
REMARK    9  A    between atoms: C_22  and  C_23
REMARK   10  A    between atoms: C_22  and  C_29
REMARK                            x       y       z     vdW  Elec       q    Type
REMARK                         _______ _______ _______ _____ _____    ______ ____
ROOT
ATOM      1  C   UNL     1       5.325   6.459  17.230  0.00  0.00    +0.000 C 
ATOM      2  C   UNL     1       4.295   5.435  16.696  0.00  0.00    +0.000 C 
ATOM      3  C   UNL     1       4.787   3.986  16.831  0.00  0.00    +0.000 C 
ATOM      4  C   UNL     1       6.133   3.847  16.132  0.00  0.00    +0.000 C 
ATOM      5  C   UNL     1       7.159   4.785  16.756  0.00  0.00    +0.000 C 
ATOM      6  N   UNL     1       6.497   5.653  17.875  0.00  0.00    +0.000 N 
ATOM      7  C   UNL     1       5.963   4.674  18.929  0.00  0.00    +0.000 C 
ATOM      8  C   UNL     1       5.000   3.671  18.305  0.00  0.00    +0.000 C 
ENDROOT
BRANCH   1   9
ATOM      9  O   UNL     1       4.672   7.389  18.110  0.00  0.00    +0.000 OA
BRANCH   9  11
ATOM     10  O   UNL     1       2.653   7.552  17.063  0.00  0.00    +0.000 OA
ATOM     11  C   UNL     1       3.293   7.328  18.084  0.00  0.00    +0.000 C 
BRANCH  11  12
ATOM     12  C   UNL     1       2.704   6.966  19.462  0.00  0.00    +0.000 C 
BRANCH  12  13
ATOM     13  C   UNL     1       1.705   8.009  19.971  0.00  0.00    +0.000 A 
ATOM     14  C   UNL     1       1.359   9.140  19.207  0.00  0.00    +0.000 A 
ATOM     15  C   UNL     1       0.359  10.015  19.643  0.00  0.00    +0.000 A 
ATOM     16  C   UNL     1      -0.288   9.794  20.852  0.00  0.00    +0.000 A 
ATOM     17  C   UNL     1       0.063   8.699  21.638  0.00  0.00    +0.000 A 
ATOM     18  C   UNL     1       1.052   7.814  21.203  0.00  0.00    +0.000 A 
ENDBRANCH  12  13
BRANCH  12  19
ATOM     19  C   UNL     1       2.175   5.532  19.583  0.00  0.00    +0.000 A 
ATOM     20  C   UNL     1       2.293   4.874  20.825  0.00  0.00    +0.000 A 
ATOM     21  C   UNL     1       1.874   3.550  20.984  0.00  0.00    +0.000 A 
ATOM     22  C   UNL     1       1.315   2.867  19.911  0.00  0.00    +0.000 A 
ATOM     23  C   UNL     1       1.127   3.522  18.695  0.00  0.00    +0.000 A 
ATOM     24  C   UNL     1       1.540   4.850  18.535  0.00  0.00    +0.000 A 
ENDBRANCH  12  19
ENDBRANCH  11  12
ENDBRANCH   9  11
ENDBRANCH   1   9
BRANCH   6  25
ATOM     25  C   UNL     1       7.632   6.578  18.381  0.00  0.00    +0.000 C 
BRANCH  25  26
ATOM     26  C   UNL     1       7.900   7.893  17.650  0.00  0.00    +0.000 C 
BRANCH  26  27
ATOM     27  C   UNL     1       8.417   9.010  18.533  0.00  0.00    +0.000 C 
BRANCH  27  28
ATOM     28  O   UNL     1       8.954  10.065  17.754  0.00  0.00    +0.000 OA
BRANCH  28  29
ATOM     29  C   UNL     1       9.545  11.060  18.496  0.00  0.00    +0.000 A 
ATOM     30  C   UNL     1       9.580  12.303  17.868  0.00  0.00    +0.000 A 
ATOM     31  C   UNL     1      10.187  13.391  18.491  0.00  0.00    +0.000 A 
ATOM     32  C   UNL     1      10.749  13.249  19.758  0.00  0.00    +0.000 A 
ATOM     33  C   UNL     1      10.693  12.020  20.408  0.00  0.00    +0.000 A 
ATOM     34  C   UNL     1      10.091  10.927  19.781  0.00  0.00    +0.000 A 
ENDBRANCH  28  29
ENDBRANCH  27  28
ENDBRANCH  26  27
ENDBRANCH  25  26
ENDBRANCH   6  25
TORSDOF 10
ENDMDL
MODEL 8
REMARK VINA RESULT:      -8.2      1.584      2.023
REMARK  Name = 
REMARK  10 active torsions:
REMARK  status: ('A' for Active; 'I' for Inactive)
REMARK    1  A    between atoms: C_2  and  O_3
REMARK    2  A    between atoms: C_2  and  C_22
REMARK    3  A    between atoms: O_3  and  C_4
REMARK    4  A    between atoms: N_9  and  C_10
REMARK    5  A    between atoms: C_10  and  C_11
REMARK    6  A    between atoms: C_11  and  C_12
REMARK    7  A    between atoms: C_12  and  O_13
REMARK    8  A    between atoms: O_13  and  C_14
REMARK    9  A    between atoms: C_22  and  C_23
REMARK   10  A    between atoms: C_22  and  C_29
REMARK                            x       y       z     vdW  Elec       q    Type
REMARK                         _______ _______ _______ _____ _____    ______ ____
ROOT
ATOM      1  C   UNL     1       3.429   4.067  18.438  0.00  0.00    +0.000 C 
ATOM      2  C   UNL     1       3.649   2.782  19.271  0.00  0.00    +0.000 C 
ATOM      3  C   UNL     1       2.597   2.614  20.377  0.00  0.00    +0.000 C 
ATOM      4  C   UNL     1       2.591   3.859  21.255  0.00  0.00    +0.000 C 
ATOM      5  C   UNL     1       2.258   5.095  20.428  0.00  0.00    +0.000 C 
ATOM      6  N   UNL     1       2.092   4.717  18.920  0.00  0.00    +0.000 N 
ATOM      7  C   UNL     1       0.943   3.702  18.847  0.00  0.00    +0.000 C 
ATOM      8  C   UNL     1       1.220   2.497  19.738  0.00  0.00    +0.000 C 
ENDROOT
BRANCH   1   9
ATOM      9  O   UNL     1       3.478   3.752  17.036  0.00  0.00    +0.000 OA
BRANCH   9  11
ATOM     10  O   UNL     1       5.294   2.435  16.623  0.00  0.00    +0.000 OA
ATOM     11  C   UNL     1       4.750   3.530  16.546  0.00  0.00    +0.000 C 
BRANCH  11  12
ATOM     12  C   UNL     1       5.359   4.804  15.926  0.00  0.00    +0.000 C 
BRANCH  12  13
ATOM     13  C   UNL     1       6.262   5.564  16.903  0.00  0.00    +0.000 A 
ATOM     14  C   UNL     1       7.006   4.897  17.896  0.00  0.00    +0.000 A 
ATOM     15  C   UNL     1       7.910   5.600  18.699  0.00  0.00    +0.000 A 
ATOM     16  C   UNL     1       8.066   6.972  18.545  0.00  0.00    +0.000 A 
ATOM     17  C   UNL     1       7.315   7.654  17.591  0.00  0.00    +0.000 A 
ATOM     18  C   UNL     1       6.419   6.956  16.777  0.00  0.00    +0.000 A 
ENDBRANCH  12  13
BRANCH  12  19
ATOM     19  C   UNL     1       6.010   4.608  14.552  0.00  0.00    +0.000 A 
ATOM     20  C   UNL     1       5.351   3.797  13.604  0.00  0.00    +0.000 A 
ATOM     21  C   UNL     1       5.918   3.541  12.353  0.00  0.00    +0.000 A 
ATOM     22  C   UNL     1       7.144   4.104  12.019  0.00  0.00    +0.000 A 
ATOM     23  C   UNL     1       7.777   4.963  12.915  0.00  0.00    +0.000 A 
ATOM     24  C   UNL     1       7.209   5.226  14.167  0.00  0.00    +0.000 A 
ENDBRANCH  12  19
ENDBRANCH  11  12
ENDBRANCH   9  11
ENDBRANCH   1   9
BRANCH   6  25
ATOM     25  C   UNL     1       1.806   6.060  18.205  0.00  0.00    +0.000 C 
BRANCH  25  26
ATOM     26  C   UNL     1       2.929   7.086  18.071  0.00  0.00    +0.000 C 
BRANCH  26  27
ATOM     27  C   UNL     1       2.506   8.519  18.321  0.00  0.00    +0.000 C 
BRANCH  27  28
ATOM     28  O   UNL     1       1.351   8.846  17.568  0.00  0.00    +0.000 OA
BRANCH  28  29
ATOM     29  C   UNL     1       0.635   9.904  18.076  0.00  0.00    +0.000 A 
ATOM     30  C   UNL     1       1.417  10.910  18.638  0.00  0.00    +0.000 A 
ATOM     31  C   UNL     1       0.817  12.022  19.226  0.00  0.00    +0.000 A 
ATOM     32  C   UNL     1      -0.570  12.145  19.241  0.00  0.00    +0.000 A 
ATOM     33  C   UNL     1      -1.359  11.161  18.655  0.00  0.00    +0.000 A 
ATOM     34  C   UNL     1      -0.760  10.042  18.071  0.00  0.00    +0.000 A 
ENDBRANCH  28  29
ENDBRANCH  27  28
ENDBRANCH  26  27
ENDBRANCH  25  26
ENDBRANCH   6  25
TORSDOF 10
ENDMDL
MODEL 9
REMARK VINA RESULT:      -8.1      1.139      1.455
REMARK  Name = 
REMARK  10 active torsions:
REMARK  status: ('A' for Active; 'I' for Inactive)
REMARK    1  A    between atoms: C_2  and  O_3
REMARK    2  A    between atoms: C_2  and  C_22
REMARK    3  A    between atoms: O_3  and  C_4
REMARK    4  A    between atoms: N_9  and  C_10
REMARK    5  A    between atoms: C_10  and  C_11
REMARK    6  A    between atoms: C_11  and  C_12
REMARK    7  A    between atoms: C_12  and  O_13
REMARK    8  A    between atoms: O_13  and  C_14
REMARK    9  A    between atoms: C_22  and  C_23
REMARK   10  A    between atoms: C_22  and  C_29
REMARK                            x       y       z     vdW  Elec       q    Type
REMARK                         _______ _______ _______ _____ _____    ______ ____
ROOT
ATOM      1  C   UNL     1       3.467   4.241  18.442  0.00  0.00    +0.000 C 
ATOM      2  C   UNL     1       3.761   2.931  19.211  0.00  0.00    +0.000 C 
ATOM      3  C   UNL     1       2.732   2.658  20.317  0.00  0.00    +0.000 C 
ATOM      4  C   UNL     1       2.673   3.858  21.254  0.00  0.00    +0.000 C 
ATOM      5  C   UNL     1       2.268   5.113  20.489  0.00  0.00    +0.000 C 
ATOM      6  N   UNL     1       2.105   4.798  18.967  0.00  0.00    +0.000 N 
ATOM      7  C   UNL     1       1.008   3.731  18.856  0.00  0.00    +0.000 C 
ATOM      8  C   UNL     1       1.355   2.501  19.685  0.00  0.00    +0.000 C 
ENDROOT
BRANCH   1   9
ATOM      9  O   UNL     1       3.516   3.995  17.026  0.00  0.00    +0.000 OA
BRANCH   9  11
ATOM     10  O   UNL     1       5.248   2.554  16.670  0.00  0.00    +0.000 OA
ATOM     11  C   UNL     1       4.771   3.676  16.546  0.00  0.00    +0.000 C 
BRANCH  11  12
ATOM     12  C   UNL     1       5.455   4.882  15.872  0.00  0.00    +0.000 C 
BRANCH  12  13
ATOM     13  C   UNL     1       6.433   5.604  16.803  0.00  0.00    +0.000 A 
ATOM     14  C   UNL     1       6.642   6.995  16.725  0.00  0.00    +0.000 A 
ATOM     15  C   UNL     1       7.452   7.646  17.661  0.00  0.00    +0.000 A 
ATOM     16  C   UNL     1       8.083   6.924  18.666  0.00  0.00    +0.000 A 
ATOM     17  C   UNL     1       7.915   5.544  18.740  0.00  0.00    +0.000 A 
ATOM     18  C   UNL     1       7.098   4.888  17.816  0.00  0.00    +0.000 A 
ENDBRANCH  12  13
BRANCH  12  19
ATOM     19  C   UNL     1       6.055   4.597  14.491  0.00  0.00    +0.000 A 
ATOM     20  C   UNL     1       7.267   5.227  14.140  0.00  0.00    +0.000 A 
ATOM     21  C   UNL     1       7.838   5.046  12.878  0.00  0.00    +0.000 A 
ATOM     22  C   UNL     1       7.218   4.218  11.949  0.00  0.00    +0.000 A 
ATOM     23  C   UNL     1       6.057   3.533  12.301  0.00  0.00    +0.000 A 
ATOM     24  C   UNL     1       5.486   3.708  13.567  0.00  0.00    +0.000 A 
ENDBRANCH  12  19
ENDBRANCH  11  12
ENDBRANCH   9  11
ENDBRANCH   1   9
BRANCH   6  25
ATOM     25  C   UNL     1       1.742   6.157  18.318  0.00  0.00    +0.000 C 
BRANCH  25  26
ATOM     26  C   UNL     1       2.792   7.266  18.279  0.00  0.00    +0.000 C 
BRANCH  26  27
ATOM     27  C   UNL     1       2.321   8.557  17.641  0.00  0.00    +0.000 C 
BRANCH  27  28
ATOM     28  O   UNL     1       2.279   9.607  18.592  0.00  0.00    +0.000 OA
BRANCH  28  29
ATOM     29  C   UNL     1       1.009  10.043  18.885  0.00  0.00    +0.000 A 
ATOM     30  C   UNL     1       0.081   9.840  17.867  0.00  0.00    +0.000 A 
ATOM     31  C   UNL     1      -1.235  10.272  18.017  0.00  0.00    +0.000 A 
ATOM     32  C   UNL     1      -1.639  10.896  19.195  0.00  0.00    +0.000 A 
ATOM     33  C   UNL     1      -0.727  11.076  20.231  0.00  0.00    +0.000 A 
ATOM     34  C   UNL     1       0.594  10.650  20.080  0.00  0.00    +0.000 A 
ENDBRANCH  28  29
ENDBRANCH  27  28
ENDBRANCH  26  27
ENDBRANCH  25  26
ENDBRANCH   6  25
TORSDOF 10
ENDMDL
