MODEL 1
REMARK VINA RESULT:      -8.0      0.000      0.000
REMARK  Name = 
REMARK  8 active torsions:
REMARK  status: ('A' for Active; 'I' for Inactive)
REMARK    1  A    between atoms: C_1  and  N_2
REMARK    2  A    between atoms: N_9  and  C_10
REMARK    3  A    between atoms: C_10  and  C_11
REMARK    4  A    between atoms: C_11  and  O_13
REMARK    5  A    between atoms: O_13  and  C_14
REMARK    6  A    between atoms: C_14  and  C_15
REMARK    7  A    between atoms: N_17  and  C_18
REMARK    8  A    between atoms: N_24  and  C_25
REMARK                            x       y       z     vdW  Elec       q    Type
REMARK                         _______ _______ _______ _____ _____    ______ ____
ROOT
ATOM      1  C   UNL     1       5.155   6.478  16.166  0.00  0.00    +0.000 C 
ENDROOT
BRANCH   1  10
ATOM      2  C   UNL     1       3.659   1.475  18.300  0.00  0.00    +0.000 C 
ATOM      3  N   UNL     1       3.413   2.898  18.437  0.00  0.00    +0.000 N 
ATOM      4  C   UNL     1       4.098   3.784  17.596  0.00  0.00    +0.000 A 
ATOM      5  O   UNL     1       4.900   3.437  16.733  0.00  0.00    +0.000 OA
ATOM      6  C   UNL     1       3.772   5.152  17.836  0.00  0.00    +0.000 A 
ATOM      7  C   UNL     1       2.862   5.532  18.780  0.00  0.00    +0.000 A 
ATOM      8  N   UNL     1       2.683   6.875  18.803  0.00  0.00    +0.000 NA
ATOM      9  C   UNL     1       3.491   7.335  17.871  0.00  0.00    +0.000 A 
ATOM     10  N   UNL     1       4.205   6.328  17.267  0.00  0.00    +0.000 N 
ATOM     11  N   UNL     1       2.211   4.620  19.578  0.00  0.00    +0.000 N 
ATOM     12  C   UNL     1       1.252   5.032  20.583  0.00  0.00    +0.000 C 
ATOM     13  C   UNL     1       2.480   3.263  19.425  0.00  0.00    +0.000 A 
ATOM     14  O   UNL     1       1.921   2.414  20.126  0.00  0.00    +0.000 OA
ENDBRANCH   1  10
BRANCH   1  15
ATOM     15  C   UNL     1       6.604   6.567  16.597  0.00  0.00    +0.000 C 
ATOM     16  O   UNL     1       7.419   5.654  16.565  0.00  0.00    +0.000 OA
BRANCH  15  17
ATOM     17  O   UNL     1       6.901   7.818  17.070  0.00  0.00    +0.000 OA
BRANCH  17  18
ATOM     18  C   UNL     1       7.975   7.819  18.032  0.00  0.00    +0.000 C 
BRANCH  18  19
ATOM     19  C   UNL     1       8.402   9.266  18.272  0.00  0.00    +0.000 C 
ATOM     20  O   UNL     1       7.918  10.156  17.568  0.00  0.00    +0.000 OA
ATOM     21  N   UNL     1       9.318   9.452  19.295  0.00  0.00    +0.000 N 
ATOM     22  H   UNL     1       9.758   8.639  19.706  0.00  0.00    +0.000 HD
BRANCH  21  23
ATOM     23  C   UNL     1       9.734  10.716  19.784  0.00  0.00    +0.000 A 
ATOM     24  C   UNL     1       9.187  11.292  20.936  0.00  0.00    +0.000 A 
ATOM     25  C   UNL     1       9.618  12.535  21.397  0.00  0.00    +0.000 A 
ATOM     26  C   UNL     1      10.608  13.221  20.709  0.00  0.00    +0.000 A 
ATOM     27  C   UNL     1      11.171  12.660  19.563  0.00  0.00    +0.000 A 
ATOM     28  C   UNL     1      10.745  11.406  19.106  0.00  0.00    +0.000 A 
ENDBRANCH  21  23
ENDBRANCH  18  19
ENDBRANCH  17  18
ENDBRANCH  15  17
ENDBRANCH   1  15
TORSDOF 6
ENDMDL
MODEL 2
REMARK VINA RESULT:      -7.6      1.404      2.593
REMARK  Name = 
REMARK  8 active torsions:
REMARK  status: ('A' for Active; 'I' for Inactive)
REMARK    1  A    between atoms: C_1  and  N_2
REMARK    2  A    between atoms: N_9  and  C_10
REMARK    3  A    between atoms: C_10  and  C_11
REMARK    4  A    between atoms: C_11  and  O_13
REMARK    5  A    between atoms: O_13  and  C_14
REMARK    6  A    between atoms: C_14  and  C_15
REMARK    7  A    between atoms: N_17  and  C_18
REMARK    8  A    between atoms: N_24  and  C_25
REMARK                            x       y       z     vdW  Elec       q    Type
REMARK                         _______ _______ _______ _____ _____    ______ ____
ROOT
ATOM      1  C   UNL     1       5.253   6.281  16.227  0.00  0.00    +0.000 C 
ENDROOT
BRANCH   1  10
ATOM      2  C   UNL     1       1.549   6.875  20.440  0.00  0.00    +0.000 C 
ATOM      3  N   UNL     1       2.187   5.871  19.610  0.00  0.00    +0.000 N 
ATOM      4  C   UNL     1       3.101   6.287  18.632  0.00  0.00    +0.000 A 
ATOM      5  O   UNL     1       3.411   7.458  18.430  0.00  0.00    +0.000 OA
ATOM      6  C   UNL     1       3.651   5.206  17.882  0.00  0.00    +0.000 A 
ATOM      7  C   UNL     1       3.322   3.903  18.126  0.00  0.00    +0.000 A 
ATOM      8  N   UNL     1       3.996   3.048  17.320  0.00  0.00    +0.000 NA
ATOM      9  C   UNL     1       4.746   3.823  16.565  0.00  0.00    +0.000 A 
ATOM     10  N   UNL     1       4.553   5.155  16.843  0.00  0.00    +0.000 N 
ATOM     11  N   UNL     1       2.421   3.547  19.103  0.00  0.00    +0.000 N 
ATOM     12  C   UNL     1       2.071   2.163  19.351  0.00  0.00    +0.000 C 
ATOM     13  C   UNL     1       1.821   4.539  19.874  0.00  0.00    +0.000 A 
ATOM     14  O   UNL     1       1.003   4.260  20.756  0.00  0.00    +0.000 OA
ENDBRANCH   1  10
BRANCH   1  15
ATOM     15  C   UNL     1       6.745   6.303  16.478  0.00  0.00    +0.000 C 
ATOM     16  O   UNL     1       7.591   5.706  15.825  0.00  0.00    +0.000 OA
BRANCH  15  17
ATOM     17  O   UNL     1       7.049   7.070  17.572  0.00  0.00    +0.000 OA
BRANCH  17  18
ATOM     18  C   UNL     1       7.289   8.454  17.243  0.00  0.00    +0.000 C 
BRANCH  18  19
ATOM     19  C   UNL     1       8.342   8.999  18.207  0.00  0.00    +0.000 C 
ATOM     20  O   UNL     1       8.847   8.236  19.033  0.00  0.00    +0.000 OA
ATOM     21  N   UNL     1       8.646  10.342  18.054  0.00  0.00    +0.000 N 
ATOM     22  H   UNL     1       8.066  10.906  17.446  0.00  0.00    +0.000 HD
BRANCH  21  23
ATOM     23  C   UNL     1       9.693  11.014  18.735  0.00  0.00    +0.000 A 
ATOM     24  C   UNL     1      10.879  11.394  18.099  0.00  0.00    +0.000 A 
ATOM     25  C   UNL     1      11.890  12.057  18.792  0.00  0.00    +0.000 A 
ATOM     26  C   UNL     1      11.727  12.352  20.138  0.00  0.00    +0.000 A 
ATOM     27  C   UNL     1      10.548  11.988  20.788  0.00  0.00    +0.000 A 
ATOM     28  C   UNL     1       9.527  11.331  20.088  0.00  0.00    +0.000 A 
ENDBRANCH  21  23
ENDBRANCH  18  19
ENDBRANCH  17  18
ENDBRANCH  15  17
ENDBRANCH   1  15
TORSDOF 6
ENDMDL
MODEL 3
REMARK VINA RESULT:      -7.6      3.719      7.031
REMARK  Name = 
REMARK  8 active torsions:
REMARK  status: ('A' for Active; 'I' for Inactive)
REMARK    1  A    between atoms: C_1  and  N_2
REMARK    2  A    between atoms: N_9  and  C_10
REMARK    3  A    between atoms: C_10  and  C_11
REMARK    4  A    between atoms: C_11  and  O_13
REMARK    5  A    between atoms: O_13  and  C_14
REMARK    6  A    between atoms: C_14  and  C_15
REMARK    7  A    between atoms: N_17  and  C_18
REMARK    8  A    between atoms: N_24  and  C_25
REMARK                            x       y       z     vdW  Elec       q    Type
REMARK                         _______ _______ _______ _____ _____    ______ ____
ROOT
ATOM      1  C   UNL     1       3.226   3.805  20.055  0.00  0.00    +0.000 C 
ENDROOT
BRANCH   1  10
ATOM      2  C   UNL     1       7.799   6.510  18.159  0.00  0.00    +0.000 C 
ATOM      3  N   UNL     1       6.700   5.673  17.719  0.00  0.00    +0.000 N 
ATOM      4  C   UNL     1       5.765   5.235  18.666  0.00  0.00    +0.000 A 
ATOM      5  O   UNL     1       5.806   5.520  19.860  0.00  0.00    +0.000 OA
ATOM      6  C   UNL     1       4.741   4.415  18.107  0.00  0.00    +0.000 A 
ATOM      7  C   UNL     1       4.685   4.121  16.774  0.00  0.00    +0.000 A 
ATOM      8  N   UNL     1       3.606   3.362  16.466  0.00  0.00    +0.000 NA
ATOM      9  C   UNL     1       2.988   3.179  17.613  0.00  0.00    +0.000 A 
ATOM     10  N   UNL     1       3.654   3.774  18.657  0.00  0.00    +0.000 N 
ATOM     11  N   UNL     1       5.626   4.581  15.884  0.00  0.00    +0.000 N 
ATOM     12  C   UNL     1       5.565   4.258  14.472  0.00  0.00    +0.000 C 
ATOM     13  C   UNL     1       6.673   5.375  16.344  0.00  0.00    +0.000 A 
ATOM     14  O   UNL     1       7.541   5.802  15.577  0.00  0.00    +0.000 OA
ENDBRANCH   1  10
BRANCH   1  15
ATOM     15  C   UNL     1       2.086   4.760  20.339  0.00  0.00    +0.000 C 
ATOM     16  O   UNL     1       0.897   4.469  20.365  0.00  0.00    +0.000 OA
BRANCH  15  17
ATOM     17  O   UNL     1       2.549   6.033  20.542  0.00  0.00    +0.000 OA
BRANCH  17  18
ATOM     18  C   UNL     1       2.472   6.858  19.361  0.00  0.00    +0.000 C 
BRANCH  18  19
ATOM     19  C   UNL     1       1.723   8.140  19.721  0.00  0.00    +0.000 C 
ATOM     20  O   UNL     1       1.354   8.890  18.813  0.00  0.00    +0.000 OA
ATOM     21  N   UNL     1       1.514   8.344  21.075  0.00  0.00    +0.000 N 
ATOM     22  H   UNL     1       1.987   7.742  21.736  0.00  0.00    +0.000 HD
BRANCH  21  23
ATOM     23  C   UNL     1       0.716   9.383  21.619  0.00  0.00    +0.000 A 
ATOM     24  C   UNL     1      -0.165   9.172  22.684  0.00  0.00    +0.000 A 
ATOM     25  C   UNL     1      -0.934  10.213  23.203  0.00  0.00    +0.000 A 
ATOM     26  C   UNL     1      -0.830  11.485  22.661  0.00  0.00    +0.000 A 
ATOM     27  C   UNL     1       0.049  11.717  21.603  0.00  0.00    +0.000 A 
ATOM     28  C   UNL     1       0.830  10.673  21.089  0.00  0.00    +0.000 A 
ENDBRANCH  21  23
ENDBRANCH  18  19
ENDBRANCH  17  18
ENDBRANCH  15  17
ENDBRANCH   1  15
TORSDOF 6
ENDMDL
MODEL 4
REMARK VINA RESULT:      -7.6      1.351      2.390
REMARK  Name = 
REMARK  8 active torsions:
REMARK  status: ('A' for Active; 'I' for Inactive)
REMARK    1  A    between atoms: C_1  and  N_2
REMARK    2  A    between atoms: N_9  and  C_10
REMARK    3  A    between atoms: C_10  and  C_11
REMARK    4  A    between atoms: C_11  and  O_13
REMARK    5  A    between atoms: O_13  and  C_14
REMARK    6  A    between atoms: C_14  and  C_15
REMARK    7  A    between atoms: N_17  and  C_18
REMARK    8  A    between atoms: N_24  and  C_25
REMARK                            x       y       z     vdW  Elec       q    Type
REMARK                         _______ _______ _______ _____ _____    ______ ____
ROOT
ATOM      1  C   UNL     1       5.239   5.807  15.878  0.00  0.00    +0.000 C 
ENDROOT
BRANCH   1  10
ATOM      2  C   UNL     1       1.815   7.414  20.064  0.00  0.00    +0.000 C 
ATOM      3  N   UNL     1       2.363   6.234  19.422  0.00  0.00    +0.000 N 
ATOM      4  C   UNL     1       3.234   6.400  18.337  0.00  0.00    +0.000 A 
ATOM      5  O   UNL     1       3.578   7.491  17.888  0.00  0.00    +0.000 OA
ATOM      6  C   UNL     1       3.695   5.165  17.793  0.00  0.00    +0.000 A 
ATOM      7  C   UNL     1       3.330   3.955  18.311  0.00  0.00    +0.000 A 
ATOM      8  N   UNL     1       3.920   2.924  17.660  0.00  0.00    +0.000 NA
ATOM      9  C   UNL     1       4.655   3.495  16.728  0.00  0.00    +0.000 A 
ATOM     10  N   UNL     1       4.532   4.863  16.743  0.00  0.00    +0.000 N 
ATOM     11  N   UNL     1       2.474   3.847  19.382  0.00  0.00    +0.000 N 
ATOM     12  C   UNL     1       2.084   2.559  19.920  0.00  0.00    +0.000 C 
ATOM     13  C   UNL     1       1.961   5.001  19.967  0.00  0.00    +0.000 A 
ATOM     14  O   UNL     1       1.185   4.944  20.926  0.00  0.00    +0.000 OA
ENDBRANCH   1  10
BRANCH   1  15
ATOM     15  C   UNL     1       6.630   6.170  16.353  0.00  0.00    +0.000 C 
ATOM     16  O   UNL     1       7.677   5.896  15.781  0.00  0.00    +0.000 OA
BRANCH  15  17
ATOM     17  O   UNL     1       6.583   6.836  17.549  0.00  0.00    +0.000 OA
BRANCH  17  18
ATOM     18  C   UNL     1       7.887   7.063  18.122  0.00  0.00    +0.000 C 
BRANCH  18  19
ATOM     19  C   UNL     1       8.148   8.569  18.138  0.00  0.00    +0.000 C 
ATOM     20  O   UNL     1       7.510   9.293  17.371  0.00  0.00    +0.000 OA
ATOM     21  N   UNL     1       9.103   8.994  19.047  0.00  0.00    +0.000 N 
ATOM     22  H   UNL     1       9.668   8.301  19.519  0.00  0.00    +0.000 HD
BRANCH  21  23
ATOM     23  C   UNL     1       9.393  10.353  19.334  0.00  0.00    +0.000 A 
ATOM     24  C   UNL     1       9.272  10.890  20.619  0.00  0.00    +0.000 A 
ATOM     25  C   UNL     1       9.568  12.228  20.874  0.00  0.00    +0.000 A 
ATOM     26  C   UNL     1       9.993  13.051  19.841  0.00  0.00    +0.000 A 
ATOM     27  C   UNL     1      10.127  12.531  18.553  0.00  0.00    +0.000 A 
ATOM     28  C   UNL     1       9.840  11.183  18.300  0.00  0.00    +0.000 A 
ENDBRANCH  21  23
ENDBRANCH  18  19
ENDBRANCH  17  18
ENDBRANCH  15  17
ENDBRANCH   1  15
TORSDOF 6
ENDMDL
MODEL 5
REMARK VINA RESULT:      -7.5      3.688     10.607
REMARK  Name = 
REMARK  8 active torsions:
REMARK  status: ('A' for Active; 'I' for Inactive)
REMARK    1  A    between atoms: C_1  and  N_2
REMARK    2  A    between atoms: N_9  and  C_10
REMARK    3  A    between atoms: C_10  and  C_11
REMARK    4  A    between atoms: C_11  and  O_13
REMARK    5  A    between atoms: O_13  and  C_14
REMARK    6  A    between atoms: C_14  and  C_15
REMARK    7  A    between atoms: N_17  and  C_18
REMARK    8  A    between atoms: N_24  and  C_25
REMARK                            x       y       z     vdW  Elec       q    Type
REMARK                         _______ _______ _______ _____ _____    ______ ____
ROOT
ATOM      1  C   UNL     1       9.230  11.539  18.101  0.00  0.00    +0.000 C 
ENDROOT
BRANCH   1  10
ATOM      2  C   UNL     1       7.567  16.917  18.471  0.00  0.00    +0.000 C 
ATOM      3  N   UNL     1       8.737  16.095  18.233  0.00  0.00    +0.000 N 
ATOM      4  C   UNL     1       8.597  14.701  18.252  0.00  0.00    +0.000 A 
ATOM      5  O   UNL     1       7.535  14.116  18.452  0.00  0.00    +0.000 OA
ATOM      6  C   UNL     1       9.821  14.010  18.011  0.00  0.00    +0.000 A 
ATOM      7  C   UNL     1      10.995  14.664  17.764  0.00  0.00    +0.000 A 
ATOM      8  N   UNL     1      12.015  13.805  17.524  0.00  0.00    +0.000 NA
ATOM      9  C   UNL     1      11.475  12.609  17.626  0.00  0.00    +0.000 A 
ATOM     10  N   UNL     1      10.142  12.672  17.952  0.00  0.00    +0.000 N 
ATOM     11  N   UNL     1      11.078  16.036  17.752  0.00  0.00    +0.000 N 
ATOM     12  C   UNL     1      12.329  16.723  17.498  0.00  0.00    +0.000 C 
ATOM     13  C   UNL     1       9.935  16.793  17.994  0.00  0.00    +0.000 A 
ATOM     14  O   UNL     1       9.971  18.028  17.998  0.00  0.00    +0.000 OA
ENDBRANCH   1  10
BRANCH   1  15
ATOM     15  C   UNL     1       9.466  10.704  19.341  0.00  0.00    +0.000 C 
ATOM     16  O   UNL     1      10.118  11.042  20.319  0.00  0.00    +0.000 OA
BRANCH  15  17
ATOM     17  O   UNL     1       8.871   9.475  19.227  0.00  0.00    +0.000 OA
BRANCH  17  18
ATOM     18  C   UNL     1       8.315   9.235  17.918  0.00  0.00    +0.000 C 
BRANCH  18  19
ATOM     19  C   UNL     1       7.805   7.795  17.871  0.00  0.00    +0.000 C 
ATOM     20  O   UNL     1       8.227   6.985  18.700  0.00  0.00    +0.000 OA
ATOM     21  N   UNL     1       6.882   7.526  16.873  0.00  0.00    +0.000 N 
ATOM     22  H   UNL     1       6.721   8.225  16.159  0.00  0.00    +0.000 HD
BRANCH  21  23
ATOM     23  C   UNL     1       6.171   6.306  16.742  0.00  0.00    +0.000 A 
ATOM     24  C   UNL     1       6.663   5.228  15.998  0.00  0.00    +0.000 A 
ATOM     25  C   UNL     1       5.944   4.038  15.890  0.00  0.00    +0.000 A 
ATOM     26  C   UNL     1       4.719   3.910  16.527  0.00  0.00    +0.000 A 
ATOM     27  C   UNL     1       4.216   4.972  17.280  0.00  0.00    +0.000 A 
ATOM     28  C   UNL     1       4.944   6.163  17.397  0.00  0.00    +0.000 A 
ENDBRANCH  21  23
ENDBRANCH  18  19
ENDBRANCH  17  18
ENDBRANCH  15  17
ENDBRANCH   1  15
TORSDOF 6
ENDMDL
MODEL 6
REMARK VINA RESULT:      -7.5      1.674      2.265
REMARK  Name = 
REMARK  8 active torsions:
REMARK  status: ('A' for Active; 'I' for Inactive)
REMARK    1  A    between atoms: C_1  and  N_2
REMARK    2  A    between atoms: N_9  and  C_10
REMARK    3  A    between atoms: C_10  and  C_11
REMARK    4  A    between atoms: C_11  and  O_13
REMARK    5  A    between atoms: O_13  and  C_14
REMARK    6  A    between atoms: C_14  and  C_15
REMARK    7  A    between atoms: N_17  and  C_18
REMARK    8  A    between atoms: N_24  and  C_25
REMARK                            x       y       z     vdW  Elec       q    Type
REMARK                         _______ _______ _______ _____ _____    ______ ____
ROOT
ATOM      1  C   UNL     1       6.041   4.390  17.108  0.00  0.00    +0.000 C 
ENDROOT
BRANCH   1  10
ATOM      2  C   UNL     1       2.395   4.121  21.405  0.00  0.00    +0.000 C 
ATOM      3  N   UNL     1       2.801   4.967  20.299  0.00  0.00    +0.000 N 
ATOM      4  C   UNL     1       3.842   4.535  19.466  0.00  0.00    +0.000 A 
ATOM      5  O   UNL     1       4.440   3.471  19.603  0.00  0.00    +0.000 OA
ATOM      6  C   UNL     1       4.148   5.460  18.424  0.00  0.00    +0.000 A 
ATOM      7  C   UNL     1       3.465   6.631  18.260  0.00  0.00    +0.000 A 
ATOM      8  N   UNL     1       3.901   7.328  17.184  0.00  0.00    +0.000 NA
ATOM      9  C   UNL     1       4.864   6.589  16.676  0.00  0.00    +0.000 A 
ATOM     10  N   UNL     1       5.081   5.449  17.411  0.00  0.00    +0.000 N 
ATOM     11  N   UNL     1       2.445   7.007  19.104  0.00  0.00    +0.000 N 
ATOM     12  C   UNL     1       1.731   8.255  18.929  0.00  0.00    +0.000 C 
ATOM     13  C   UNL     1       2.089   6.173  20.161  0.00  0.00    +0.000 A 
ATOM     14  O   UNL     1       1.185   6.479  20.944  0.00  0.00    +0.000 OA
ENDBRANCH   1  10
BRANCH   1  15
ATOM     15  C   UNL     1       7.482   4.749  17.399  0.00  0.00    +0.000 C 
ATOM     16  O   UNL     1       8.364   3.966  17.728  0.00  0.00    +0.000 OA
BRANCH  15  17
ATOM     17  O   UNL     1       7.687   6.098  17.277  0.00  0.00    +0.000 OA
BRANCH  17  18
ATOM     18  C   UNL     1       8.080   6.725  18.515  0.00  0.00    +0.000 C 
BRANCH  18  19
ATOM     19  C   UNL     1       8.222   8.226  18.269  0.00  0.00    +0.000 C 
ATOM     20  O   UNL     1       7.620   8.734  17.319  0.00  0.00    +0.000 OA
ATOM     21  N   UNL     1       9.034   8.900  19.166  0.00  0.00    +0.000 N 
ATOM     22  H   UNL     1       9.593   8.361  19.815  0.00  0.00    +0.000 HD
BRANCH  21  23
ATOM     23  C   UNL     1       9.185  10.310  19.215  0.00  0.00    +0.000 A 
ATOM     24  C   UNL     1       9.545  10.985  20.385  0.00  0.00    +0.000 A 
ATOM     25  C   UNL     1       9.691  12.372  20.403  0.00  0.00    +0.000 A 
ATOM     26  C   UNL     1       9.479  13.104  19.244  0.00  0.00    +0.000 A 
ATOM     27  C   UNL     1       9.127  12.447  18.065  0.00  0.00    +0.000 A 
ATOM     28  C   UNL     1       8.991  11.052  18.045  0.00  0.00    +0.000 A 
ENDBRANCH  21  23
ENDBRANCH  18  19
ENDBRANCH  17  18
ENDBRANCH  15  17
ENDBRANCH   1  15
TORSDOF 6
ENDMDL
MODEL 7
REMARK VINA RESULT:      -7.3      3.747      7.107
REMARK  Name = 
REMARK  8 active torsions:
REMARK  status: ('A' for Active; 'I' for Inactive)
REMARK    1  A    between atoms: C_1  and  N_2
REMARK    2  A    between atoms: N_9  and  C_10
REMARK    3  A    between atoms: C_10  and  C_11
REMARK    4  A    between atoms: C_11  and  O_13
REMARK    5  A    between atoms: O_13  and  C_14
REMARK    6  A    between atoms: C_14  and  C_15
REMARK    7  A    between atoms: N_17  and  C_18
REMARK    8  A    between atoms: N_24  and  C_25
REMARK                            x       y       z     vdW  Elec       q    Type
REMARK                         _______ _______ _______ _____ _____    ______ ____
ROOT
ATOM      1  C   UNL     1       3.181   3.879  19.975  0.00  0.00    +0.000 C 
ENDROOT
BRANCH   1  10
ATOM      2  C   UNL     1       7.799   6.553  18.144  0.00  0.00    +0.000 C 
ATOM      3  N   UNL     1       6.702   5.719  17.689  0.00  0.00    +0.000 N 
ATOM      4  C   UNL     1       5.750   5.290  18.623  0.00  0.00    +0.000 A 
ATOM      5  O   UNL     1       5.773   5.579  19.816  0.00  0.00    +0.000 OA
ATOM      6  C   UNL     1       4.731   4.473  18.050  0.00  0.00    +0.000 A 
ATOM      7  C   UNL     1       4.695   4.174  16.718  0.00  0.00    +0.000 A 
ATOM      8  N   UNL     1       3.617   3.419  16.395  0.00  0.00    +0.000 NA
ATOM      9  C   UNL     1       2.979   3.244  17.533  0.00  0.00    +0.000 A 
ATOM     10  N   UNL     1       3.631   3.840  18.585  0.00  0.00    +0.000 N 
ATOM     11  N   UNL     1       5.653   4.626  15.841  0.00  0.00    +0.000 N 
ATOM     12  C   UNL     1       5.613   4.297  14.430  0.00  0.00    +0.000 C 
ATOM     13  C   UNL     1       6.696   5.416  16.315  0.00  0.00    +0.000 A 
ATOM     14  O   UNL     1       7.579   5.835  15.561  0.00  0.00    +0.000 OA
ENDBRANCH   1  10
BRANCH   1  15
ATOM     15  C   UNL     1       2.055   4.856  20.241  0.00  0.00    +0.000 C 
ATOM     16  O   UNL     1       0.919   4.562  20.591  0.00  0.00    +0.000 OA
BRANCH  15  17
ATOM     17  O   UNL     1       2.457   6.145  20.010  0.00  0.00    +0.000 OA
BRANCH  17  18
ATOM     18  C   UNL     1       1.697   7.117  20.757  0.00  0.00    +0.000 C 
BRANCH  18  19
ATOM     19  C   UNL     1       1.495   8.348  19.874  0.00  0.00    +0.000 C 
ATOM     20  O   UNL     1       2.040   8.385  18.768  0.00  0.00    +0.000 OA
ATOM     21  N   UNL     1       0.688   9.337  20.413  0.00  0.00    +0.000 N 
ATOM     22  H   UNL     1       0.416   9.266  21.384  0.00  0.00    +0.000 HD
BRANCH  21  23
ATOM     23  C   UNL     1       0.248  10.488  19.711  0.00  0.00    +0.000 A 
ATOM     24  C   UNL     1       0.968  11.687  19.711  0.00  0.00    +0.000 A 
ATOM     25  C   UNL     1       0.514  12.802  19.009  0.00  0.00    +0.000 A 
ATOM     26  C   UNL     1      -0.671  12.732  18.292  0.00  0.00    +0.000 A 
ATOM     27  C   UNL     1      -1.400  11.542  18.273  0.00  0.00    +0.000 A 
ATOM     28  C   UNL     1      -0.937  10.419  18.970  0.00  0.00    +0.000 A 
ENDBRANCH  21  23
ENDBRANCH  18  19
ENDBRANCH  17  18
ENDBRANCH  15  17
ENDBRANCH   1  15
TORSDOF 6
ENDMDL
MODEL 8
REMARK VINA RESULT:      -7.3      1.508      2.784
REMARK  Name = 
REMARK  8 active torsions:
REMARK  status: ('A' for Active; 'I' for Inactive)
REMARK    1  A    between atoms: C_1  and  N_2
REMARK    2  A    between atoms: N_9  and  C_10
REMARK    3  A    between atoms: C_10  and  C_11
REMARK    4  A    between atoms: C_11  and  O_13
REMARK    5  A    between atoms: O_13  and  C_14
REMARK    6  A    between atoms: C_14  and  C_15
REMARK    7  A    between atoms: N_17  and  C_18
REMARK    8  A    between atoms: N_24  and  C_25
REMARK                            x       y       z     vdW  Elec       q    Type
REMARK                         _______ _______ _______ _____ _____    ______ ____
ROOT
ATOM      1  C   UNL     1       5.156   5.872  16.269  0.00  0.00    +0.000 C 
ENDROOT
BRANCH   1  10
ATOM      2  C   UNL     1       1.503   8.759  19.454  0.00  0.00    +0.000 C 
ATOM      3  N   UNL     1       2.166   7.473  19.352  0.00  0.00    +0.000 N 
ATOM      4  C   UNL     1       3.047   7.251  18.285  0.00  0.00    +0.000 A 
ATOM      5  O   UNL     1       3.307   8.083  17.420  0.00  0.00    +0.000 OA
ATOM      6  C   UNL     1       3.626   5.948  18.297  0.00  0.00    +0.000 A 
ATOM      7  C   UNL     1       3.353   5.034  19.275  0.00  0.00    +0.000 A 
ATOM      8  N   UNL     1       4.046   3.883  19.103  0.00  0.00    +0.000 NA
ATOM      9  C   UNL     1       4.752   4.078  18.010  0.00  0.00    +0.000 A 
ATOM     10  N   UNL     1       4.512   5.312  17.457  0.00  0.00    +0.000 N 
ATOM     11  N   UNL     1       2.483   5.304  20.306  0.00  0.00    +0.000 N 
ATOM     12  C   UNL     1       2.191   4.326  21.335  0.00  0.00    +0.000 C 
ATOM     13  C   UNL     1       1.858   6.546  20.365  0.00  0.00    +0.000 A 
ATOM     14  O   UNL     1       1.065   6.824  21.271  0.00  0.00    +0.000 OA
ENDBRANCH   1  10
BRANCH   1  15
ATOM     15  C   UNL     1       6.571   6.361  16.497  0.00  0.00    +0.000 C 
ATOM     16  O   UNL     1       7.572   5.951  15.925  0.00  0.00    +0.000 OA
BRANCH  15  17
ATOM     17  O   UNL     1       6.607   7.326  17.469  0.00  0.00    +0.000 OA
BRANCH  17  18
ATOM     18  C   UNL     1       7.895   7.438  18.108  0.00  0.00    +0.000 C 
BRANCH  18  19
ATOM     19  C   UNL     1       8.276   8.916  18.164  0.00  0.00    +0.000 C 
ATOM     20  O   UNL     1       7.770   9.694  17.352  0.00  0.00    +0.000 OA
ATOM     21  N   UNL     1       9.177   9.258  19.159  0.00  0.00    +0.000 N 
ATOM     22  H   UNL     1       9.639   8.518  19.672  0.00  0.00    +0.000 HD
BRANCH  21  23
ATOM     23  C   UNL     1       9.551  10.587  19.486  0.00  0.00    +0.000 A 
ATOM     24  C   UNL     1      10.195  11.430  18.575  0.00  0.00    +0.000 A 
ATOM     25  C   UNL     1      10.547  12.734  18.922  0.00  0.00    +0.000 A 
ATOM     26  C   UNL     1      10.255  13.214  20.190  0.00  0.00    +0.000 A 
ATOM     27  C   UNL     1       9.606  12.390  21.110  0.00  0.00    +0.000 A 
ATOM     28  C   UNL     1       9.243  11.084  20.757  0.00  0.00    +0.000 A 
ENDBRANCH  21  23
ENDBRANCH  18  19
ENDBRANCH  17  18
ENDBRANCH  15  17
ENDBRANCH   1  15
TORSDOF 6
ENDMDL
MODEL 9
REMARK VINA RESULT:      -7.3      4.241      7.047
REMARK  Name = 
REMARK  8 active torsions:
REMARK  status: ('A' for Active; 'I' for Inactive)
REMARK    1  A    between atoms: C_1  and  N_2
REMARK    2  A    between atoms: N_9  and  C_10
REMARK    3  A    between atoms: C_10  and  C_11
REMARK    4  A    between atoms: C_11  and  O_13
REMARK    5  A    between atoms: O_13  and  C_14
REMARK    6  A    between atoms: C_14  and  C_15
REMARK    7  A    between atoms: N_17  and  C_18
REMARK    8  A    between atoms: N_24  and  C_25
REMARK                            x       y       z     vdW  Elec       q    Type
REMARK                         _______ _______ _______ _____ _____    ______ ____
ROOT
ATOM      1  C   UNL     1       3.145   5.601  18.209  0.00  0.00    +0.000 C 
ENDROOT
BRANCH   1  10
ATOM      2  C   UNL     1       1.669  11.043  18.050  0.00  0.00    +0.000 C 
ATOM      3  N   UNL     1       1.577   9.855  18.878  0.00  0.00    +0.000 N 
ATOM      4  C   UNL     1       2.156   8.666  18.417  0.00  0.00    +0.000 A 
ATOM      5  O   UNL     1       2.752   8.557  17.349  0.00  0.00    +0.000 OA
ATOM      6  C   UNL     1       1.990   7.574  19.319  0.00  0.00    +0.000 A 
ATOM      7  C   UNL     1       1.348   7.705  20.518  0.00  0.00    +0.000 A 
ATOM      8  N   UNL     1       1.346   6.549  21.224  0.00  0.00    +0.000 NA
ATOM      9  C   UNL     1       1.987   5.690  20.459  0.00  0.00    +0.000 A 
ATOM     10  N   UNL     1       2.377   6.254  19.268  0.00  0.00    +0.000 N 
ATOM     11  N   UNL     1       0.800   8.899  20.926  0.00  0.00    +0.000 N 
ATOM     12  C   UNL     1       0.112   9.028  22.195  0.00  0.00    +0.000 C 
ATOM     13  C   UNL     1       0.900  10.016  20.101  0.00  0.00    +0.000 A 
ATOM     14  O   UNL     1       0.415  11.103  20.430  0.00  0.00    +0.000 OA
ENDBRANCH   1  10
BRANCH   1  15
ATOM     15  C   UNL     1       4.624   5.461  18.504  0.00  0.00    +0.000 C 
ATOM     16  O   UNL     1       5.132   4.622  19.235  0.00  0.00    +0.000 OA
BRANCH  15  17
ATOM     17  O   UNL     1       5.347   6.430  17.861  0.00  0.00    +0.000 OA
BRANCH  17  18
ATOM     18  C   UNL     1       6.767   6.176  17.870  0.00  0.00    +0.000 C 
BRANCH  18  19
ATOM     19  C   UNL     1       7.109   5.329  16.645  0.00  0.00    +0.000 C 
ATOM     20  O   UNL     1       7.875   4.371  16.777  0.00  0.00    +0.000 OA
ATOM     21  N   UNL     1       6.504   5.725  15.463  0.00  0.00    +0.000 N 
ATOM     22  H   UNL     1       6.015   6.610  15.440  0.00  0.00    +0.000 HD
BRANCH  21  23
ATOM     23  C   UNL     1       6.562   4.999  14.245  0.00  0.00    +0.000 A 
ATOM     24  C   UNL     1       7.569   5.206  13.297  0.00  0.00    +0.000 A 
ATOM     25  C   UNL     1       7.604   4.475  12.110  0.00  0.00    +0.000 A 
ATOM     26  C   UNL     1       6.628   3.522  11.857  0.00  0.00    +0.000 A 
ATOM     27  C   UNL     1       5.620   3.296  12.795  0.00  0.00    +0.000 A 
ATOM     28  C   UNL     1       5.592   4.024  13.992  0.00  0.00    +0.000 A 
ENDBRANCH  21  23
ENDBRANCH  18  19
ENDBRANCH  17  18
ENDBRANCH  15  17
ENDBRANCH   1  15
TORSDOF 6
ENDMDL
