MODEL 1
REMARK VINA RESULT:      -7.8      0.000      0.000
REMARK  Name = 
REMARK  9 active torsions:
REMARK  status: ('A' for Active; 'I' for Inactive)
REMARK    1  A    between atoms: C_2  and  C_3
REMARK    2  A    between atoms: C_3  and  C_4
REMARK    3  A    between atoms: C_4  and  C_5
REMARK    4  A    between atoms: C_8  and  C_9
REMARK    5  A    between atoms: C_9  and  C_10
REMARK    6  A    between atoms: C_10  and  C_11
REMARK    7  A    between atoms: C_11  and  C_12
REMARK    8  A    between atoms: C_12  and  C_13
REMARK    9  A    between atoms: C_25  and  C_26
REMARK                            x       y       z     vdW  Elec       q    Type
REMARK                         _______ _______ _______ _____ _____    ______ ____
ROOT
ATOM      1  C   UNL     1       1.549   8.815  17.570  0.00  0.00    +0.000 C 
ENDROOT
BRANCH   1   3
ATOM      2  O   UNL     1       2.193  10.929  18.490  0.00  0.00    +0.000 OA
ATOM      3  C   UNL     1       1.270  10.149  18.244  0.00  0.00    +0.000 C 
ATOM      4  N   UNL     1      -0.054  10.435  18.555  0.00  0.00    +0.000 N 
ATOM      5  C   UNL     1      -1.193   9.543  18.302  0.00  0.00    +0.000 C 
ATOM      6  C   UNL     1      -2.158  10.128  17.276  0.00  0.00    +0.000 C 
ATOM      7  C   UNL     1      -2.472  11.608  17.494  0.00  0.00    +0.000 C 
ATOM      8  C   UNL     1      -1.231  12.433  17.851  0.00  0.00    +0.000 C 
ATOM      9  C   UNL     1      -0.407  11.803  18.997  0.00  0.00    +0.000 C 
BRANCH   9  10
ATOM     10  C   UNL     1      -1.070  11.838  20.383  0.00  0.00    +0.000 A 
ATOM     11  C   UNL     1      -2.256  12.570  20.591  0.00  0.00    +0.000 A 
ATOM     12  C   UNL     1      -2.851  12.645  21.855  0.00  0.00    +0.000 A 
ATOM     13  C   UNL     1      -2.288  11.950  22.917  0.00  0.00    +0.000 A 
ATOM     14  F   UNL     1      -2.848  12.031  24.130  0.00  0.00    +0.000 F 
ATOM     15  C   UNL     1      -1.161  11.165  22.732  0.00  0.00    +0.000 A 
ATOM     16  C   UNL     1      -0.562  11.099  21.470  0.00  0.00    +0.000 A 
ENDBRANCH   9  10
ENDBRANCH   1   3
BRANCH   1  17
ATOM     17  C   UNL     1       2.689   8.046  18.238  0.00  0.00    +0.000 C 
BRANCH  17  18
ATOM     18  C   UNL     1       2.170   7.186  19.329  0.00  0.00    +0.000 A 
ATOM     19  N   UNL     1       1.796   7.522  20.545  0.00  0.00    +0.000 NA
ATOM     20  N   UNL     1       1.426   6.355  21.176  0.00  0.00    +0.000 NA
ATOM     21  C   UNL     1       1.597   5.385  20.302  0.00  0.00    +0.000 A 
ATOM     22  O   UNL     1       2.069   5.838  19.095  0.00  0.00    +0.000 OA
BRANCH  21  23
ATOM     23  C   UNL     1       1.377   3.930  20.467  0.00  0.00    +0.000 C 
BRANCH  23  24
ATOM     24  C   UNL     1       1.361   3.164  19.140  0.00  0.00    +0.000 C 
BRANCH  24  25
ATOM     25  C   UNL     1       2.389   2.027  19.096  0.00  0.00    +0.000 C 
BRANCH  25  26
ATOM     26  C   UNL     1       3.311   2.148  17.879  0.00  0.00    +0.000 C 
BRANCH  26  27
ATOM     27  C   UNL     1       4.136   3.411  17.922  0.00  0.00    +0.000 A 
ATOM     28  C   UNL     1       4.835   3.761  19.085  0.00  0.00    +0.000 A 
ATOM     29  C   UNL     1       5.592   4.934  19.132  0.00  0.00    +0.000 A 
ATOM     30  C   UNL     1       5.655   5.770  18.021  0.00  0.00    +0.000 A 
ATOM     31  C   UNL     1       4.958   5.436  16.860  0.00  0.00    +0.000 A 
ATOM     32  C   UNL     1       4.198   4.264  16.811  0.00  0.00    +0.000 A 
ENDBRANCH  26  27
ENDBRANCH  25  26
ENDBRANCH  24  25
ENDBRANCH  23  24
ENDBRANCH  21  23
ENDBRANCH  17  18
ENDBRANCH   1  17
TORSDOF 9
ENDMDL
MODEL 2
REMARK VINA RESULT:      -7.8      5.501      8.728
REMARK  Name = 
REMARK  9 active torsions:
REMARK  status: ('A' for Active; 'I' for Inactive)
REMARK    1  A    between atoms: C_2  and  C_3
REMARK    2  A    between atoms: C_3  and  C_4
REMARK    3  A    between atoms: C_4  and  C_5
REMARK    4  A    between atoms: C_8  and  C_9
REMARK    5  A    between atoms: C_9  and  C_10
REMARK    6  A    between atoms: C_10  and  C_11
REMARK    7  A    between atoms: C_11  and  C_12
REMARK    8  A    between atoms: C_12  and  C_13
REMARK    9  A    between atoms: C_25  and  C_26
REMARK                            x       y       z     vdW  Elec       q    Type
REMARK                         _______ _______ _______ _____ _____    ______ ____
ROOT
ATOM      1  C   UNL     1       6.013   3.364  16.386  0.00  0.00    +0.000 C 
ENDROOT
BRANCH   1   3
ATOM      2  O   UNL     1       4.061   4.363  15.425  0.00  0.00    +0.000 OA
ATOM      3  C   UNL     1       4.612   3.952  16.450  0.00  0.00    +0.000 C 
ATOM      4  N   UNL     1       4.000   3.995  17.697  0.00  0.00    +0.000 N 
ATOM      5  C   UNL     1       4.607   3.536  18.952  0.00  0.00    +0.000 C 
ATOM      6  C   UNL     1       3.873   2.333  19.535  0.00  0.00    +0.000 C 
ATOM      7  C   UNL     1       2.350   2.465  19.510  0.00  0.00    +0.000 C 
ATOM      8  C   UNL     1       1.825   3.047  18.194  0.00  0.00    +0.000 C 
ATOM      9  C   UNL     1       2.563   4.341  17.778  0.00  0.00    +0.000 C 
BRANCH   9  10
ATOM     10  C   UNL     1       2.286   5.569  18.657  0.00  0.00    +0.000 A 
ATOM     11  C   UNL     1       1.918   5.414  20.009  0.00  0.00    +0.000 A 
ATOM     12  C   UNL     1       1.625   6.521  20.814  0.00  0.00    +0.000 A 
ATOM     13  C   UNL     1       1.738   7.799  20.284  0.00  0.00    +0.000 A 
ATOM     14  F   UNL     1       1.445   8.859  21.049  0.00  0.00    +0.000 F 
ATOM     15  C   UNL     1       2.164   7.991  18.979  0.00  0.00    +0.000 A 
ATOM     16  C   UNL     1       2.447   6.883  18.174  0.00  0.00    +0.000 A 
ENDBRANCH   9  10
ENDBRANCH   1   3
BRANCH   1  17
ATOM     17  C   UNL     1       7.047   4.363  15.867  0.00  0.00    +0.000 C 
BRANCH  17  18
ATOM     18  C   UNL     1       7.375   5.366  16.909  0.00  0.00    +0.000 A 
ATOM     19  N   UNL     1       7.662   5.179  18.179  0.00  0.00    +0.000 NA
ATOM     20  N   UNL     1       7.859   6.430  18.722  0.00  0.00    +0.000 NA
ATOM     21  C   UNL     1       7.682   7.296  17.746  0.00  0.00    +0.000 A 
ATOM     22  O   UNL     1       7.371   6.690  16.552  0.00  0.00    +0.000 OA
BRANCH  21  23
ATOM     23  C   UNL     1       7.748   8.774  17.785  0.00  0.00    +0.000 C 
BRANCH  23  24
ATOM     24  C   UNL     1       8.914   9.309  18.621  0.00  0.00    +0.000 C 
BRANCH  24  25
ATOM     25  C   UNL     1       9.123  10.819  18.458  0.00  0.00    +0.000 C 
BRANCH  25  26
ATOM     26  C   UNL     1       9.998  11.391  19.577  0.00  0.00    +0.000 C 
BRANCH  26  27
ATOM     27  C   UNL     1      10.817  12.567  19.104  0.00  0.00    +0.000 A 
ATOM     28  C   UNL     1      11.181  13.582  19.999  0.00  0.00    +0.000 A 
ATOM     29  C   UNL     1      11.932  14.676  19.563  0.00  0.00    +0.000 A 
ATOM     30  C   UNL     1      12.324  14.769  18.230  0.00  0.00    +0.000 A 
ATOM     31  C   UNL     1      11.962  13.769  17.329  0.00  0.00    +0.000 A 
ATOM     32  C   UNL     1      11.209  12.674  17.762  0.00  0.00    +0.000 A 
ENDBRANCH  26  27
ENDBRANCH  25  26
ENDBRANCH  24  25
ENDBRANCH  23  24
ENDBRANCH  21  23
ENDBRANCH  17  18
ENDBRANCH   1  17
TORSDOF 9
ENDMDL
MODEL 3
REMARK VINA RESULT:      -7.6      2.433      4.090
REMARK  Name = 
REMARK  9 active torsions:
REMARK  status: ('A' for Active; 'I' for Inactive)
REMARK    1  A    between atoms: C_2  and  C_3
REMARK    2  A    between atoms: C_3  and  C_4
REMARK    3  A    between atoms: C_4  and  C_5
REMARK    4  A    between atoms: C_8  and  C_9
REMARK    5  A    between atoms: C_9  and  C_10
REMARK    6  A    between atoms: C_10  and  C_11
REMARK    7  A    between atoms: C_11  and  C_12
REMARK    8  A    between atoms: C_12  and  C_13
REMARK    9  A    between atoms: C_25  and  C_26
REMARK                            x       y       z     vdW  Elec       q    Type
REMARK                         _______ _______ _______ _____ _____    ______ ____
ROOT
ATOM      1  C   UNL     1       1.521   8.979  21.092  0.00  0.00    +0.000 C 
ENDROOT
BRANCH   1   3
ATOM      2  O   UNL     1      -0.801   9.085  21.666  0.00  0.00    +0.000 OA
ATOM      3  C   UNL     1       0.099   9.494  20.928  0.00  0.00    +0.000 C 
ATOM      4  N   UNL     1      -0.123  10.430  19.926  0.00  0.00    +0.000 N 
ATOM      5  C   UNL     1       0.901  10.943  19.007  0.00  0.00    +0.000 C 
ATOM      6  C   UNL     1       1.163  12.431  19.217  0.00  0.00    +0.000 C 
ATOM      7  C   UNL     1      -0.107  13.267  19.376  0.00  0.00    +0.000 C 
ATOM      8  C   UNL     1      -1.152  12.597  20.273  0.00  0.00    +0.000 C 
ATOM      9  C   UNL     1      -1.427  11.129  19.873  0.00  0.00    +0.000 C 
BRANCH   9  10
ATOM     10  C   UNL     1      -2.163  10.935  18.539  0.00  0.00    +0.000 A 
ATOM     11  C   UNL     1      -3.322  11.682  18.246  0.00  0.00    +0.000 A 
ATOM     12  C   UNL     1      -4.027  11.489  17.053  0.00  0.00    +0.000 A 
ATOM     13  C   UNL     1      -3.554  10.577  16.120  0.00  0.00    +0.000 A 
ATOM     14  F   UNL     1      -4.235  10.382  14.983  0.00  0.00    +0.000 F 
ATOM     15  C   UNL     1      -2.380   9.875  16.346  0.00  0.00    +0.000 A 
ATOM     16  C   UNL     1      -1.682  10.062  17.543  0.00  0.00    +0.000 A 
ENDBRANCH   9  10
ENDBRANCH   1   3
BRANCH   1  17
ATOM     17  C   UNL     1       1.676   7.527  20.643  0.00  0.00    +0.000 C 
BRANCH  17  18
ATOM     18  C   UNL     1       2.356   7.455  19.327  0.00  0.00    +0.000 A 
ATOM     19  N   UNL     1       2.093   8.114  18.220  0.00  0.00    +0.000 NA
ATOM     20  N   UNL     1       2.990   7.666  17.276  0.00  0.00    +0.000 NA
ATOM     21  C   UNL     1       3.743   6.765  17.872  0.00  0.00    +0.000 A 
ATOM     22  O   UNL     1       3.400   6.575  19.189  0.00  0.00    +0.000 OA
BRANCH  21  23
ATOM     23  C   UNL     1       4.846   5.950  17.312  0.00  0.00    +0.000 C 
BRANCH  23  24
ATOM     24  C   UNL     1       4.995   4.583  17.987  0.00  0.00    +0.000 C 
BRANCH  24  25
ATOM     25  C   UNL     1       4.462   3.432  17.125  0.00  0.00    +0.000 C 
BRANCH  25  26
ATOM     26  C   UNL     1       2.944   3.283  17.259  0.00  0.00    +0.000 C 
BRANCH  26  27
ATOM     27  C   UNL     1       2.505   3.277  18.703  0.00  0.00    +0.000 A 
ATOM     28  C   UNL     1       3.274   2.623  19.674  0.00  0.00    +0.000 A 
ATOM     29  C   UNL     1       2.867   2.607  21.010  0.00  0.00    +0.000 A 
ATOM     30  C   UNL     1       1.686   3.241  21.388  0.00  0.00    +0.000 A 
ATOM     31  C   UNL     1       0.909   3.890  20.430  0.00  0.00    +0.000 A 
ATOM     32  C   UNL     1       1.313   3.905  19.093  0.00  0.00    +0.000 A 
ENDBRANCH  26  27
ENDBRANCH  25  26
ENDBRANCH  24  25
ENDBRANCH  23  24
ENDBRANCH  21  23
ENDBRANCH  17  18
ENDBRANCH   1  17
TORSDOF 9
ENDMDL
MODEL 4
REMARK VINA RESULT:      -7.5      5.269      8.660
REMARK  Name = 
REMARK  9 active torsions:
REMARK  status: ('A' for Active; 'I' for Inactive)
REMARK    1  A    between atoms: C_2  and  C_3
REMARK    2  A    between atoms: C_3  and  C_4
REMARK    3  A    between atoms: C_4  and  C_5
REMARK    4  A    between atoms: C_8  and  C_9
REMARK    5  A    between atoms: C_9  and  C_10
REMARK    6  A    between atoms: C_10  and  C_11
REMARK    7  A    between atoms: C_11  and  C_12
REMARK    8  A    between atoms: C_12  and  C_13
REMARK    9  A    between atoms: C_25  and  C_26
REMARK                            x       y       z     vdW  Elec       q    Type
REMARK                         _______ _______ _______ _____ _____    ______ ____
ROOT
ATOM      1  C   UNL     1       6.806   4.409  16.892  0.00  0.00    +0.000 C 
ENDROOT
BRANCH   1   3
ATOM      2  O   UNL     1       4.953   5.456  15.796  0.00  0.00    +0.000 OA
ATOM      3  C   UNL     1       5.355   4.855  16.795  0.00  0.00    +0.000 C 
ATOM      4  N   UNL     1       4.528   4.550  17.869  0.00  0.00    +0.000 N 
ATOM      5  C   UNL     1       4.950   3.852  19.090  0.00  0.00    +0.000 C 
ATOM      6  C   UNL     1       4.275   2.492  19.231  0.00  0.00    +0.000 C 
ATOM      7  C   UNL     1       2.777   2.508  18.925  0.00  0.00    +0.000 C 
ATOM      8  C   UNL     1       2.432   3.346  17.690  0.00  0.00    +0.000 C 
ATOM      9  C   UNL     1       3.068   4.754  17.729  0.00  0.00    +0.000 C 
BRANCH   9  10
ATOM     10  C   UNL     1       2.488   5.712  18.781  0.00  0.00    +0.000 A 
ATOM     11  C   UNL     1       1.899   5.209  19.959  0.00  0.00    +0.000 A 
ATOM     12  C   UNL     1       1.332   6.065  20.909  0.00  0.00    +0.000 A 
ATOM     13  C   UNL     1       1.387   7.438  20.711  0.00  0.00    +0.000 A 
ATOM     14  F   UNL     1       0.832   8.258  21.613  0.00  0.00    +0.000 F 
ATOM     15  C   UNL     1       2.019   7.969  19.598  0.00  0.00    +0.000 A 
ATOM     16  C   UNL     1       2.577   7.112  18.644  0.00  0.00    +0.000 A 
ENDBRANCH   9  10
ENDBRANCH   1   3
BRANCH   1  17
ATOM     17  C   UNL     1       7.541   5.051  18.067  0.00  0.00    +0.000 C 
BRANCH  17  18
ATOM     18  C   UNL     1       7.692   6.512  17.855  0.00  0.00    +0.000 A 
ATOM     19  N   UNL     1       7.274   7.252  16.852  0.00  0.00    +0.000 NA
ATOM     20  N   UNL     1       7.693   8.538  17.115  0.00  0.00    +0.000 NA
ATOM     21  C   UNL     1       8.336   8.496  18.263  0.00  0.00    +0.000 A 
ATOM     22  O   UNL     1       8.376   7.233  18.801  0.00  0.00    +0.000 OA
BRANCH  21  23
ATOM     23  C   UNL     1       9.011   9.591  18.996  0.00  0.00    +0.000 C 
BRANCH  23  24
ATOM     24  C   UNL     1       9.111  10.890  18.191  0.00  0.00    +0.000 C 
BRANCH  24  25
ATOM     25  C   UNL     1      10.540  11.443  18.124  0.00  0.00    +0.000 C 
BRANCH  25  26
ATOM     26  C   UNL     1      10.607  12.892  18.612  0.00  0.00    +0.000 C 
BRANCH  26  27
ATOM     27  C   UNL     1       9.772  13.108  19.851  0.00  0.00    +0.000 A 
ATOM     28  C   UNL     1      10.108  12.469  21.051  0.00  0.00    +0.000 A 
ATOM     29  C   UNL     1       9.332  12.658  22.197  0.00  0.00    +0.000 A 
ATOM     30  C   UNL     1       8.212  13.484  22.154  0.00  0.00    +0.000 A 
ATOM     31  C   UNL     1       7.863  14.119  20.963  0.00  0.00    +0.000 A 
ATOM     32  C   UNL     1       8.636  13.930  19.815  0.00  0.00    +0.000 A 
ENDBRANCH  26  27
ENDBRANCH  25  26
ENDBRANCH  24  25
ENDBRANCH  23  24
ENDBRANCH  21  23
ENDBRANCH  17  18
ENDBRANCH   1  17
TORSDOF 9
ENDMDL
MODEL 5
REMARK VINA RESULT:      -7.5      2.179      3.766
REMARK  Name = 
REMARK  9 active torsions:
REMARK  status: ('A' for Active; 'I' for Inactive)
REMARK    1  A    between atoms: C_2  and  C_3
REMARK    2  A    between atoms: C_3  and  C_4
REMARK    3  A    between atoms: C_4  and  C_5
REMARK    4  A    between atoms: C_8  and  C_9
REMARK    5  A    between atoms: C_9  and  C_10
REMARK    6  A    between atoms: C_10  and  C_11
REMARK    7  A    between atoms: C_11  and  C_12
REMARK    8  A    between atoms: C_12  and  C_13
REMARK    9  A    between atoms: C_25  and  C_26
REMARK                            x       y       z     vdW  Elec       q    Type
REMARK                         _______ _______ _______ _____ _____    ______ ____
ROOT
ATOM      1  C   UNL     1       1.565  10.205  18.704  0.00  0.00    +0.000 C 
ENDROOT
BRANCH   1   3
ATOM      2  O   UNL     1      -0.126   9.492  20.241  0.00  0.00    +0.000 OA
ATOM      3  C   UNL     1       0.241  10.352  19.437  0.00  0.00    +0.000 C 
ATOM      4  N   UNL     1      -0.513  11.486  19.159  0.00  0.00    +0.000 N 
ATOM      5  C   UNL     1      -0.139  12.536  18.204  0.00  0.00    +0.000 C 
ATOM      6  C   UNL     1       0.121  13.870  18.895  0.00  0.00    +0.000 C 
ATOM      7  C   UNL     1      -0.922  14.235  19.951  0.00  0.00    +0.000 C 
ATOM      8  C   UNL     1      -1.317  13.045  20.832  0.00  0.00    +0.000 C 
ATOM      9  C   UNL     1      -1.688  11.791  20.007  0.00  0.00    +0.000 C 
BRANCH   9  10
ATOM     10  C   UNL     1      -2.998  11.888  19.211  0.00  0.00    +0.000 A 
ATOM     11  C   UNL     1      -4.144  12.471  19.787  0.00  0.00    +0.000 A 
ATOM     12  C   UNL     1      -5.356  12.532  19.091  0.00  0.00    +0.000 A 
ATOM     13  C   UNL     1      -5.422  12.048  17.792  0.00  0.00    +0.000 A 
ATOM     14  F   UNL     1      -6.585  12.093  17.128  0.00  0.00    +0.000 F 
ATOM     15  C   UNL     1      -4.297  11.531  17.170  0.00  0.00    +0.000 A 
ATOM     16  C   UNL     1      -3.089  11.462  17.871  0.00  0.00    +0.000 A 
ENDBRANCH   9  10
ENDBRANCH   1   3
BRANCH   1  17
ATOM     17  C   UNL     1       1.570   9.028  17.729  0.00  0.00    +0.000 C 
BRANCH  17  18
ATOM     18  C   UNL     1       2.351   7.894  18.280  0.00  0.00    +0.000 A 
ATOM     19  N   UNL     1       2.220   7.281  19.437  0.00  0.00    +0.000 NA
ATOM     20  N   UNL     1       3.205   6.319  19.482  0.00  0.00    +0.000 NA
ATOM     21  C   UNL     1       3.869   6.408  18.348  0.00  0.00    +0.000 A 
ATOM     22  O   UNL     1       3.380   7.393  17.524  0.00  0.00    +0.000 OA
BRANCH  21  23
ATOM     23  C   UNL     1       5.041   5.629  17.888  0.00  0.00    +0.000 C 
BRANCH  23  24
ATOM     24  C   UNL     1       4.735   4.720  16.694  0.00  0.00    +0.000 C 
BRANCH  24  25
ATOM     25  C   UNL     1       3.435   3.925  16.866  0.00  0.00    +0.000 C 
BRANCH  25  26
ATOM     26  C   UNL     1       3.637   2.701  17.763  0.00  0.00    +0.000 C 
BRANCH  26  27
ATOM     27  C   UNL     1       2.830   2.797  19.035  0.00  0.00    +0.000 A 
ATOM     28  C   UNL     1       3.451   2.633  20.280  0.00  0.00    +0.000 A 
ATOM     29  C   UNL     1       2.707   2.712  21.460  0.00  0.00    +0.000 A 
ATOM     30  C   UNL     1       1.336   2.951  21.406  0.00  0.00    +0.000 A 
ATOM     31  C   UNL     1       0.706   3.109  20.172  0.00  0.00    +0.000 A 
ATOM     32  C   UNL     1       1.448   3.028  18.991  0.00  0.00    +0.000 A 
ENDBRANCH  26  27
ENDBRANCH  25  26
ENDBRANCH  24  25
ENDBRANCH  23  24
ENDBRANCH  21  23
ENDBRANCH  17  18
ENDBRANCH   1  17
TORSDOF 9
ENDMDL
MODEL 6
REMARK VINA RESULT:      -7.5      0.590      1.257
REMARK  Name = 
REMARK  9 active torsions:
REMARK  status: ('A' for Active; 'I' for Inactive)
REMARK    1  A    between atoms: C_2  and  C_3
REMARK    2  A    between atoms: C_3  and  C_4
REMARK    3  A    between atoms: C_4  and  C_5
REMARK    4  A    between atoms: C_8  and  C_9
REMARK    5  A    between atoms: C_9  and  C_10
REMARK    6  A    between atoms: C_10  and  C_11
REMARK    7  A    between atoms: C_11  and  C_12
REMARK    8  A    between atoms: C_12  and  C_13
REMARK    9  A    between atoms: C_25  and  C_26
REMARK                            x       y       z     vdW  Elec       q    Type
REMARK                         _______ _______ _______ _____ _____    ______ ____
ROOT
ATOM      1  C   UNL     1       1.592   8.781  17.573  0.00  0.00    +0.000 C 
ENDROOT
BRANCH   1   3
ATOM      2  O   UNL     1       2.287  10.854  18.549  0.00  0.00    +0.000 OA
ATOM      3  C   UNL     1       1.343  10.111  18.268  0.00  0.00    +0.000 C 
ATOM      4  N   UNL     1       0.024  10.435  18.558  0.00  0.00    +0.000 N 
ATOM      5  C   UNL     1      -1.139   9.588  18.264  0.00  0.00    +0.000 C 
ATOM      6  C   UNL     1      -2.062  10.225  17.231  0.00  0.00    +0.000 C 
ATOM      7  C   UNL     1      -2.330  11.711  17.472  0.00  0.00    +0.000 C 
ATOM      8  C   UNL     1      -1.071  12.486  17.870  0.00  0.00    +0.000 C 
ATOM      9  C   UNL     1      -0.293  11.806  19.020  0.00  0.00    +0.000 C 
BRANCH   9  10
ATOM     10  C   UNL     1      -0.982  11.837  20.392  0.00  0.00    +0.000 A 
ATOM     11  C   UNL     1      -0.467  11.087  21.469  0.00  0.00    +0.000 A 
ATOM     12  C   UNL     1      -1.104  11.073  22.715  0.00  0.00    +0.000 A 
ATOM     13  C   UNL     1      -2.242  11.844  22.908  0.00  0.00    +0.000 A 
ATOM     14  F   UNL     1      -2.861  11.822  24.096  0.00  0.00    +0.000 F 
ATOM     15  C   UNL     1      -2.736  12.646  21.892  0.00  0.00    +0.000 A 
ATOM     16  C   UNL     1      -2.104  12.652  20.645  0.00  0.00    +0.000 A 
ENDBRANCH   9  10
ENDBRANCH   1   3
BRANCH   1  17
ATOM     17  C   UNL     1       2.775   8.018  18.170  0.00  0.00    +0.000 C 
BRANCH  17  18
ATOM     18  C   UNL     1       2.301   6.942  19.074  0.00  0.00    +0.000 A 
ATOM     19  N   UNL     1       2.097   6.980  20.374  0.00  0.00    +0.000 NA
ATOM     20  N   UNL     1       1.691   5.717  20.742  0.00  0.00    +0.000 NA
ATOM     21  C   UNL     1       1.671   4.993  19.642  0.00  0.00    +0.000 A 
ATOM     22  O   UNL     1       2.048   5.708  18.531  0.00  0.00    +0.000 OA
BRANCH  21  23
ATOM     23  C   UNL     1       1.334   3.562  19.471  0.00  0.00    +0.000 C 
BRANCH  23  24
ATOM     24  C   UNL     1       2.393   2.615  20.044  0.00  0.00    +0.000 C 
BRANCH  24  25
ATOM     25  C   UNL     1       3.549   2.354  19.071  0.00  0.00    +0.000 C 
BRANCH  25  26
ATOM     26  C   UNL     1       4.774   3.207  19.410  0.00  0.00    +0.000 C 
BRANCH  26  27
ATOM     27  C   UNL     1       5.090   4.196  18.314  0.00  0.00    +0.000 A 
ATOM     28  C   UNL     1       5.709   5.415  18.618  0.00  0.00    +0.000 A 
ATOM     29  C   UNL     1       5.996   6.337  17.609  0.00  0.00    +0.000 A 
ATOM     30  C   UNL     1       5.663   6.052  16.287  0.00  0.00    +0.000 A 
ATOM     31  C   UNL     1       5.040   4.844  15.973  0.00  0.00    +0.000 A 
ATOM     32  C   UNL     1       4.751   3.922  16.981  0.00  0.00    +0.000 A 
ENDBRANCH  26  27
ENDBRANCH  25  26
ENDBRANCH  24  25
ENDBRANCH  23  24
ENDBRANCH  21  23
ENDBRANCH  17  18
ENDBRANCH   1  17
TORSDOF 9
ENDMDL
MODEL 7
REMARK VINA RESULT:      -7.4      2.292      3.520
REMARK  Name = 
REMARK  9 active torsions:
REMARK  status: ('A' for Active; 'I' for Inactive)
REMARK    1  A    between atoms: C_2  and  C_3
REMARK    2  A    between atoms: C_3  and  C_4
REMARK    3  A    between atoms: C_4  and  C_5
REMARK    4  A    between atoms: C_8  and  C_9
REMARK    5  A    between atoms: C_9  and  C_10
REMARK    6  A    between atoms: C_10  and  C_11
REMARK    7  A    between atoms: C_11  and  C_12
REMARK    8  A    between atoms: C_12  and  C_13
REMARK    9  A    between atoms: C_25  and  C_26
REMARK                            x       y       z     vdW  Elec       q    Type
REMARK                         _______ _______ _______ _____ _____    ______ ____
ROOT
ATOM      1  C   UNL     1       1.913   8.407  20.499  0.00  0.00    +0.000 C 
ENDROOT
BRANCH   1   3
ATOM      2  O   UNL     1      -0.332   8.553  21.316  0.00  0.00    +0.000 OA
ATOM      3  C   UNL     1       0.509   8.990  20.527  0.00  0.00    +0.000 C 
ATOM      4  N   UNL     1       0.235  10.022  19.637  0.00  0.00    +0.000 N 
ATOM      5  C   UNL     1       1.187  10.575  18.666  0.00  0.00    +0.000 C 
ATOM      6  C   UNL     1       1.540  12.026  18.976  0.00  0.00    +0.000 C 
ATOM      7  C   UNL     1       0.334  12.894  19.335  0.00  0.00    +0.000 C 
ATOM      8  C   UNL     1      -0.648  12.187  20.274  0.00  0.00    +0.000 C 
ATOM      9  C   UNL     1      -1.032  10.774  19.780  0.00  0.00    +0.000 C 
BRANCH   9  10
ATOM     10  C   UNL     1      -1.905  10.730  18.517  0.00  0.00    +0.000 A 
ATOM     11  C   UNL     1      -1.579   9.869  17.450  0.00  0.00    +0.000 A 
ATOM     12  C   UNL     1      -2.340   9.845  16.276  0.00  0.00    +0.000 A 
ATOM     13  C   UNL     1      -3.464  10.654  16.175  0.00  0.00    +0.000 A 
ATOM     14  F   UNL     1      -4.186  10.642  15.048  0.00  0.00    +0.000 F 
ATOM     15  C   UNL     1      -3.853  11.462  17.231  0.00  0.00    +0.000 A 
ATOM     16  C   UNL     1      -3.085  11.492  18.400  0.00  0.00    +0.000 A 
ENDBRANCH   9  10
ENDBRANCH   1   3
BRANCH   1  17
ATOM     17  C   UNL     1       2.111   7.403  19.364  0.00  0.00    +0.000 C 
BRANCH  17  18
ATOM     18  C   UNL     1       1.847   6.022  19.836  0.00  0.00    +0.000 A 
ATOM     19  N   UNL     1       1.765   5.567  21.068  0.00  0.00    +0.000 NA
ATOM     20  N   UNL     1       1.537   4.212  20.968  0.00  0.00    +0.000 NA
ATOM     21  C   UNL     1       1.493   3.931  19.683  0.00  0.00    +0.000 A 
ATOM     22  O   UNL     1       1.681   5.039  18.893  0.00  0.00    +0.000 OA
BRANCH  21  23
ATOM     23  C   UNL     1       1.301   2.622  19.018  0.00  0.00    +0.000 C 
BRANCH  23  24
ATOM     24  C   UNL     1       2.191   2.430  17.787  0.00  0.00    +0.000 C 
BRANCH  24  25
ATOM     25  C   UNL     1       3.604   1.951  18.141  0.00  0.00    +0.000 C 
BRANCH  25  26
ATOM     26  C   UNL     1       4.444   3.076  18.751  0.00  0.00    +0.000 C 
BRANCH  26  27
ATOM     27  C   UNL     1       4.837   4.107  17.721  0.00  0.00    +0.000 A 
ATOM     28  C   UNL     1       4.985   3.742  16.376  0.00  0.00    +0.000 A 
ATOM     29  C   UNL     1       5.358   4.690  15.421  0.00  0.00    +0.000 A 
ATOM     30  C   UNL     1       5.590   6.010  15.800  0.00  0.00    +0.000 A 
ATOM     31  C   UNL     1       5.453   6.383  17.136  0.00  0.00    +0.000 A 
ATOM     32  C   UNL     1       5.083   5.436  18.094  0.00  0.00    +0.000 A 
ENDBRANCH  26  27
ENDBRANCH  25  26
ENDBRANCH  24  25
ENDBRANCH  23  24
ENDBRANCH  21  23
ENDBRANCH  17  18
ENDBRANCH   1  17
TORSDOF 9
ENDMDL
MODEL 8
REMARK VINA RESULT:      -7.4      1.848      3.349
REMARK  Name = 
REMARK  9 active torsions:
REMARK  status: ('A' for Active; 'I' for Inactive)
REMARK    1  A    between atoms: C_2  and  C_3
REMARK    2  A    between atoms: C_3  and  C_4
REMARK    3  A    between atoms: C_4  and  C_5
REMARK    4  A    between atoms: C_8  and  C_9
REMARK    5  A    between atoms: C_9  and  C_10
REMARK    6  A    between atoms: C_10  and  C_11
REMARK    7  A    between atoms: C_11  and  C_12
REMARK    8  A    between atoms: C_12  and  C_13
REMARK    9  A    between atoms: C_25  and  C_26
REMARK                            x       y       z     vdW  Elec       q    Type
REMARK                         _______ _______ _______ _____ _____    ______ ____
ROOT
ATOM      1  C   UNL     1       0.627   7.612  20.782  0.00  0.00    +0.000 C 
ENDROOT
BRANCH   1   3
ATOM      2  O   UNL     1       1.462   9.039  22.513  0.00  0.00    +0.000 OA
ATOM      3  C   UNL     1       0.786   8.951  21.485  0.00  0.00    +0.000 C 
ATOM      4  N   UNL     1       0.146  10.045  20.914  0.00  0.00    +0.000 N 
ATOM      5  C   UNL     1      -0.683  10.001  19.703  0.00  0.00    +0.000 C 
ATOM      6  C   UNL     1      -0.062  10.796  18.559  0.00  0.00    +0.000 C 
ATOM      7  C   UNL     1       0.483  12.162  18.977  0.00  0.00    +0.000 C 
ATOM      8  C   UNL     1       1.246  12.117  20.304  0.00  0.00    +0.000 C 
ATOM      9  C   UNL     1       0.454  11.401  21.422  0.00  0.00    +0.000 C 
BRANCH   9  10
ATOM     10  C   UNL     1      -0.785  12.149  21.936  0.00  0.00    +0.000 A 
ATOM     11  C   UNL     1      -1.603  11.579  22.933  0.00  0.00    +0.000 A 
ATOM     12  C   UNL     1      -2.757  12.229  23.385  0.00  0.00    +0.000 A 
ATOM     13  C   UNL     1      -3.081  13.478  22.873  0.00  0.00    +0.000 A 
ATOM     14  F   UNL     1      -4.192  14.096  23.295  0.00  0.00    +0.000 F 
ATOM     15  C   UNL     1      -2.263  14.098  21.943  0.00  0.00    +0.000 A 
ATOM     16  C   UNL     1      -1.115  13.443  21.485  0.00  0.00    +0.000 A 
ENDBRANCH   9  10
ENDBRANCH   1   3
BRANCH   1  17
ATOM     17  C   UNL     1       1.930   6.814  20.734  0.00  0.00    +0.000 C 
BRANCH  17  18
ATOM     18  C   UNL     1       2.586   6.963  19.412  0.00  0.00    +0.000 A 
ATOM     19  N   UNL     1       2.245   7.728  18.398  0.00  0.00    +0.000 NA
ATOM     20  N   UNL     1       3.158   7.478  17.397  0.00  0.00    +0.000 NA
ATOM     21  C   UNL     1       3.996   6.579  17.869  0.00  0.00    +0.000 A 
ATOM     22  O   UNL     1       3.697   6.201  19.155  0.00  0.00    +0.000 OA
BRANCH  21  23
ATOM     23  C   UNL     1       5.152   5.938  17.201  0.00  0.00    +0.000 C 
BRANCH  23  24
ATOM     24  C   UNL     1       5.108   4.407  17.249  0.00  0.00    +0.000 C 
BRANCH  24  25
ATOM     25  C   UNL     1       3.729   3.838  16.895  0.00  0.00    +0.000 C 
BRANCH  25  26
ATOM     26  C   UNL     1       3.454   2.526  17.635  0.00  0.00    +0.000 C 
BRANCH  26  27
ATOM     27  C   UNL     1       2.747   2.759  18.948  0.00  0.00    +0.000 A 
ATOM     28  C   UNL     1       1.428   3.230  18.967  0.00  0.00    +0.000 A 
ATOM     29  C   UNL     1       0.772   3.456  20.179  0.00  0.00    +0.000 A 
ATOM     30  C   UNL     1       1.429   3.217  21.383  0.00  0.00    +0.000 A 
ATOM     31  C   UNL     1       2.744   2.754  21.377  0.00  0.00    +0.000 A 
ATOM     32  C   UNL     1       3.403   2.530  20.166  0.00  0.00    +0.000 A 
ENDBRANCH  26  27
ENDBRANCH  25  26
ENDBRANCH  24  25
ENDBRANCH  23  24
ENDBRANCH  21  23
ENDBRANCH  17  18
ENDBRANCH   1  17
TORSDOF 9
ENDMDL
MODEL 9
REMARK VINA RESULT:      -7.4      2.265      3.805
REMARK  Name = 
REMARK  9 active torsions:
REMARK  status: ('A' for Active; 'I' for Inactive)
REMARK    1  A    between atoms: C_2  and  C_3
REMARK    2  A    between atoms: C_3  and  C_4
REMARK    3  A    between atoms: C_4  and  C_5
REMARK    4  A    between atoms: C_8  and  C_9
REMARK    5  A    between atoms: C_9  and  C_10
REMARK    6  A    between atoms: C_10  and  C_11
REMARK    7  A    between atoms: C_11  and  C_12
REMARK    8  A    between atoms: C_12  and  C_13
REMARK    9  A    between atoms: C_25  and  C_26
REMARK                            x       y       z     vdW  Elec       q    Type
REMARK                         _______ _______ _______ _____ _____    ______ ____
ROOT
ATOM      1  C   UNL     1       1.886   7.277  20.606  0.00  0.00    +0.000 C 
ENDROOT
BRANCH   1   3
ATOM      2  O   UNL     1       0.565   8.805  21.892  0.00  0.00    +0.000 OA
ATOM      3  C   UNL     1       1.044   8.531  20.789  0.00  0.00    +0.000 C 
ATOM      4  N   UNL     1       0.855   9.333  19.670  0.00  0.00    +0.000 N 
ATOM      5  C   UNL     1       1.385   9.054  18.330  0.00  0.00    +0.000 C 
ATOM      6  C   UNL     1       2.414  10.093  17.896  0.00  0.00    +0.000 C 
ATOM      7  C   UNL     1       2.000  11.535  18.190  0.00  0.00    +0.000 C 
ATOM      8  C   UNL     1       1.366  11.701  19.575  0.00  0.00    +0.000 C 
ATOM      9  C   UNL     1       0.244  10.671  19.843  0.00  0.00    +0.000 C 
BRANCH   9  10
ATOM     10  C   UNL     1      -1.037  10.861  19.019  0.00  0.00    +0.000 A 
ATOM     11  C   UNL     1      -1.280  10.067  17.879  0.00  0.00    +0.000 A 
ATOM     12  C   UNL     1      -2.423  10.254  17.094  0.00  0.00    +0.000 A 
ATOM     13  C   UNL     1      -3.359  11.209  17.467  0.00  0.00    +0.000 A 
ATOM     14  F   UNL     1      -4.447  11.398  16.709  0.00  0.00    +0.000 F 
ATOM     15  C   UNL     1      -3.186  11.959  18.619  0.00  0.00    +0.000 A 
ATOM     16  C   UNL     1      -2.038  11.779  19.397  0.00  0.00    +0.000 A 
ENDBRANCH   9  10
ENDBRANCH   1   3
BRANCH   1  17
ATOM     17  C   UNL     1       1.091   5.995  20.853  0.00  0.00    +0.000 C 
BRANCH  17  18
ATOM     18  C   UNL     1       1.942   4.801  20.632  0.00  0.00    +0.000 A 
ATOM     19  N   UNL     1       2.256   3.839  21.473  0.00  0.00    +0.000 NA
ATOM     20  N   UNL     1       3.096   2.985  20.792  0.00  0.00    +0.000 NA
ATOM     21  C   UNL     1       3.236   3.482  19.581  0.00  0.00    +0.000 A 
ATOM     22  O   UNL     1       2.525   4.643  19.400  0.00  0.00    +0.000 OA
BRANCH  21  23
ATOM     23  C   UNL     1       4.050   2.977  18.452  0.00  0.00    +0.000 C 
BRANCH  23  24
ATOM     24  C   UNL     1       3.668   3.594  17.103  0.00  0.00    +0.000 C 
BRANCH  24  25
ATOM     25  C   UNL     1       4.873   4.162  16.344  0.00  0.00    +0.000 C 
BRANCH  25  26
ATOM     26  C   UNL     1       4.918   5.690  16.421  0.00  0.00    +0.000 C 
BRANCH  26  27
ATOM     27  C   UNL     1       6.091   6.178  17.236  0.00  0.00    +0.000 A 
ATOM     28  C   UNL     1       6.644   7.442  16.993  0.00  0.00    +0.000 A 
ATOM     29  C   UNL     1       7.736   7.894  17.739  0.00  0.00    +0.000 A 
ATOM     30  C   UNL     1       8.286   7.086  18.731  0.00  0.00    +0.000 A 
ATOM     31  C   UNL     1       7.749   5.823  18.976  0.00  0.00    +0.000 A 
ATOM     32  C   UNL     1       6.659   5.368  18.230  0.00  0.00    +0.000 A 
ENDBRANCH  26  27
ENDBRANCH  25  26
ENDBRANCH  24  25
ENDBRANCH  23  24
ENDBRANCH  21  23
ENDBRANCH  17  18
ENDBRANCH   1  17
TORSDOF 9
ENDMDL
