MODEL 1
REMARK VINA RESULT:      -7.0      0.000      0.000
REMARK  Name = 
REMARK  10 active torsions:
REMARK  status: ('A' for Active; 'I' for Inactive)
REMARK    1  A    between atoms: C_1  and  C_2
REMARK    2  A    between atoms: C_2  and  C_3
REMARK    3  A    between atoms: C_3  and  C_4
REMARK    4  A    between atoms: C_3  and  C_11
REMARK    5  A    between atoms: C_4  and  C_5
REMARK    6  A    between atoms: C_5  and  C_6
REMARK    7  A    between atoms: C_8  and  C_9
REMARK    8  A    between atoms: C_8  and  C_10
REMARK    9  A    between atoms: C_13  and  O_14
REMARK   10  A    between atoms: C_17  and  O_18
REMARK                            x       y       z     vdW  Elec       q    Type
REMARK                         _______ _______ _______ _____ _____    ______ ____
ROOT
ATOM      1  C   UNL     1       5.156   4.374  16.447  0.00  0.00    +0.000 C 
ENDROOT
BRANCH   1   2
ATOM      2  C   UNL     1       6.134   5.301  17.174  0.00  0.00    +0.000 A 
ATOM      3  C   UNL     1       6.866   4.852  18.292  0.00  0.00    +0.000 A 
ATOM      4  C   UNL     1       7.761   5.698  18.943  0.00  0.00    +0.000 A 
ATOM      5  C   UNL     1       7.943   7.002  18.514  0.00  0.00    +0.000 A 
ATOM      6  C   UNL     1       7.216   7.477  17.426  0.00  0.00    +0.000 A 
ATOM      7  C   UNL     1       6.318   6.631  16.766  0.00  0.00    +0.000 A 
BRANCH   4   8
ATOM      8  O   UNL     1       8.481   5.264  20.017  0.00  0.00    +0.000 OA
ATOM      9  H   UNL     1       9.160   5.928  20.229  0.00  0.00    +0.000 HD
ENDBRANCH   4   8
BRANCH   7  10
ATOM     10  O   UNL     1       5.602   7.106  15.702  0.00  0.00    +0.000 OA
ATOM     11  H   UNL     1       5.081   7.872  15.992  0.00  0.00    +0.000 HD
ENDBRANCH   7  10
ENDBRANCH   1   2
BRANCH   1  13
ATOM     12  C   UNL     1       6.014   4.060  14.022  0.00  0.00    +0.000 C 
ATOM     13  C   UNL     1       5.869   3.465  15.414  0.00  0.00    +0.000 C 
ENDBRANCH   1  13
BRANCH   1  14
ATOM     14  C   UNL     1       4.239   3.624  17.442  0.00  0.00    +0.000 C 
BRANCH  14  15
ATOM     15  C   UNL     1       3.027   4.419  17.941  0.00  0.00    +0.000 C 
BRANCH  15  16
ATOM     16  C   UNL     1       2.937   4.376  19.438  0.00  0.00    +0.000 C 
ATOM     17  O   UNL     1       1.785   5.044  19.978  0.00  0.00    +0.000 OA
ATOM     18  C   UNL     1       1.856   3.631  20.215  0.00  0.00    +0.000 C 
ATOM     19  C   UNL     1       0.751   2.868  19.549  0.00  0.00    +0.000 C 
ATOM     20  C   UNL     1       2.139   3.262  21.639  0.00  0.00    +0.000 C 
ENDBRANCH  15  16
ENDBRANCH  14  15
ENDBRANCH   1  14
TORSDOF 7
ENDMDL
MODEL 2
REMARK VINA RESULT:      -6.9      2.313      6.081
REMARK  Name = 
REMARK  10 active torsions:
REMARK  status: ('A' for Active; 'I' for Inactive)
REMARK    1  A    between atoms: C_1  and  C_2
REMARK    2  A    between atoms: C_2  and  C_3
REMARK    3  A    between atoms: C_3  and  C_4
REMARK    4  A    between atoms: C_3  and  C_11
REMARK    5  A    between atoms: C_4  and  C_5
REMARK    6  A    between atoms: C_5  and  C_6
REMARK    7  A    between atoms: C_8  and  C_9
REMARK    8  A    between atoms: C_8  and  C_10
REMARK    9  A    between atoms: C_13  and  O_14
REMARK   10  A    between atoms: C_17  and  O_18
REMARK                            x       y       z     vdW  Elec       q    Type
REMARK                         _______ _______ _______ _____ _____    ______ ____
ROOT
ATOM      1  C   UNL     1       2.884   5.980  18.329  0.00  0.00    +0.000 C 
ENDROOT
BRANCH   1   2
ATOM      2  C   UNL     1       2.280   4.798  19.091  0.00  0.00    +0.000 A 
ATOM      3  C   UNL     1       2.594   4.570  20.446  0.00  0.00    +0.000 A 
ATOM      4  C   UNL     1       2.035   3.498  21.136  0.00  0.00    +0.000 A 
ATOM      5  C   UNL     1       1.167   2.624  20.504  0.00  0.00    +0.000 A 
ATOM      6  C   UNL     1       0.857   2.813  19.159  0.00  0.00    +0.000 A 
ATOM      7  C   UNL     1       1.414   3.891  18.462  0.00  0.00    +0.000 A 
BRANCH   4   8
ATOM      8  O   UNL     1       2.325   3.282  22.451  0.00  0.00    +0.000 OA
ATOM      9  H   UNL     1       2.151   4.099  22.950  0.00  0.00    +0.000 HD
ENDBRANCH   4   8
BRANCH   7  10
ATOM     10  O   UNL     1       1.111   4.067  17.140  0.00  0.00    +0.000 OA
ATOM     11  H   UNL     1       1.922   3.965  16.617  0.00  0.00    +0.000 HD
ENDBRANCH   7  10
ENDBRANCH   1   2
BRANCH   1  13
ATOM     12  C   UNL     1       2.227   8.439  17.844  0.00  0.00    +0.000 C 
ATOM     13  C   UNL     1       2.400   7.344  18.884  0.00  0.00    +0.000 C 
ENDBRANCH   1  13
BRANCH   1  14
ATOM     14  C   UNL     1       4.419   5.846  18.196  0.00  0.00    +0.000 C 
BRANCH  14  15
ATOM     15  C   UNL     1       4.917   4.485  17.697  0.00  0.00    +0.000 C 
BRANCH  15  16
ATOM     16  C   UNL     1       4.837   4.400  16.201  0.00  0.00    +0.000 C 
ATOM     17  O   UNL     1       5.136   5.633  15.524  0.00  0.00    +0.000 OA
ATOM     18  C   UNL     1       6.034   4.544  15.266  0.00  0.00    +0.000 C 
ATOM     19  C   UNL     1       7.426   4.802  15.755  0.00  0.00    +0.000 C 
ATOM     20  C   UNL     1       5.922   3.973  13.886  0.00  0.00    +0.000 C 
ENDBRANCH  15  16
ENDBRANCH  14  15
ENDBRANCH   1  14
TORSDOF 7
ENDMDL
MODEL 3
REMARK VINA RESULT:      -6.8      0.887      1.102
REMARK  Name = 
REMARK  10 active torsions:
REMARK  status: ('A' for Active; 'I' for Inactive)
REMARK    1  A    between atoms: C_1  and  C_2
REMARK    2  A    between atoms: C_2  and  C_3
REMARK    3  A    between atoms: C_3  and  C_4
REMARK    4  A    between atoms: C_3  and  C_11
REMARK    5  A    between atoms: C_4  and  C_5
REMARK    6  A    between atoms: C_5  and  C_6
REMARK    7  A    between atoms: C_8  and  C_9
REMARK    8  A    between atoms: C_8  and  C_10
REMARK    9  A    between atoms: C_13  and  O_14
REMARK   10  A    between atoms: C_17  and  O_18
REMARK                            x       y       z     vdW  Elec       q    Type
REMARK                         _______ _______ _______ _____ _____    ______ ____
ROOT
ATOM      1  C   UNL     1       5.216   4.292  16.395  0.00  0.00    +0.000 C 
ENDROOT
BRANCH   1   2
ATOM      2  C   UNL     1       6.160   5.243  17.136  0.00  0.00    +0.000 A 
ATOM      3  C   UNL     1       6.891   4.812  18.261  0.00  0.00    +0.000 A 
ATOM      4  C   UNL     1       7.755   5.679  18.924  0.00  0.00    +0.000 A 
ATOM      5  C   UNL     1       7.908   6.988  18.500  0.00  0.00    +0.000 A 
ATOM      6  C   UNL     1       7.181   7.447  17.404  0.00  0.00    +0.000 A 
ATOM      7  C   UNL     1       6.313   6.578  16.732  0.00  0.00    +0.000 A 
BRANCH   4   8
ATOM      8  O   UNL     1       8.474   5.262  20.005  0.00  0.00    +0.000 OA
ATOM      9  H   UNL     1       8.161   4.380  20.271  0.00  0.00    +0.000 HD
ENDBRANCH   4   8
BRANCH   7  10
ATOM     10  O   UNL     1       5.597   7.036  15.661  0.00  0.00    +0.000 OA
ATOM     11  H   UNL     1       4.853   6.433  15.500  0.00  0.00    +0.000 HD
ENDBRANCH   7  10
ENDBRANCH   1   2
BRANCH   1  13
ATOM     12  C   UNL     1       5.889   4.102  13.900  0.00  0.00    +0.000 C 
ATOM     13  C   UNL     1       5.944   3.486  15.290  0.00  0.00    +0.000 C 
ENDBRANCH   1  13
BRANCH   1  14
ATOM     14  C   UNL     1       4.389   3.433  17.380  0.00  0.00    +0.000 C 
BRANCH  14  15
ATOM     15  C   UNL     1       2.896   3.773  17.451  0.00  0.00    +0.000 C 
BRANCH  15  16
ATOM     16  C   UNL     1       2.235   3.051  18.589  0.00  0.00    +0.000 C 
ATOM     17  O   UNL     1       3.130   2.683  19.652  0.00  0.00    +0.000 OA
ATOM     18  C   UNL     1       2.096   3.615  20.000  0.00  0.00    +0.000 C 
ATOM     19  C   UNL     1       2.627   4.958  20.399  0.00  0.00    +0.000 C 
ATOM     20  C   UNL     1       1.030   3.043  20.884  0.00  0.00    +0.000 C 
ENDBRANCH  15  16
ENDBRANCH  14  15
ENDBRANCH   1  14
TORSDOF 7
ENDMDL
MODEL 4
REMARK VINA RESULT:      -6.7      1.755      2.625
REMARK  Name = 
REMARK  10 active torsions:
REMARK  status: ('A' for Active; 'I' for Inactive)
REMARK    1  A    between atoms: C_1  and  C_2
REMARK    2  A    between atoms: C_2  and  C_3
REMARK    3  A    between atoms: C_3  and  C_4
REMARK    4  A    between atoms: C_3  and  C_11
REMARK    5  A    between atoms: C_4  and  C_5
REMARK    6  A    between atoms: C_5  and  C_6
REMARK    7  A    between atoms: C_8  and  C_9
REMARK    8  A    between atoms: C_8  and  C_10
REMARK    9  A    between atoms: C_13  and  O_14
REMARK   10  A    between atoms: C_17  and  O_18
REMARK                            x       y       z     vdW  Elec       q    Type
REMARK                         _______ _______ _______ _____ _____    ______ ____
ROOT
ATOM      1  C   UNL     1       3.685   5.262  18.196  0.00  0.00    +0.000 C 
ENDROOT
BRANCH   1   2
ATOM      2  C   UNL     1       5.154   5.686  18.279  0.00  0.00    +0.000 A 
ATOM      3  C   UNL     1       5.952   5.330  19.385  0.00  0.00    +0.000 A 
ATOM      4  C   UNL     1       7.290   5.711  19.449  0.00  0.00    +0.000 A 
ATOM      5  C   UNL     1       7.864   6.457  18.434  0.00  0.00    +0.000 A 
ATOM      6  C   UNL     1       7.092   6.840  17.340  0.00  0.00    +0.000 A 
ATOM      7  C   UNL     1       5.748   6.458  17.269  0.00  0.00    +0.000 A 
BRANCH   4   8
ATOM      8  O   UNL     1       8.069   5.357  20.511  0.00  0.00    +0.000 OA
ATOM      9  H   UNL     1       8.976   5.673  20.355  0.00  0.00    +0.000 HD
ENDBRANCH   4   8
BRANCH   7  10
ATOM     10  O   UNL     1       4.994   6.844  16.195  0.00  0.00    +0.000 OA
ATOM     11  H   UNL     1       4.341   6.150  16.006  0.00  0.00    +0.000 HD
ENDBRANCH   7  10
ENDBRANCH   1   2
BRANCH   1  13
ATOM     12  C   UNL     1       2.364   7.002  19.590  0.00  0.00    +0.000 C 
ATOM     13  C   UNL     1       2.724   6.477  18.209  0.00  0.00    +0.000 C 
ENDBRANCH   1  13
BRANCH   1  14
ATOM     14  C   UNL     1       3.447   4.263  17.040  0.00  0.00    +0.000 C 
BRANCH  14  15
ATOM     15  C   UNL     1       2.938   2.880  17.463  0.00  0.00    +0.000 C 
BRANCH  15  16
ATOM     16  C   UNL     1       2.004   2.987  18.633  0.00  0.00    +0.000 C 
ATOM     17  O   UNL     1       1.743   1.737  19.293  0.00  0.00    +0.000 OA
ATOM     18  C   UNL     1       2.408   2.733  20.082  0.00  0.00    +0.000 C 
ATOM     19  C   UNL     1       3.794   2.333  20.486  0.00  0.00    +0.000 C 
ATOM     20  C   UNL     1       1.557   3.326  21.163  0.00  0.00    +0.000 C 
ENDBRANCH  15  16
ENDBRANCH  14  15
ENDBRANCH   1  14
TORSDOF 7
ENDMDL
MODEL 5
REMARK VINA RESULT:      -6.7      2.235      5.792
REMARK  Name = 
REMARK  10 active torsions:
REMARK  status: ('A' for Active; 'I' for Inactive)
REMARK    1  A    between atoms: C_1  and  C_2
REMARK    2  A    between atoms: C_2  and  C_3
REMARK    3  A    between atoms: C_3  and  C_4
REMARK    4  A    between atoms: C_3  and  C_11
REMARK    5  A    between atoms: C_4  and  C_5
REMARK    6  A    between atoms: C_5  and  C_6
REMARK    7  A    between atoms: C_8  and  C_9
REMARK    8  A    between atoms: C_8  and  C_10
REMARK    9  A    between atoms: C_13  and  O_14
REMARK   10  A    between atoms: C_17  and  O_18
REMARK                            x       y       z     vdW  Elec       q    Type
REMARK                         _______ _______ _______ _____ _____    ______ ____
ROOT
ATOM      1  C   UNL     1       2.509   5.757  19.093  0.00  0.00    +0.000 C 
ENDROOT
BRANCH   1   2
ATOM      2  C   UNL     1       2.828   4.275  18.880  0.00  0.00    +0.000 A 
ATOM      3  C   UNL     1       3.873   3.647  19.587  0.00  0.00    +0.000 A 
ATOM      4  C   UNL     1       4.152   2.296  19.395  0.00  0.00    +0.000 A 
ATOM      5  C   UNL     1       3.416   1.542  18.498  0.00  0.00    +0.000 A 
ATOM      6  C   UNL     1       2.391   2.143  17.770  0.00  0.00    +0.000 A 
ATOM      7  C   UNL     1       2.105   3.499  17.961  0.00  0.00    +0.000 A 
BRANCH   4   8
ATOM      8  O   UNL     1       5.153   1.682  20.087  0.00  0.00    +0.000 OA
ATOM      9  H   UNL     1       5.273   2.136  20.939  0.00  0.00    +0.000 HD
ENDBRANCH   4   8
BRANCH   7  10
ATOM     10  O   UNL     1       1.103   4.085  17.238  0.00  0.00    +0.000 OA
ATOM     11  H   UNL     1       1.496   4.701  16.600  0.00  0.00    +0.000 HD
ENDBRANCH   7  10
ENDBRANCH   1   2
BRANCH   1  13
ATOM     12  C   UNL     1       1.554   7.477  20.780  0.00  0.00    +0.000 C 
ATOM     13  C   UNL     1       1.785   6.013  20.439  0.00  0.00    +0.000 C 
ENDBRANCH   1  13
BRANCH   1  14
ATOM     14  C   UNL     1       3.752   6.645  18.850  0.00  0.00    +0.000 C 
BRANCH  14  15
ATOM     15  C   UNL     1       4.023   7.005  17.385  0.00  0.00    +0.000 C 
BRANCH  15  16
ATOM     16  C   UNL     1       4.881   5.965  16.727  0.00  0.00    +0.000 C 
ATOM     17  O   UNL     1       5.669   6.459  15.631  0.00  0.00    +0.000 OA
ATOM     18  C   UNL     1       6.407   5.963  16.756  0.00  0.00    +0.000 C 
ATOM     19  C   UNL     1       7.211   7.024  17.444  0.00  0.00    +0.000 C 
ATOM     20  C   UNL     1       7.114   4.668  16.502  0.00  0.00    +0.000 C 
ENDBRANCH  15  16
ENDBRANCH  14  15
ENDBRANCH   1  14
TORSDOF 7
ENDMDL
MODEL 6
REMARK VINA RESULT:      -6.6      1.558      2.089
REMARK  Name = 
REMARK  10 active torsions:
REMARK  status: ('A' for Active; 'I' for Inactive)
REMARK    1  A    between atoms: C_1  and  C_2
REMARK    2  A    between atoms: C_2  and  C_3
REMARK    3  A    between atoms: C_3  and  C_4
REMARK    4  A    between atoms: C_3  and  C_11
REMARK    5  A    between atoms: C_4  and  C_5
REMARK    6  A    between atoms: C_5  and  C_6
REMARK    7  A    between atoms: C_8  and  C_9
REMARK    8  A    between atoms: C_8  and  C_10
REMARK    9  A    between atoms: C_13  and  O_14
REMARK   10  A    between atoms: C_17  and  O_18
REMARK                            x       y       z     vdW  Elec       q    Type
REMARK                         _______ _______ _______ _____ _____    ______ ____
ROOT
ATOM      1  C   UNL     1       4.702   4.582  16.813  0.00  0.00    +0.000 C 
ENDROOT
BRANCH   1   2
ATOM      2  C   UNL     1       5.829   5.412  17.433  0.00  0.00    +0.000 A 
ATOM      3  C   UNL     1       6.481   4.989  18.609  0.00  0.00    +0.000 A 
ATOM      4  C   UNL     1       7.512   5.744  19.162  0.00  0.00    +0.000 A 
ATOM      5  C   UNL     1       7.912   6.933  18.577  0.00  0.00    +0.000 A 
ATOM      6  C   UNL     1       7.270   7.385  17.427  0.00  0.00    +0.000 A 
ATOM      7  C   UNL     1       6.235   6.629  16.865  0.00  0.00    +0.000 A 
BRANCH   4   8
ATOM      8  O   UNL     1       8.154   5.331  20.292  0.00  0.00    +0.000 OA
ATOM      9  H   UNL     1       7.978   5.969  21.006  0.00  0.00    +0.000 HD
ENDBRANCH   4   8
BRANCH   7  10
ATOM     10  O   UNL     1       5.604   7.082  15.740  0.00  0.00    +0.000 OA
ATOM     11  H   UNL     1       6.164   6.894  14.969  0.00  0.00    +0.000 HD
ENDBRANCH   7  10
ENDBRANCH   1   2
BRANCH   1  13
ATOM     12  C   UNL     1       6.270   3.958  14.847  0.00  0.00    +0.000 C 
ATOM     13  C   UNL     1       5.238   3.485  15.859  0.00  0.00    +0.000 C 
ENDBRANCH   1  13
BRANCH   1  14
ATOM     14  C   UNL     1       3.713   4.074  17.889  0.00  0.00    +0.000 C 
BRANCH  14  15
ATOM     15  C   UNL     1       2.336   4.748  17.883  0.00  0.00    +0.000 C 
BRANCH  15  16
ATOM     16  C   UNL     1       2.144   5.587  19.113  0.00  0.00    +0.000 C 
ATOM     17  O   UNL     1       3.362   6.127  19.652  0.00  0.00    +0.000 OA
ATOM     18  C   UNL     1       2.408   7.088  19.179  0.00  0.00    +0.000 C 
ATOM     19  C   UNL     1       2.905   7.882  18.010  0.00  0.00    +0.000 C 
ATOM     20  C   UNL     1       1.739   7.873  20.266  0.00  0.00    +0.000 C 
ENDBRANCH  15  16
ENDBRANCH  14  15
ENDBRANCH   1  14
TORSDOF 7
ENDMDL
MODEL 7
REMARK VINA RESULT:      -6.6      2.077      3.534
REMARK  Name = 
REMARK  10 active torsions:
REMARK  status: ('A' for Active; 'I' for Inactive)
REMARK    1  A    between atoms: C_1  and  C_2
REMARK    2  A    between atoms: C_2  and  C_3
REMARK    3  A    between atoms: C_3  and  C_4
REMARK    4  A    between atoms: C_3  and  C_11
REMARK    5  A    between atoms: C_4  and  C_5
REMARK    6  A    between atoms: C_5  and  C_6
REMARK    7  A    between atoms: C_8  and  C_9
REMARK    8  A    between atoms: C_8  and  C_10
REMARK    9  A    between atoms: C_13  and  O_14
REMARK   10  A    between atoms: C_17  and  O_18
REMARK                            x       y       z     vdW  Elec       q    Type
REMARK                         _______ _______ _______ _____ _____    ______ ____
ROOT
ATOM      1  C   UNL     1       3.491   6.368  18.090  0.00  0.00    +0.000 C 
ENDROOT
BRANCH   1   2
ATOM      2  C   UNL     1       4.809   5.807  17.549  0.00  0.00    +0.000 A 
ATOM      3  C   UNL     1       5.075   5.782  16.166  0.00  0.00    +0.000 A 
ATOM      4  C   UNL     1       6.280   5.279  15.681  0.00  0.00    +0.000 A 
ATOM      5  C   UNL     1       7.240   4.782  16.547  0.00  0.00    +0.000 A 
ATOM      6  C   UNL     1       6.993   4.775  17.918  0.00  0.00    +0.000 A 
ATOM      7  C   UNL     1       5.785   5.282  18.410  0.00  0.00    +0.000 A 
BRANCH   4   8
ATOM      8  O   UNL     1       6.548   5.265  14.345  0.00  0.00    +0.000 OA
ATOM      9  H   UNL     1       6.319   4.390  13.986  0.00  0.00    +0.000 HD
ENDBRANCH   4   8
BRANCH   7  10
ATOM     10  O   UNL     1       5.546   5.265  19.756  0.00  0.00    +0.000 OA
ATOM     11  H   UNL     1       6.039   5.992  20.171  0.00  0.00    +0.000 HD
ENDBRANCH   7  10
ENDBRANCH   1   2
BRANCH   1  13
ATOM     12  C   UNL     1       1.887   8.395  17.912  0.00  0.00    +0.000 C 
ATOM     13  C   UNL     1       3.300   7.863  17.733  0.00  0.00    +0.000 C 
ENDBRANCH   1  13
BRANCH   1  14
ATOM     14  C   UNL     1       2.295   5.458  17.722  0.00  0.00    +0.000 C 
BRANCH  14  15
ATOM     15  C   UNL     1       2.523   3.958  17.934  0.00  0.00    +0.000 C 
BRANCH  15  16
ATOM     16  C   UNL     1       1.807   3.474  19.161  0.00  0.00    +0.000 C 
ATOM     17  O   UNL     1       1.730   2.043  19.272  0.00  0.00    +0.000 OA
ATOM     18  C   UNL     1       2.474   2.710  20.301  0.00  0.00    +0.000 C 
ATOM     19  C   UNL     1       3.928   2.349  20.301  0.00  0.00    +0.000 C 
ATOM     20  C   UNL     1       1.801   2.713  21.639  0.00  0.00    +0.000 C 
ENDBRANCH  15  16
ENDBRANCH  14  15
ENDBRANCH   1  14
TORSDOF 7
ENDMDL
MODEL 8
REMARK VINA RESULT:      -6.5      1.424      1.591
REMARK  Name = 
REMARK  10 active torsions:
REMARK  status: ('A' for Active; 'I' for Inactive)
REMARK    1  A    between atoms: C_1  and  C_2
REMARK    2  A    between atoms: C_2  and  C_3
REMARK    3  A    between atoms: C_3  and  C_4
REMARK    4  A    between atoms: C_3  and  C_11
REMARK    5  A    between atoms: C_4  and  C_5
REMARK    6  A    between atoms: C_5  and  C_6
REMARK    7  A    between atoms: C_8  and  C_9
REMARK    8  A    between atoms: C_8  and  C_10
REMARK    9  A    between atoms: C_13  and  O_14
REMARK   10  A    between atoms: C_17  and  O_18
REMARK                            x       y       z     vdW  Elec       q    Type
REMARK                         _______ _______ _______ _____ _____    ______ ____
ROOT
ATOM      1  C   UNL     1       4.236   5.074  17.488  0.00  0.00    +0.000 C 
ENDROOT
BRANCH   1   2
ATOM      2  C   UNL     1       5.599   5.646  17.889  0.00  0.00    +0.000 A 
ATOM      3  C   UNL     1       6.216   5.273  19.100  0.00  0.00    +0.000 A 
ATOM      4  C   UNL     1       7.459   5.790  19.455  0.00  0.00    +0.000 A 
ATOM      5  C   UNL     1       8.113   6.690  18.631  0.00  0.00    +0.000 A 
ATOM      6  C   UNL     1       7.515   7.093  17.439  0.00  0.00    +0.000 A 
ATOM      7  C   UNL     1       6.267   6.574  17.077  0.00  0.00    +0.000 A 
BRANCH   4   8
ATOM      8  O   UNL     1       8.066   5.421  20.619  0.00  0.00    +0.000 OA
ATOM      9  H   UNL     1       8.975   5.135  20.423  0.00  0.00    +0.000 HD
ENDBRANCH   4   8
BRANCH   7  10
ATOM     10  O   UNL     1       5.683   6.979  15.908  0.00  0.00    +0.000 OA
ATOM     11  H   UNL     1       5.256   6.213  15.491  0.00  0.00    +0.000 HD
ENDBRANCH   7  10
ENDBRANCH   1   2
BRANCH   1  13
ATOM     12  C   UNL     1       3.285   2.743  16.877  0.00  0.00    +0.000 C 
ATOM     13  C   UNL     1       4.099   3.575  17.855  0.00  0.00    +0.000 C 
ENDBRANCH   1  13
BRANCH   1  14
ATOM     14  C   UNL     1       3.077   5.969  17.986  0.00  0.00    +0.000 C 
BRANCH  14  15
ATOM     15  C   UNL     1       1.820   5.220  18.442  0.00  0.00    +0.000 C 
BRANCH  15  16
ATOM     16  C   UNL     1       1.956   4.758  19.863  0.00  0.00    +0.000 C 
ATOM     17  O   UNL     1       0.706   4.617  20.559  0.00  0.00    +0.000 OA
ATOM     18  C   UNL     1       1.462   3.410  20.381  0.00  0.00    +0.000 C 
ATOM     19  C   UNL     1       0.770   2.406  19.512  0.00  0.00    +0.000 C 
ATOM     20  C   UNL     1       2.068   2.877  21.643  0.00  0.00    +0.000 C 
ENDBRANCH  15  16
ENDBRANCH  14  15
ENDBRANCH   1  14
TORSDOF 7
ENDMDL
MODEL 9
REMARK VINA RESULT:      -6.5      2.009      6.037
REMARK  Name = 
REMARK  10 active torsions:
REMARK  status: ('A' for Active; 'I' for Inactive)
REMARK    1  A    between atoms: C_1  and  C_2
REMARK    2  A    between atoms: C_2  and  C_3
REMARK    3  A    between atoms: C_3  and  C_4
REMARK    4  A    between atoms: C_3  and  C_11
REMARK    5  A    between atoms: C_4  and  C_5
REMARK    6  A    between atoms: C_5  and  C_6
REMARK    7  A    between atoms: C_8  and  C_9
REMARK    8  A    between atoms: C_8  and  C_10
REMARK    9  A    between atoms: C_13  and  O_14
REMARK   10  A    between atoms: C_17  and  O_18
REMARK                            x       y       z     vdW  Elec       q    Type
REMARK                         _______ _______ _______ _____ _____    ______ ____
ROOT
ATOM      1  C   UNL     1       2.431   6.139  18.363  0.00  0.00    +0.000 C 
ENDROOT
BRANCH   1   2
ATOM      2  C   UNL     1       2.033   4.866  19.115  0.00  0.00    +0.000 A 
ATOM      3  C   UNL     1       2.381   4.681  20.468  0.00  0.00    +0.000 A 
ATOM      4  C   UNL     1       2.008   3.525  21.148  0.00  0.00    +0.000 A 
ATOM      5  C   UNL     1       1.296   2.525  20.507  0.00  0.00    +0.000 A 
ATOM      6  C   UNL     1       0.958   2.672  19.164  0.00  0.00    +0.000 A 
ATOM      7  C   UNL     1       1.328   3.833  18.477  0.00  0.00    +0.000 A 
BRANCH   4   8
ATOM      8  O   UNL     1       2.332   3.348  22.460  0.00  0.00    +0.000 OA
ATOM      9  H   UNL     1       3.250   3.638  22.601  0.00  0.00    +0.000 HD
ENDBRANCH   4   8
BRANCH   7  10
ATOM     10  O   UNL     1       0.999   3.969  17.157  0.00  0.00    +0.000 OA
ATOM     11  H   UNL     1       1.548   3.363  16.633  0.00  0.00    +0.000 HD
ENDBRANCH   7  10
ENDBRANCH   1   2
BRANCH   1  13
ATOM     12  C   UNL     1       1.897   8.665  18.579  0.00  0.00    +0.000 C 
ATOM     13  C   UNL     1       2.372   7.396  19.268  0.00  0.00    +0.000 C 
ENDBRANCH   1  13
BRANCH   1  14
ATOM     14  C   UNL     1       3.764   5.954  17.601  0.00  0.00    +0.000 C 
BRANCH  14  15
ATOM     15  C   UNL     1       4.653   4.812  18.103  0.00  0.00    +0.000 C 
BRANCH  15  16
ATOM     16  C   UNL     1       5.899   5.345  18.747  0.00  0.00    +0.000 C 
ATOM     17  O   UNL     1       7.051   4.499  18.590  0.00  0.00    +0.000 OA
ATOM     18  C   UNL     1       7.139   5.794  17.980  0.00  0.00    +0.000 C 
ATOM     19  C   UNL     1       7.242   5.734  16.487  0.00  0.00    +0.000 C 
ATOM     20  C   UNL     1       8.089   6.729  18.664  0.00  0.00    +0.000 C 
ENDBRANCH  15  16
ENDBRANCH  14  15
ENDBRANCH   1  14
TORSDOF 7
ENDMDL
