MODEL 1
REMARK VINA RESULT:      -7.7      0.000      0.000
REMARK  Name = 
REMARK  5 active torsions:
REMARK  status: ('A' for Active; 'I' for Inactive)
REMARK    1  A    between atoms: C_1  and  C_2
REMARK    2  A    between atoms: C_4  and  C_5
REMARK    3  A    between atoms: C_12  and  O_13
REMARK    4  A    between atoms: C_15  and  C_16
REMARK    5  A    between atoms: C_24  and  C_25
REMARK                            x       y       z     vdW  Elec       q    Type
REMARK                         _______ _______ _______ _____ _____    ______ ____
ROOT
ATOM      1  C   UNL     1      -0.751  13.604  23.429  0.00  0.00    +0.000 C 
ATOM      2  C   UNL     1      -0.654  12.524  22.390  0.00  0.00    +0.000 A 
ATOM      3  C   UNL     1      -0.784  11.183  22.745  0.00  0.00    +0.000 A 
ATOM      4  C   UNL     1      -0.564  10.170  21.799  0.00  0.00    +0.000 A 
ATOM      5  C   UNL     1      -0.703   8.729  22.219  0.00  0.00    +0.000 C 
ATOM      6  C   UNL     1      -0.144  10.488  20.508  0.00  0.00    +0.000 A 
ATOM      7  N   UNL     1       0.267   9.508  19.699  0.00  0.00    +0.000 NA
ATOM      8  C   UNL     1       0.791   9.805  18.507  0.00  0.00    +0.000 A 
ATOM      9  N   UNL     1       1.528   8.853  17.809  0.00  0.00    +0.000 N 
ATOM     10  C   UNL     1       2.194   7.772  18.381  0.00  0.00    +0.000 A 
ATOM     11  N   UNL     1       1.760   7.249  19.531  0.00  0.00    +0.000 NA
ATOM     12  C   UNL     1       2.488   6.284  20.077  0.00  0.00    +0.000 A 
ATOM     13  C   UNL     1       3.621   5.764  19.538  0.00  0.00    +0.000 A 
ATOM     14  C   UNL     1       4.004   6.314  18.335  0.00  0.00    +0.000 A 
ATOM     15  N   UNL     1       3.303   7.324  17.750  0.00  0.00    +0.000 NA
ATOM     16  N   UNL     1       0.721  11.032  17.976  0.00  0.00    +0.000 NA
ATOM     17  C   UNL     1       0.244  12.027  18.765  0.00  0.00    +0.000 A 
ATOM     18  C   UNL     1       0.088  13.366  18.105  0.00  0.00    +0.000 C 
ATOM     19  C   UNL     1      -0.108  11.823  20.107  0.00  0.00    +0.000 A 
ATOM     20  C   UNL     1      -0.385  12.842  21.055  0.00  0.00    +0.000 A 
ATOM     21  H   UNL     1       2.049   9.265  17.053  0.00  0.00    +0.000 HD
ENDROOT
BRANCH  14  22
ATOM     22  C   UNL     1       5.233   5.856  17.649  0.00  0.00    +0.000 A 
ATOM     23  C   UNL     1       5.333   5.867  16.242  0.00  0.00    +0.000 A 
ATOM     24  C   UNL     1       6.451   5.350  15.581  0.00  0.00    +0.000 A 
ATOM     25  C   UNL     1       7.506   4.823  16.317  0.00  0.00    +0.000 A 
ATOM     26  C   UNL     1       7.452   4.830  17.708  0.00  0.00    +0.000 A 
ATOM     27  C   UNL     1       6.326   5.345  18.367  0.00  0.00    +0.000 A 
ENDBRANCH  14  22
BRANCH  12  28
ATOM     28  O   UNL     1       2.023   5.854  21.273  0.00  0.00    +0.000 OA
ATOM     29  H   UNL     1       1.994   6.706  21.745  0.00  0.00    +0.000 HD
ENDBRANCH  12  28
TORSDOF 2
ENDMDL
MODEL 2
REMARK VINA RESULT:      -7.4      2.527      3.496
REMARK  Name = 
REMARK  5 active torsions:
REMARK  status: ('A' for Active; 'I' for Inactive)
REMARK    1  A    between atoms: C_1  and  C_2
REMARK    2  A    between atoms: C_4  and  C_5
REMARK    3  A    between atoms: C_12  and  O_13
REMARK    4  A    between atoms: C_15  and  C_16
REMARK    5  A    between atoms: C_24  and  C_25
REMARK                            x       y       z     vdW  Elec       q    Type
REMARK                         _______ _______ _______ _____ _____    ______ ____
ROOT
ATOM      1  C   UNL     1       2.824  17.064  22.713  0.00  0.00    +0.000 C 
ATOM      2  C   UNL     1       2.277  16.025  21.776  0.00  0.00    +0.000 A 
ATOM      3  C   UNL     1       1.346  15.089  22.219  0.00  0.00    +0.000 A 
ATOM      4  C   UNL     1       0.933  14.040  21.382  0.00  0.00    +0.000 A 
ATOM      5  C   UNL     1      -0.068  13.039  21.895  0.00  0.00    +0.000 C 
ATOM      6  C   UNL     1       1.502  13.880  20.119  0.00  0.00    +0.000 A 
ATOM      7  N   UNL     1       1.258  12.760  19.434  0.00  0.00    +0.000 NA
ATOM      8  C   UNL     1       1.893  12.532  18.281  0.00  0.00    +0.000 A 
ATOM      9  N   UNL     1       1.920  11.251  17.737  0.00  0.00    +0.000 N 
ATOM     10  C   UNL     1       1.771  10.068  18.456  0.00  0.00    +0.000 A 
ATOM     11  N   UNL     1       1.070  10.058  19.593  0.00  0.00    +0.000 NA
ATOM     12  C   UNL     1       1.041   8.926  20.283  0.00  0.00    +0.000 A 
ATOM     13  C   UNL     1       1.639   7.767  19.904  0.00  0.00    +0.000 A 
ATOM     14  C   UNL     1       2.318   7.823  18.706  0.00  0.00    +0.000 A 
ATOM     15  N   UNL     1       2.397   8.970  17.977  0.00  0.00    +0.000 NA
ATOM     16  N   UNL     1       2.603  13.477  17.653  0.00  0.00    +0.000 NA
ATOM     17  C   UNL     1       2.806  14.647  18.309  0.00  0.00    +0.000 A 
ATOM     18  C   UNL     1       3.520  15.716  17.535  0.00  0.00    +0.000 C 
ATOM     19  C   UNL     1       2.358  14.863  19.621  0.00  0.00    +0.000 A 
ATOM     20  C   UNL     1       2.728  15.950  20.454  0.00  0.00    +0.000 A 
ATOM     21  H   UNL     1       2.609  11.170  17.009  0.00  0.00    +0.000 HD
ENDROOT
BRANCH  14  22
ATOM     22  C   UNL     1       3.035   6.638  18.186  0.00  0.00    +0.000 A 
ATOM     23  C   UNL     1       4.237   6.770  17.461  0.00  0.00    +0.000 A 
ATOM     24  C   UNL     1       4.873   5.666  16.886  0.00  0.00    +0.000 A 
ATOM     25  C   UNL     1       4.326   4.397  17.035  0.00  0.00    +0.000 A 
ATOM     26  C   UNL     1       3.158   4.230  17.774  0.00  0.00    +0.000 A 
ATOM     27  C   UNL     1       2.520   5.340  18.346  0.00  0.00    +0.000 A 
ENDBRANCH  14  22
BRANCH  12  28
ATOM     28  O   UNL     1       0.370   9.013  21.456  0.00  0.00    +0.000 OA
ATOM     29  H   UNL     1       0.058   8.092  21.527  0.00  0.00    +0.000 HD
ENDBRANCH  12  28
TORSDOF 2
ENDMDL
MODEL 3
REMARK VINA RESULT:      -7.3      2.310      3.389
REMARK  Name = 
REMARK  5 active torsions:
REMARK  status: ('A' for Active; 'I' for Inactive)
REMARK    1  A    between atoms: C_1  and  C_2
REMARK    2  A    between atoms: C_4  and  C_5
REMARK    3  A    between atoms: C_12  and  O_13
REMARK    4  A    between atoms: C_15  and  C_16
REMARK    5  A    between atoms: C_24  and  C_25
REMARK                            x       y       z     vdW  Elec       q    Type
REMARK                         _______ _______ _______ _____ _____    ______ ____
ROOT
ATOM      1  C   UNL     1       2.379  17.028  22.579  0.00  0.00    +0.000 C 
ATOM      2  C   UNL     1       1.889  15.900  21.716  0.00  0.00    +0.000 A 
ATOM      3  C   UNL     1       0.967  14.979  22.207  0.00  0.00    +0.000 A 
ATOM      4  C   UNL     1       0.608  13.854  21.448  0.00  0.00    +0.000 A 
ATOM      5  C   UNL     1      -0.385  12.872  22.013  0.00  0.00    +0.000 C 
ATOM      6  C   UNL     1       1.222  13.605  20.221  0.00  0.00    +0.000 A 
ATOM      7  N   UNL     1       1.027  12.425  19.626  0.00  0.00    +0.000 NA
ATOM      8  C   UNL     1       1.705  12.120  18.516  0.00  0.00    +0.000 A 
ATOM      9  N   UNL     1       1.782  10.800  18.083  0.00  0.00    +0.000 N 
ATOM     10  C   UNL     1       1.638   9.677  18.893  0.00  0.00    +0.000 A 
ATOM     11  N   UNL     1       0.900   9.743  20.005  0.00  0.00    +0.000 NA
ATOM     12  C   UNL     1       0.877   8.670  20.786  0.00  0.00    +0.000 A 
ATOM     13  C   UNL     1       1.515   7.501  20.524  0.00  0.00    +0.000 A 
ATOM     14  C   UNL     1       2.231   7.476  19.347  0.00  0.00    +0.000 A 
ATOM     15  N   UNL     1       2.306   8.560  18.528  0.00  0.00    +0.000 NA
ATOM     16  N   UNL     1       2.412  13.028  17.833  0.00  0.00    +0.000 NA
ATOM     17  C   UNL     1       2.565  14.254  18.395  0.00  0.00    +0.000 A 
ATOM     18  C   UNL     1       3.278  15.274  17.556  0.00  0.00    +0.000 C 
ATOM     19  C   UNL     1       2.069  14.566  19.670  0.00  0.00    +0.000 A 
ATOM     20  C   UNL     1       2.384  15.728  20.420  0.00  0.00    +0.000 A 
ATOM     21  H   UNL     1       2.496  10.678  17.385  0.00  0.00    +0.000 HD
ENDROOT
BRANCH  14  22
ATOM     22  C   UNL     1       2.994   6.271  18.950  0.00  0.00    +0.000 A 
ATOM     23  C   UNL     1       3.030   5.124  19.770  0.00  0.00    +0.000 A 
ATOM     24  C   UNL     1       3.821   4.017  19.449  0.00  0.00    +0.000 A 
ATOM     25  C   UNL     1       4.586   4.026  18.289  0.00  0.00    +0.000 A 
ATOM     26  C   UNL     1       4.544   5.131  17.442  0.00  0.00    +0.000 A 
ATOM     27  C   UNL     1       3.753   6.241  17.769  0.00  0.00    +0.000 A 
ENDBRANCH  14  22
BRANCH  12  28
ATOM     28  O   UNL     1       0.166   8.837  21.926  0.00  0.00    +0.000 OA
ATOM     29  H   UNL     1       0.822   8.510  22.569  0.00  0.00    +0.000 HD
ENDBRANCH  12  28
TORSDOF 2
ENDMDL
MODEL 4
REMARK VINA RESULT:      -7.2      7.584     11.156
REMARK  Name = 
REMARK  5 active torsions:
REMARK  status: ('A' for Active; 'I' for Inactive)
REMARK    1  A    between atoms: C_1  and  C_2
REMARK    2  A    between atoms: C_4  and  C_5
REMARK    3  A    between atoms: C_12  and  O_13
REMARK    4  A    between atoms: C_15  and  C_16
REMARK    5  A    between atoms: C_24  and  C_25
REMARK                            x       y       z     vdW  Elec       q    Type
REMARK                         _______ _______ _______ _____ _____    ______ ____
ROOT
ATOM      1  C   UNL     1      11.461  11.414  19.133  0.00  0.00    +0.000 C 
ATOM      2  C   UNL     1      10.610  12.615  19.433  0.00  0.00    +0.000 A 
ATOM      3  C   UNL     1       9.732  12.611  20.515  0.00  0.00    +0.000 A 
ATOM      4  C   UNL     1       8.845  13.680  20.718  0.00  0.00    +0.000 A 
ATOM      5  C   UNL     1       7.903  13.640  21.893  0.00  0.00    +0.000 C 
ATOM      6  C   UNL     1       8.780  14.728  19.801  0.00  0.00    +0.000 A 
ATOM      7  N   UNL     1       7.785  15.613  19.896  0.00  0.00    +0.000 NA
ATOM      8  C   UNL     1       7.632  16.548  18.954  0.00  0.00    +0.000 A 
ATOM      9  N   UNL     1       6.432  17.244  18.846  0.00  0.00    +0.000 N 
ATOM     10  C   UNL     1       5.193  16.787  19.287  0.00  0.00    +0.000 A 
ATOM     11  N   UNL     1       5.121  15.922  20.302  0.00  0.00    +0.000 NA
ATOM     12  C   UNL     1       3.922  15.448  20.616  0.00  0.00    +0.000 A 
ATOM     13  C   UNL     1       2.761  15.803  20.008  0.00  0.00    +0.000 A 
ATOM     14  C   UNL     1       2.888  16.724  18.993  0.00  0.00    +0.000 A 
ATOM     15  N   UNL     1       4.101  17.218  18.618  0.00  0.00    +0.000 NA
ATOM     16  N   UNL     1       8.564  16.790  18.025  0.00  0.00    +0.000 NA
ATOM     17  C   UNL     1       9.616  15.936  17.957  0.00  0.00    +0.000 A 
ATOM     18  C   UNL     1      10.688  16.296  16.970  0.00  0.00    +0.000 C 
ATOM     19  C   UNL     1       9.718  14.798  18.770  0.00  0.00    +0.000 A 
ATOM     20  C   UNL     1      10.648  13.740  18.604  0.00  0.00    +0.000 A 
ATOM     21  H   UNL     1       6.367  17.741  17.974  0.00  0.00    +0.000 HD
ENDROOT
BRANCH  14  22
ATOM     22  C   UNL     1       1.705  17.181  18.230  0.00  0.00    +0.000 A 
ATOM     23  C   UNL     1       1.844  17.906  17.029  0.00  0.00    +0.000 A 
ATOM     24  C   UNL     1       0.736  18.422  16.350  0.00  0.00    +0.000 A 
ATOM     25  C   UNL     1      -0.543  18.211  16.853  0.00  0.00    +0.000 A 
ATOM     26  C   UNL     1      -0.714  17.470  18.019  0.00  0.00    +0.000 A 
ATOM     27  C   UNL     1       0.400  16.957  18.699  0.00  0.00    +0.000 A 
ENDBRANCH  14  22
BRANCH  12  28
ATOM     28  O   UNL     1       3.937  14.526  21.608  0.00  0.00    +0.000 OA
ATOM     29  H   UNL     1       4.881  14.572  21.849  0.00  0.00    +0.000 HD
ENDBRANCH  12  28
TORSDOF 2
ENDMDL
MODEL 5
REMARK VINA RESULT:      -7.2      7.560     11.190
REMARK  Name = 
REMARK  5 active torsions:
REMARK  status: ('A' for Active; 'I' for Inactive)
REMARK    1  A    between atoms: C_1  and  C_2
REMARK    2  A    between atoms: C_4  and  C_5
REMARK    3  A    between atoms: C_12  and  O_13
REMARK    4  A    between atoms: C_15  and  C_16
REMARK    5  A    between atoms: C_24  and  C_25
REMARK                            x       y       z     vdW  Elec       q    Type
REMARK                         _______ _______ _______ _____ _____    ______ ____
ROOT
ATOM      1  C   UNL     1      11.617  11.275  18.252  0.00  0.00    +0.000 C 
ATOM      2  C   UNL     1      10.784  12.436  18.715  0.00  0.00    +0.000 A 
ATOM      3  C   UNL     1       9.937  12.309  19.814  0.00  0.00    +0.000 A 
ATOM      4  C   UNL     1       9.063  13.350  20.166  0.00  0.00    +0.000 A 
ATOM      5  C   UNL     1       8.154  13.177  21.354  0.00  0.00    +0.000 C 
ATOM      6  C   UNL     1       8.981  14.499  19.380  0.00  0.00    +0.000 A 
ATOM      7  N   UNL     1       7.996  15.371  19.607  0.00  0.00    +0.000 NA
ATOM      8  C   UNL     1       7.824  16.411  18.786  0.00  0.00    +0.000 A 
ATOM      9  N   UNL     1       6.627  17.120  18.793  0.00  0.00    +0.000 N 
ATOM     10  C   UNL     1       5.397  16.620  19.212  0.00  0.00    +0.000 A 
ATOM     11  N   UNL     1       5.346  15.642  20.121  0.00  0.00    +0.000 NA
ATOM     12  C   UNL     1       4.153  15.140  20.411  0.00  0.00    +0.000 A 
ATOM     13  C   UNL     1       2.978  15.569  19.882  0.00  0.00    +0.000 A 
ATOM     14  C   UNL     1       3.085  16.602  18.978  0.00  0.00    +0.000 A 
ATOM     15  N   UNL     1       4.290  17.131  18.630  0.00  0.00    +0.000 NA
ATOM     16  N   UNL     1       8.732  16.757  17.865  0.00  0.00    +0.000 NA
ATOM     17  C   UNL     1       9.775  15.912  17.667  0.00  0.00    +0.000 A 
ATOM     18  C   UNL     1      10.823  16.381  16.700  0.00  0.00    +0.000 C 
ATOM     19  C   UNL     1       9.890  14.686  18.339  0.00  0.00    +0.000 A 
ATOM     20  C   UNL     1      10.808  13.651  18.023  0.00  0.00    +0.000 A 
ATOM     21  H   UNL     1       6.542  17.716  17.987  0.00  0.00    +0.000 HD
ENDROOT
BRANCH  14  22
ATOM     22  C   UNL     1       1.885  17.151  18.308  0.00  0.00    +0.000 A 
ATOM     23  C   UNL     1       0.597  16.979  18.857  0.00  0.00    +0.000 A 
ATOM     24  C   UNL     1      -0.551  17.411  18.187  0.00  0.00    +0.000 A 
ATOM     25  C   UNL     1      -0.436  18.041  16.953  0.00  0.00    +0.000 A 
ATOM     26  C   UNL     1       0.825  18.256  16.402  0.00  0.00    +0.000 A 
ATOM     27  C   UNL     1       1.974  17.817  17.075  0.00  0.00    +0.000 A 
ENDBRANCH  14  22
BRANCH  12  28
ATOM     28  O   UNL     1       4.189  14.108  21.287  0.00  0.00    +0.000 OA
ATOM     29  H   UNL     1       5.052  14.286  21.703  0.00  0.00    +0.000 HD
ENDBRANCH  12  28
TORSDOF 2
ENDMDL
MODEL 6
REMARK VINA RESULT:      -7.1      2.696      4.121
REMARK  Name = 
REMARK  5 active torsions:
REMARK  status: ('A' for Active; 'I' for Inactive)
REMARK    1  A    between atoms: C_1  and  C_2
REMARK    2  A    between atoms: C_4  and  C_5
REMARK    3  A    between atoms: C_12  and  O_13
REMARK    4  A    between atoms: C_15  and  C_16
REMARK    5  A    between atoms: C_24  and  C_25
REMARK                            x       y       z     vdW  Elec       q    Type
REMARK                         _______ _______ _______ _____ _____    ______ ____
ROOT
ATOM      1  C   UNL     1       3.001  17.721  22.427  0.00  0.00    +0.000 C 
ATOM      2  C   UNL     1       2.341  16.601  21.674  0.00  0.00    +0.000 A 
ATOM      3  C   UNL     1       1.363  15.817  22.280  0.00  0.00    +0.000 A 
ATOM      4  C   UNL     1       0.841  14.692  21.622  0.00  0.00    +0.000 A 
ATOM      5  C   UNL     1      -0.209  13.859  22.310  0.00  0.00    +0.000 C 
ATOM      6  C   UNL     1       1.344  14.302  20.382  0.00  0.00    +0.000 A 
ATOM      7  N   UNL     1       0.991  13.116  19.881  0.00  0.00    +0.000 NA
ATOM      8  C   UNL     1       1.559  12.671  18.757  0.00  0.00    +0.000 A 
ATOM      9  N   UNL     1       1.471  11.326  18.411  0.00  0.00    +0.000 N 
ATOM     10  C   UNL     1       1.265  10.277  19.304  0.00  0.00    +0.000 A 
ATOM     11  N   UNL     1       0.612  10.491  20.450  0.00  0.00    +0.000 NA
ATOM     12  C   UNL     1       0.529   9.478  21.303  0.00  0.00    +0.000 A 
ATOM     13  C   UNL     1       1.025   8.233  21.084  0.00  0.00    +0.000 A 
ATOM     14  C   UNL     1       1.655   8.058  19.873  0.00  0.00    +0.000 A 
ATOM     15  N   UNL     1       1.789   9.075  18.978  0.00  0.00    +0.000 NA
ATOM     16  N   UNL     1       2.311  13.454  17.973  0.00  0.00    +0.000 NA
ATOM     17  C   UNL     1       2.625  14.689  18.440  0.00  0.00    +0.000 A 
ATOM     18  C   UNL     1       3.383  15.572  17.493  0.00  0.00    +0.000 C 
ATOM     19  C   UNL     1       2.249  15.131  19.717  0.00  0.00    +0.000 A 
ATOM     20  C   UNL     1       2.731  16.296  20.366  0.00  0.00    +0.000 A 
ATOM     21  H   UNL     1       2.121  11.085  17.683  0.00  0.00    +0.000 HD
ENDROOT
BRANCH  14  22
ATOM     22  C   UNL     1       2.262   6.756  19.515  0.00  0.00    +0.000 A 
ATOM     23  C   UNL     1       3.023   6.602  18.338  0.00  0.00    +0.000 A 
ATOM     24  C   UNL     1       3.522   5.357  17.944  0.00  0.00    +0.000 A 
ATOM     25  C   UNL     1       3.282   4.236  18.729  0.00  0.00    +0.000 A 
ATOM     26  C   UNL     1       2.563   4.362  19.915  0.00  0.00    +0.000 A 
ATOM     27  C   UNL     1       2.060   5.612  20.305  0.00  0.00    +0.000 A 
ENDBRANCH  14  22
BRANCH  12  28
ATOM     28  O   UNL     1      -0.085   9.791  22.468  0.00  0.00    +0.000 OA
ATOM     29  H   UNL     1      -0.080   8.911  22.889  0.00  0.00    +0.000 HD
ENDBRANCH  12  28
TORSDOF 2
ENDMDL
MODEL 7
REMARK VINA RESULT:      -7.0      3.003      4.701
REMARK  Name = 
REMARK  5 active torsions:
REMARK  status: ('A' for Active; 'I' for Inactive)
REMARK    1  A    between atoms: C_1  and  C_2
REMARK    2  A    between atoms: C_4  and  C_5
REMARK    3  A    between atoms: C_12  and  O_13
REMARK    4  A    between atoms: C_15  and  C_16
REMARK    5  A    between atoms: C_24  and  C_25
REMARK                            x       y       z     vdW  Elec       q    Type
REMARK                         _______ _______ _______ _____ _____    ______ ____
ROOT
ATOM      1  C   UNL     1       3.720  18.089  21.867  0.00  0.00    +0.000 C 
ATOM      2  C   UNL     1       2.913  16.972  21.270  0.00  0.00    +0.000 A 
ATOM      3  C   UNL     1       1.941  16.317  22.023  0.00  0.00    +0.000 A 
ATOM      4  C   UNL     1       1.279  15.190  21.510  0.00  0.00    +0.000 A 
ATOM      5  C   UNL     1       0.240  14.500  22.355  0.00  0.00    +0.000 C 
ATOM      6  C   UNL     1       1.634  14.668  20.267  0.00  0.00    +0.000 A 
ATOM      7  N   UNL     1       1.149  13.479  19.900  0.00  0.00    +0.000 NA
ATOM      8  C   UNL     1       1.576  12.905  18.772  0.00  0.00    +0.000 A 
ATOM      9  N   UNL     1       1.357  11.549  18.549  0.00  0.00    +0.000 N 
ATOM     10  C   UNL     1       1.159  10.592  19.541  0.00  0.00    +0.000 A 
ATOM     11  N   UNL     1       0.634  10.944  20.717  0.00  0.00    +0.000 NA
ATOM     12  C   UNL     1       0.558  10.010  21.656  0.00  0.00    +0.000 A 
ATOM     13  C   UNL     1       0.939   8.716  21.500  0.00  0.00    +0.000 A 
ATOM     14  C   UNL     1       1.438   8.398  20.257  0.00  0.00    +0.000 A 
ATOM     15  N   UNL     1       1.561   9.330  19.271  0.00  0.00    +0.000 NA
ATOM     16  N   UNL     1       2.306  13.563  17.862  0.00  0.00    +0.000 NA
ATOM     17  C   UNL     1       2.752  14.800  18.195  0.00  0.00    +0.000 A 
ATOM     18  C   UNL     1       3.481  15.545  17.115  0.00  0.00    +0.000 C 
ATOM     19  C   UNL     1       2.530  15.368  19.459  0.00  0.00    +0.000 A 
ATOM     20  C   UNL     1       3.155  16.537  19.963  0.00  0.00    +0.000 A 
ATOM     21  H   UNL     1       1.917  11.201  17.790  0.00  0.00    +0.000 HD
ENDROOT
BRANCH  14  22
ATOM     22  C   UNL     1       1.912   7.028  19.958  0.00  0.00    +0.000 A 
ATOM     23  C   UNL     1       1.669   5.960  20.845  0.00  0.00    +0.000 A 
ATOM     24  C   UNL     1       2.191   4.683  20.618  0.00  0.00    +0.000 A 
ATOM     25  C   UNL     1       2.959   4.442  19.485  0.00  0.00    +0.000 A 
ATOM     26  C   UNL     1       3.187   5.468  18.572  0.00  0.00    +0.000 A 
ATOM     27  C   UNL     1       2.666   6.749  18.806  0.00  0.00    +0.000 A 
ENDBRANCH  14  22
BRANCH  12  28
ATOM     28  O   UNL     1       0.080  10.459  22.841  0.00  0.00    +0.000 OA
ATOM     29  H   UNL     1      -0.357  11.275  22.534  0.00  0.00    +0.000 HD
ENDBRANCH  12  28
TORSDOF 2
ENDMDL
MODEL 8
REMARK VINA RESULT:      -7.0      1.597      2.720
REMARK  Name = 
REMARK  5 active torsions:
REMARK  status: ('A' for Active; 'I' for Inactive)
REMARK    1  A    between atoms: C_1  and  C_2
REMARK    2  A    between atoms: C_4  and  C_5
REMARK    3  A    between atoms: C_12  and  O_13
REMARK    4  A    between atoms: C_15  and  C_16
REMARK    5  A    between atoms: C_24  and  C_25
REMARK                            x       y       z     vdW  Elec       q    Type
REMARK                         _______ _______ _______ _____ _____    ______ ____
ROOT
ATOM      1  C   UNL     1      -0.026  16.534  23.494  0.00  0.00    +0.000 C 
ATOM      2  C   UNL     1      -0.334  15.364  22.602  0.00  0.00    +0.000 A 
ATOM      3  C   UNL     1      -0.692  14.132  23.144  0.00  0.00    +0.000 A 
ATOM      4  C   UNL     1      -0.853  13.008  22.319  0.00  0.00    +0.000 A 
ATOM      5  C   UNL     1      -1.231  11.688  22.939  0.00  0.00    +0.000 C 
ATOM      6  C   UNL     1      -0.588  13.092  20.952  0.00  0.00    +0.000 A 
ATOM      7  N   UNL     1      -0.535  11.969  20.231  0.00  0.00    +0.000 NA
ATOM      8  C   UNL     1      -0.159  12.018  18.951  0.00  0.00    +0.000 A 
ATOM      9  N   UNL     1       0.233  10.857  18.291  0.00  0.00    +0.000 N 
ATOM     10  C   UNL     1       0.733   9.711  18.904  0.00  0.00    +0.000 A 
ATOM     11  N   UNL     1       0.386   9.419  20.161  0.00  0.00    +0.000 NA
ATOM     12  C   UNL     1       0.967   8.368  20.726  0.00  0.00    +0.000 A 
ATOM     13  C   UNL     1       1.858   7.548  20.112  0.00  0.00    +0.000 A 
ATOM     14  C   UNL     1       2.152   7.873  18.807  0.00  0.00    +0.000 A 
ATOM     15  N   UNL     1       1.601   8.958  18.195  0.00  0.00    +0.000 NA
ATOM     16  N   UNL     1      -0.045  13.170  18.277  0.00  0.00    +0.000 NA
ATOM     17  C   UNL     1      -0.162  14.321  18.985  0.00  0.00    +0.000 A 
ATOM     18  C   UNL     1      -0.128  15.589  18.182  0.00  0.00    +0.000 C 
ATOM     19  C   UNL     1      -0.328  14.337  20.378  0.00  0.00    +0.000 A 
ATOM     20  C   UNL     1      -0.222  15.479  21.213  0.00  0.00    +0.000 A 
ATOM     21  H   UNL     1       0.702  11.060  17.424  0.00  0.00    +0.000 HD
ENDROOT
BRANCH  14  22
ATOM     22  C   UNL     1       3.125   7.076  18.027  0.00  0.00    +0.000 A 
ATOM     23  C   UNL     1       3.188   5.673  18.152  0.00  0.00    +0.000 A 
ATOM     24  C   UNL     1       4.164   4.920  17.491  0.00  0.00    +0.000 A 
ATOM     25  C   UNL     1       5.093   5.555  16.677  0.00  0.00    +0.000 A 
ATOM     26  C   UNL     1       5.035   6.936  16.507  0.00  0.00    +0.000 A 
ATOM     27  C   UNL     1       4.058   7.688  17.174  0.00  0.00    +0.000 A 
ENDBRANCH  14  22
BRANCH  12  28
ATOM     28  O   UNL     1       0.618   8.177  22.020  0.00  0.00    +0.000 OA
ATOM     29  H   UNL     1       0.880   9.044  22.382  0.00  0.00    +0.000 HD
ENDBRANCH  12  28
TORSDOF 2
ENDMDL
MODEL 9
REMARK VINA RESULT:      -7.0      1.852      3.138
REMARK  Name = 
REMARK  5 active torsions:
REMARK  status: ('A' for Active; 'I' for Inactive)
REMARK    1  A    between atoms: C_1  and  C_2
REMARK    2  A    between atoms: C_4  and  C_5
REMARK    3  A    between atoms: C_12  and  O_13
REMARK    4  A    between atoms: C_15  and  C_16
REMARK    5  A    between atoms: C_24  and  C_25
REMARK                            x       y       z     vdW  Elec       q    Type
REMARK                         _______ _______ _______ _____ _____    ______ ____
ROOT
ATOM      1  C   UNL     1      -0.310  16.855  23.982  0.00  0.00    +0.000 C 
ATOM      2  C   UNL     1      -0.574  15.725  23.028  0.00  0.00    +0.000 A 
ATOM      3  C   UNL     1      -1.107  14.521  23.482  0.00  0.00    +0.000 A 
ATOM      4  C   UNL     1      -1.230  13.423  22.616  0.00  0.00    +0.000 A 
ATOM      5  C   UNL     1      -1.802  12.133  23.143  0.00  0.00    +0.000 C 
ATOM      6  C   UNL     1      -0.757  13.499  21.307  0.00  0.00    +0.000 A 
ATOM      7  N   UNL     1      -0.686  12.384  20.577  0.00  0.00    +0.000 NA
ATOM      8  C   UNL     1      -0.119  12.414  19.368  0.00  0.00    +0.000 A 
ATOM      9  N   UNL     1       0.273  11.232  18.747  0.00  0.00    +0.000 N 
ATOM     10  C   UNL     1       0.581  10.043  19.402  0.00  0.00    +0.000 A 
ATOM     11  N   UNL     1       0.027   9.767  20.586  0.00  0.00    +0.000 NA
ATOM     12  C   UNL     1       0.430   8.665  21.207  0.00  0.00    +0.000 A 
ATOM     13  C   UNL     1       1.335   7.781  20.715  0.00  0.00    +0.000 A 
ATOM     14  C   UNL     1       1.847   8.094  19.476  0.00  0.00    +0.000 A 
ATOM     15  N   UNL     1       1.484   9.227  18.813  0.00  0.00    +0.000 NA
ATOM     16  N   UNL     1       0.187  13.560  18.746  0.00  0.00    +0.000 NA
ATOM     17  C   UNL     1       0.058  14.709  19.454  0.00  0.00    +0.000 A 
ATOM     18  C   UNL     1       0.313  15.978  18.695  0.00  0.00    +0.000 C 
ATOM     19  C   UNL     1      -0.315  14.724  20.807  0.00  0.00    +0.000 A 
ATOM     20  C   UNL     1      -0.244  15.845  21.674  0.00  0.00    +0.000 A 
ATOM     21  H   UNL     1       0.882  11.405  17.966  0.00  0.00    +0.000 HD
ENDROOT
BRANCH  14  22
ATOM     22  C   UNL     1       2.859   7.228  18.832  0.00  0.00    +0.000 A 
ATOM     23  C   UNL     1       3.455   7.585  17.605  0.00  0.00    +0.000 A 
ATOM     24  C   UNL     1       4.342   6.731  16.943  0.00  0.00    +0.000 A 
ATOM     25  C   UNL     1       4.666   5.501  17.504  0.00  0.00    +0.000 A 
ATOM     26  C   UNL     1       4.122   5.135  18.732  0.00  0.00    +0.000 A 
ATOM     27  C   UNL     1       3.228   5.993  19.391  0.00  0.00    +0.000 A 
ENDBRANCH  14  22
BRANCH  12  28
ATOM     28  O   UNL     1      -0.124   8.490  22.430  0.00  0.00    +0.000 OA
ATOM     29  H   UNL     1      -0.067   7.518  22.490  0.00  0.00    +0.000 HD
ENDBRANCH  12  28
TORSDOF 2
ENDMDL
