MODEL 1
REMARK VINA RESULT:      -9.5      0.000      0.000
REMARK  Name = 
REMARK  8 active torsions:
REMARK  status: ('A' for Active; 'I' for Inactive)
REMARK    1  A    between atoms: C_1  and  O_2
REMARK    2  A    between atoms: O_2  and  C_3
REMARK    3  A    between atoms: C_3  and  C_5
REMARK    4  A    between atoms: C_8  and  C_9
REMARK    5  A    between atoms: C_9  and  N_10
REMARK    6  A    between atoms: C_12  and  C_13
REMARK    7  A    between atoms: N_15  and  C_16
REMARK    8  A    between atoms: C_21  and  O_22
REMARK                            x       y       z     vdW  Elec       q    Type
REMARK                         _______ _______ _______ _____ _____    ______ ____
ROOT
ATOM      1  N   UNL     1       3.249   6.032  17.846  0.00  0.00    +0.000 N 
ATOM      2  C   UNL     1       4.263   5.816  18.826  0.00  0.00    +0.000 A 
ATOM      3  C   UNL     1       4.767   4.794  18.073  0.00  0.00    +0.000 A 
ATOM      4  C   UNL     1       3.749   3.909  18.256  0.00  0.00    +0.000 A 
ATOM      5  C   UNL     1       4.026   2.507  18.531  0.00  0.00    +0.000 A 
ATOM      6  C   UNL     1       3.135   1.496  18.568  0.00  0.00    +0.000 A 
ATOM      7  C   UNL     1       1.900   1.956  18.268  0.00  0.00    +0.000 A 
ATOM      8  C   UNL     1       1.648   3.415  17.946  0.00  0.00    +0.000 A 
ATOM      9  C   UNL     1       2.420   4.738  17.880  0.00  0.00    +0.000 A 
ENDROOT
BRANCH   3  10
ATOM     10  C   UNL     1       5.780   4.548  17.102  0.00  0.00    +0.000 C 
ATOM     11  O   UNL     1       6.931   4.303  17.436  0.00  0.00    +0.000 OA
ATOM     12  N   UNL     1       5.306   4.526  15.842  0.00  0.00    +0.000 N 
ATOM     13  H   UNL     1       4.305   4.555  15.794  0.00  0.00    +0.000 HD
BRANCH  12  14
ATOM     14  C   UNL     1       6.091   4.188  14.681  0.00  0.00    +0.000 C 
ATOM     15  C   UNL     1       5.245   3.634  13.538  0.00  0.00    +0.000 C 
ATOM     16  C   UNL     1       6.081   3.218  12.350  0.00  0.00    +0.000 C 
ATOM     17  C   UNL     1       6.962   4.368  11.884  0.00  0.00    +0.000 C 
ATOM     18  C   UNL     1       7.814   4.901  13.018  0.00  0.00    +0.000 C 
ATOM     19  C   UNL     1       6.943   5.366  14.175  0.00  0.00    +0.000 C 
BRANCH  19  20
ATOM     20  O   UNL     1       7.838   5.814  15.181  0.00  0.00    +0.000 OA
ATOM     21  H   UNL     1       7.279   6.232  15.854  0.00  0.00    +0.000 HD
ENDBRANCH  19  20
ENDBRANCH  12  14
ENDBRANCH   3  10
BRANCH   1  22
ATOM     22  C   UNL     1       3.018   7.715  17.757  0.00  0.00    +0.000 C 
BRANCH  22  26
ATOM     23  C   UNL     1       0.169  10.757  20.186  0.00  0.00    +0.000 A 
ATOM     24  C   UNL     1       0.412  10.831  18.812  0.00  0.00    +0.000 A 
ATOM     25  C   UNL     1       1.262   9.844  18.077  0.00  0.00    +0.000 A 
ATOM     26  C   UNL     1       1.929   8.716  18.639  0.00  0.00    +0.000 A 
ATOM     27  C   UNL     1       1.476   8.604  19.985  0.00  0.00    +0.000 A 
ATOM     28  C   UNL     1       0.672   9.595  20.740  0.00  0.00    +0.000 A 
BRANCH  23  29
ATOM     29  C   UNL     1      -0.703  11.750  20.973  0.00  0.00    +0.000 C 
ATOM     30  O   UNL     1      -1.544  12.464  20.445  0.00  0.00    +0.000 OA
BRANCH  29  32
ATOM     31  C   UNL     1      -1.529  11.408  23.212  0.00  0.00    +0.000 C 
ATOM     32  O   UNL     1      -0.435  11.761  22.320  0.00  0.00    +0.000 OA
ENDBRANCH  29  32
ENDBRANCH  23  29
ENDBRANCH  22  26
ENDBRANCH   1  22
TORSDOF 7
ENDMDL
MODEL 2
REMARK VINA RESULT:      -9.0      1.048      1.299
REMARK  Name = 
REMARK  8 active torsions:
REMARK  status: ('A' for Active; 'I' for Inactive)
REMARK    1  A    between atoms: C_1  and  O_2
REMARK    2  A    between atoms: O_2  and  C_3
REMARK    3  A    between atoms: C_3  and  C_5
REMARK    4  A    between atoms: C_8  and  C_9
REMARK    5  A    between atoms: C_9  and  N_10
REMARK    6  A    between atoms: C_12  and  C_13
REMARK    7  A    between atoms: N_15  and  C_16
REMARK    8  A    between atoms: C_21  and  O_22
REMARK                            x       y       z     vdW  Elec       q    Type
REMARK                         _______ _______ _______ _____ _____    ______ ____
ROOT
ATOM      1  N   UNL     1       2.659   6.543  17.825  0.00  0.00    +0.000 N 
ATOM      2  C   UNL     1       3.962   6.398  18.385  0.00  0.00    +0.000 A 
ATOM      3  C   UNL     1       4.293   5.532  17.381  0.00  0.00    +0.000 A 
ATOM      4  C   UNL     1       3.503   4.492  17.766  0.00  0.00    +0.000 A 
ATOM      5  C   UNL     1       4.013   3.128  17.749  0.00  0.00    +0.000 A 
ATOM      6  C   UNL     1       3.306   1.996  17.940  0.00  0.00    +0.000 A 
ATOM      7  C   UNL     1       1.999   2.290  18.120  0.00  0.00    +0.000 A 
ATOM      8  C   UNL     1       1.491   3.717  18.093  0.00  0.00    +0.000 A 
ATOM      9  C   UNL     1       2.041   5.142  17.955  0.00  0.00    +0.000 A 
ENDROOT
BRANCH   3  10
ATOM     10  C   UNL     1       4.937   5.525  16.111  0.00  0.00    +0.000 C 
ATOM     11  O   UNL     1       5.141   6.564  15.499  0.00  0.00    +0.000 OA
ATOM     12  N   UNL     1       5.354   4.300  15.739  0.00  0.00    +0.000 N 
ATOM     13  H   UNL     1       5.265   3.613  16.465  0.00  0.00    +0.000 HD
BRANCH  12  14
ATOM     14  C   UNL     1       6.132   4.026  14.557  0.00  0.00    +0.000 C 
ATOM     15  C   UNL     1       5.276   3.567  13.380  0.00  0.00    +0.000 C 
ATOM     16  C   UNL     1       6.105   3.217  12.166  0.00  0.00    +0.000 C 
ATOM     17  C   UNL     1       7.006   4.379  11.778  0.00  0.00    +0.000 C 
ATOM     18  C   UNL     1       7.868   4.818  12.944  0.00  0.00    +0.000 C 
ATOM     19  C   UNL     1       7.006   5.220  14.131  0.00  0.00    +0.000 C 
BRANCH  19  20
ATOM     20  O   UNL     1       7.909   5.583  15.164  0.00  0.00    +0.000 OA
ATOM     21  H   UNL     1       8.458   4.797  15.312  0.00  0.00    +0.000 HD
ENDBRANCH  19  20
ENDBRANCH  12  14
ENDBRANCH   3  10
BRANCH   1  22
ATOM     22  C   UNL     1       2.225   8.174  18.038  0.00  0.00    +0.000 C 
BRANCH  22  26
ATOM     23  C   UNL     1      -0.094  10.489  21.579  0.00  0.00    +0.000 A 
ATOM     24  C   UNL     1      -0.184  10.825  20.226  0.00  0.00    +0.000 A 
ATOM     25  C   UNL     1       0.509  10.059  19.144  0.00  0.00    +0.000 A 
ATOM     26  C   UNL     1       1.334   8.908  19.316  0.00  0.00    +0.000 A 
ATOM     27  C   UNL     1       1.215   8.522  20.682  0.00  0.00    +0.000 A 
ATOM     28  C   UNL     1       0.572   9.294  21.774  0.00  0.00    +0.000 A 
BRANCH  23  29
ATOM     29  C   UNL     1      -0.795  11.251  22.716  0.00  0.00    +0.000 C 
ATOM     30  O   UNL     1      -1.694  10.766  23.388  0.00  0.00    +0.000 OA
BRANCH  29  32
ATOM     31  C   UNL     1      -1.302  13.573  23.125  0.00  0.00    +0.000 C 
ATOM     32  O   UNL     1      -0.318  12.527  22.892  0.00  0.00    +0.000 OA
ENDBRANCH  29  32
ENDBRANCH  23  29
ENDBRANCH  22  26
ENDBRANCH   1  22
TORSDOF 7
ENDMDL
MODEL 3
REMARK VINA RESULT:      -9.0      0.914      1.086
REMARK  Name = 
REMARK  8 active torsions:
REMARK  status: ('A' for Active; 'I' for Inactive)
REMARK    1  A    between atoms: C_1  and  O_2
REMARK    2  A    between atoms: O_2  and  C_3
REMARK    3  A    between atoms: C_3  and  C_5
REMARK    4  A    between atoms: C_8  and  C_9
REMARK    5  A    between atoms: C_9  and  N_10
REMARK    6  A    between atoms: C_12  and  C_13
REMARK    7  A    between atoms: N_15  and  C_16
REMARK    8  A    between atoms: C_21  and  O_22
REMARK                            x       y       z     vdW  Elec       q    Type
REMARK                         _______ _______ _______ _____ _____    ______ ____
ROOT
ATOM      1  N   UNL     1       2.880   5.953  18.430  0.00  0.00    +0.000 N 
ATOM      2  C   UNL     1       3.836   5.689  19.455  0.00  0.00    +0.000 A 
ATOM      3  C   UNL     1       4.413   4.736  18.666  0.00  0.00    +0.000 A 
ATOM      4  C   UNL     1       3.409   3.818  18.720  0.00  0.00    +0.000 A 
ATOM      5  C   UNL     1       3.706   2.406  18.912  0.00  0.00    +0.000 A 
ATOM      6  C   UNL     1       2.841   1.375  18.820  0.00  0.00    +0.000 A 
ATOM      7  C   UNL     1       1.616   1.829  18.474  0.00  0.00    +0.000 A 
ATOM      8  C   UNL     1       1.346   3.301  18.242  0.00  0.00    +0.000 A 
ATOM      9  C   UNL     1       2.085   4.643  18.319  0.00  0.00    +0.000 A 
ENDROOT
BRANCH   3  10
ATOM     10  C   UNL     1       5.491   4.583  17.748  0.00  0.00    +0.000 C 
ATOM     11  O   UNL     1       6.633   4.384  18.138  0.00  0.00    +0.000 OA
ATOM     12  N   UNL     1       5.091   4.590  16.461  0.00  0.00    +0.000 N 
ATOM     13  H   UNL     1       4.094   4.569  16.356  0.00  0.00    +0.000 HD
BRANCH  12  14
ATOM     14  C   UNL     1       5.957   4.341  15.336  0.00  0.00    +0.000 C 
ATOM     15  C   UNL     1       5.213   3.763  14.135  0.00  0.00    +0.000 C 
ATOM     16  C   UNL     1       6.138   3.442  12.984  0.00  0.00    +0.000 C 
ATOM     17  C   UNL     1       6.957   4.663  12.596  0.00  0.00    +0.000 C 
ATOM     18  C   UNL     1       7.709   5.221  13.787  0.00  0.00    +0.000 C 
ATOM     19  C   UNL     1       6.748   5.590  14.907  0.00  0.00    +0.000 C 
BRANCH  19  20
ATOM     20  O   UNL     1       7.556   6.070  15.971  0.00  0.00    +0.000 OA
ATOM     21  H   UNL     1       6.967   6.111  16.741  0.00  0.00    +0.000 HD
ENDBRANCH  19  20
ENDBRANCH  12  14
ENDBRANCH   3  10
BRANCH   1  22
ATOM     22  C   UNL     1       2.610   7.633  18.446  0.00  0.00    +0.000 C 
BRANCH  22  26
ATOM     23  C   UNL     1       0.162  10.502  21.454  0.00  0.00    +0.000 A 
ATOM     24  C   UNL     1       0.323  10.745  20.088  0.00  0.00    +0.000 A 
ATOM     25  C   UNL     1       1.047   9.812  19.169  0.00  0.00    +0.000 A 
ATOM     26  C   UNL     1       1.659   8.576  19.529  0.00  0.00    +0.000 A 
ATOM     27  C   UNL     1       1.285   8.312  20.877  0.00  0.00    +0.000 A 
ATOM     28  C   UNL     1       0.608   9.244  21.813  0.00  0.00    +0.000 A 
BRANCH  23  29
ATOM     29  C   UNL     1      -0.580  11.435  22.425  0.00  0.00    +0.000 C 
ATOM     30  O   UNL     1      -1.441  11.044  23.200  0.00  0.00    +0.000 OA
BRANCH  29  32
ATOM     31  C   UNL     1      -1.039  13.742  22.958  0.00  0.00    +0.000 C 
ATOM     32  O   UNL     1      -0.184  12.747  22.329  0.00  0.00    +0.000 OA
ENDBRANCH  29  32
ENDBRANCH  23  29
ENDBRANCH  22  26
ENDBRANCH   1  22
TORSDOF 7
ENDMDL
MODEL 4
REMARK VINA RESULT:      -8.9      4.738      7.567
REMARK  Name = 
REMARK  8 active torsions:
REMARK  status: ('A' for Active; 'I' for Inactive)
REMARK    1  A    between atoms: C_1  and  O_2
REMARK    2  A    between atoms: O_2  and  C_3
REMARK    3  A    between atoms: C_3  and  C_5
REMARK    4  A    between atoms: C_8  and  C_9
REMARK    5  A    between atoms: C_9  and  N_10
REMARK    6  A    between atoms: C_12  and  C_13
REMARK    7  A    between atoms: N_15  and  C_16
REMARK    8  A    between atoms: C_21  and  O_22
REMARK                            x       y       z     vdW  Elec       q    Type
REMARK                         _______ _______ _______ _____ _____    ______ ____
ROOT
ATOM      1  N   UNL     1       7.047   6.179  17.211  0.00  0.00    +0.000 N 
ATOM      2  C   UNL     1       5.843   6.896  16.947  0.00  0.00    +0.000 A 
ATOM      3  C   UNL     1       5.175   5.714  16.800  0.00  0.00    +0.000 A 
ATOM      4  C   UNL     1       5.749   5.322  15.629  0.00  0.00    +0.000 A 
ATOM      5  C   UNL     1       4.938   4.757  14.560  0.00  0.00    +0.000 A 
ATOM      6  C   UNL     1       5.381   4.178  13.425  0.00  0.00    +0.000 A 
ATOM      7  C   UNL     1       6.732   4.150  13.417  0.00  0.00    +0.000 A 
ATOM      8  C   UNL     1       7.549   4.710  14.564  0.00  0.00    +0.000 A 
ATOM      9  C   UNL     1       7.333   5.439  15.895  0.00  0.00    +0.000 A 
ENDROOT
BRANCH   3  10
ATOM     10  C   UNL     1       4.367   4.814  17.552  0.00  0.00    +0.000 C 
ATOM     11  O   UNL     1       4.824   3.768  17.992  0.00  0.00    +0.000 OA
ATOM     12  N   UNL     1       3.127   5.287  17.783  0.00  0.00    +0.000 N 
ATOM     13  H   UNL     1       3.010   6.243  17.506  0.00  0.00    +0.000 HD
BRANCH  12  14
ATOM     14  C   UNL     1       2.145   4.633  18.611  0.00  0.00    +0.000 C 
ATOM     15  C   UNL     1       1.857   3.202  18.166  0.00  0.00    +0.000 C 
ATOM     16  C   UNL     1       0.777   2.546  18.997  0.00  0.00    +0.000 C 
ATOM     17  C   UNL     1       1.126   2.610  20.476  0.00  0.00    +0.000 C 
ATOM     18  C   UNL     1       1.392   4.035  20.917  0.00  0.00    +0.000 C 
ATOM     19  C   UNL     1       2.522   4.649  20.104  0.00  0.00    +0.000 C 
BRANCH  19  20
ATOM     20  O   UNL     1       2.664   5.979  20.578  0.00  0.00    +0.000 OA
ATOM     21  H   UNL     1       2.715   5.902  21.544  0.00  0.00    +0.000 HD
ENDBRANCH  19  20
ENDBRANCH  12  14
ENDBRANCH   3  10
BRANCH   1  22
ATOM     22  C   UNL     1       7.876   7.058  18.408  0.00  0.00    +0.000 C 
BRANCH  22  26
ATOM     23  C   UNL     1       9.253  11.676  18.178  0.00  0.00    +0.000 A 
ATOM     24  C   UNL     1       8.247  11.113  17.389  0.00  0.00    +0.000 A 
ATOM     25  C   UNL     1       7.807   9.688  17.516  0.00  0.00    +0.000 A 
ATOM     26  C   UNL     1       8.323   8.721  18.429  0.00  0.00    +0.000 A 
ATOM     27  C   UNL     1       9.193   9.419  19.314  0.00  0.00    +0.000 A 
ATOM     28  C   UNL     1       9.673  10.816  19.175  0.00  0.00    +0.000 A 
BRANCH  23  29
ATOM     29  C   UNL     1       9.726  13.136  18.078  0.00  0.00    +0.000 C 
ATOM     30  O   UNL     1       9.299  14.027  18.799  0.00  0.00    +0.000 OA
BRANCH  29  32
ATOM     31  C   UNL     1      11.194  14.686  16.957  0.00  0.00    +0.000 C 
ATOM     32  O   UNL     1      10.664  13.338  17.095  0.00  0.00    +0.000 OA
ENDBRANCH  29  32
ENDBRANCH  23  29
ENDBRANCH  22  26
ENDBRANCH   1  22
TORSDOF 7
ENDMDL
MODEL 5
REMARK VINA RESULT:      -8.9      5.021      7.602
REMARK  Name = 
REMARK  8 active torsions:
REMARK  status: ('A' for Active; 'I' for Inactive)
REMARK    1  A    between atoms: C_1  and  O_2
REMARK    2  A    between atoms: O_2  and  C_3
REMARK    3  A    between atoms: C_3  and  C_5
REMARK    4  A    between atoms: C_8  and  C_9
REMARK    5  A    between atoms: C_9  and  N_10
REMARK    6  A    between atoms: C_12  and  C_13
REMARK    7  A    between atoms: N_15  and  C_16
REMARK    8  A    between atoms: C_21  and  O_22
REMARK                            x       y       z     vdW  Elec       q    Type
REMARK                         _______ _______ _______ _____ _____    ______ ____
ROOT
ATOM      1  N   UNL     1       7.368   6.573  17.501  0.00  0.00    +0.000 N 
ATOM      2  C   UNL     1       6.020   7.040  17.496  0.00  0.00    +0.000 A 
ATOM      3  C   UNL     1       5.577   5.748  17.461  0.00  0.00    +0.000 A 
ATOM      4  C   UNL     1       5.972   5.452  16.192  0.00  0.00    +0.000 A 
ATOM      5  C   UNL     1       5.089   4.721  15.294  0.00  0.00    +0.000 A 
ATOM      6  C   UNL     1       5.401   4.217  14.082  0.00  0.00    +0.000 A 
ATOM      7  C   UNL     1       6.703   4.450  13.805  0.00  0.00    +0.000 A 
ATOM      8  C   UNL     1       7.608   5.179  14.778  0.00  0.00    +0.000 A 
ATOM      9  C   UNL     1       7.524   5.877  16.140  0.00  0.00    +0.000 A 
ENDROOT
BRANCH   3  10
ATOM     10  C   UNL     1       5.124   4.723  18.340  0.00  0.00    +0.000 C 
ATOM     11  O   UNL     1       5.910   4.070  19.010  0.00  0.00    +0.000 OA
ATOM     12  N   UNL     1       3.781   4.640  18.402  0.00  0.00    +0.000 N 
ATOM     13  H   UNL     1       3.315   5.390  17.928  0.00  0.00    +0.000 HD
BRANCH  12  14
ATOM     14  C   UNL     1       3.058   3.770  19.295  0.00  0.00    +0.000 C 
ATOM     15  C   UNL     1       2.759   4.423  20.642  0.00  0.00    +0.000 C 
ATOM     16  C   UNL     1       2.061   3.482  21.597  0.00  0.00    +0.000 C 
ATOM     17  C   UNL     1       0.801   2.911  20.964  0.00  0.00    +0.000 C 
ATOM     18  C   UNL     1       1.106   2.247  19.636  0.00  0.00    +0.000 C 
ATOM     19  C   UNL     1       1.754   3.233  18.676  0.00  0.00    +0.000 C 
BRANCH  19  20
ATOM     20  O   UNL     1       2.019   2.503  17.488  0.00  0.00    +0.000 OA
ATOM     21  H   UNL     1       2.614   1.784  17.756  0.00  0.00    +0.000 HD
ENDBRANCH  19  20
ENDBRANCH  12  14
ENDBRANCH   3  10
BRANCH   1  22
ATOM     22  C   UNL     1       8.234   7.618  18.527  0.00  0.00    +0.000 C 
BRANCH  22  26
ATOM     23  C   UNL     1       8.972  12.383  18.361  0.00  0.00    +0.000 A 
ATOM     24  C   UNL     1       9.695  11.500  19.167  0.00  0.00    +0.000 A 
ATOM     25  C   UNL     1       9.477  10.020  19.162  0.00  0.00    +0.000 A 
ATOM     26  C   UNL     1       8.536   9.306  18.363  0.00  0.00    +0.000 A 
ATOM     27  C   UNL     1       7.986  10.244  17.444  0.00  0.00    +0.000 A 
ATOM     28  C   UNL     1       8.156  11.717  17.465  0.00  0.00    +0.000 A 
BRANCH  23  29
ATOM     29  C   UNL     1       9.172  13.908  18.337  0.00  0.00    +0.000 C 
ATOM     30  O   UNL     1       8.250  14.700  18.206  0.00  0.00    +0.000 OA
BRANCH  29  32
ATOM     31  C   UNL     1      11.055  15.078  17.389  0.00  0.00    +0.000 C 
ATOM     32  O   UNL     1      10.486  14.286  18.469  0.00  0.00    +0.000 OA
ENDBRANCH  29  32
ENDBRANCH  23  29
ENDBRANCH  22  26
ENDBRANCH   1  22
TORSDOF 7
ENDMDL
MODEL 6
REMARK VINA RESULT:      -8.8      4.961      7.495
REMARK  Name = 
REMARK  8 active torsions:
REMARK  status: ('A' for Active; 'I' for Inactive)
REMARK    1  A    between atoms: C_1  and  O_2
REMARK    2  A    between atoms: O_2  and  C_3
REMARK    3  A    between atoms: C_3  and  C_5
REMARK    4  A    between atoms: C_8  and  C_9
REMARK    5  A    between atoms: C_9  and  N_10
REMARK    6  A    between atoms: C_12  and  C_13
REMARK    7  A    between atoms: N_15  and  C_16
REMARK    8  A    between atoms: C_21  and  O_22
REMARK                            x       y       z     vdW  Elec       q    Type
REMARK                         _______ _______ _______ _____ _____    ______ ____
ROOT
ATOM      1  N   UNL     1       7.203   6.514  17.399  0.00  0.00    +0.000 N 
ATOM      2  C   UNL     1       5.998   7.229  17.137  0.00  0.00    +0.000 A 
ATOM      3  C   UNL     1       5.310   6.049  17.106  0.00  0.00    +0.000 A 
ATOM      4  C   UNL     1       5.825   5.565  15.942  0.00  0.00    +0.000 A 
ATOM      5  C   UNL     1       4.960   4.938  14.954  0.00  0.00    +0.000 A 
ATOM      6  C   UNL     1       5.345   4.272  13.846  0.00  0.00    +0.000 A 
ATOM      7  C   UNL     1       6.694   4.222  13.780  0.00  0.00    +0.000 A 
ATOM      8  C   UNL     1       7.568   4.851  14.846  0.00  0.00    +0.000 A 
ATOM      9  C   UNL     1       7.421   5.677  16.129  0.00  0.00    +0.000 A 
ENDROOT
BRANCH   3  10
ATOM     10  C   UNL     1       4.526   5.218  17.956  0.00  0.00    +0.000 C 
ATOM     11  O   UNL     1       5.046   4.516  18.811  0.00  0.00    +0.000 OA
ATOM     12  N   UNL     1       3.201   5.372  17.767  0.00  0.00    +0.000 N 
ATOM     13  H   UNL     1       2.974   6.136  17.157  0.00  0.00    +0.000 HD
BRANCH  12  14
ATOM     14  C   UNL     1       2.183   4.741  18.568  0.00  0.00    +0.000 C 
ATOM     15  C   UNL     1       1.967   3.275  18.199  0.00  0.00    +0.000 C 
ATOM     16  C   UNL     1       0.852   2.639  18.997  0.00  0.00    +0.000 C 
ATOM     17  C   UNL     1       1.094   2.807  20.489  0.00  0.00    +0.000 C 
ATOM     18  C   UNL     1       1.288   4.266  20.852  0.00  0.00    +0.000 C 
ATOM     19  C   UNL     1       2.454   4.863  20.079  0.00  0.00    +0.000 C 
BRANCH  19  20
ATOM     20  O   UNL     1       2.525   6.225  20.473  0.00  0.00    +0.000 OA
ATOM     21  H   UNL     1       3.011   6.672  19.762  0.00  0.00    +0.000 HD
ENDBRANCH  19  20
ENDBRANCH  12  14
ENDBRANCH   3  10
BRANCH   1  22
ATOM     22  C   UNL     1       8.097   7.465  18.491  0.00  0.00    +0.000 C 
BRANCH  22  26
ATOM     23  C   UNL     1       9.064  12.191  18.552  0.00  0.00    +0.000 A 
ATOM     24  C   UNL     1       9.660  11.253  19.399  0.00  0.00    +0.000 A 
ATOM     25  C   UNL     1       9.376   9.785  19.325  0.00  0.00    +0.000 A 
ATOM     26  C   UNL     1       8.491   9.139  18.412  0.00  0.00    +0.000 A 
ATOM     27  C   UNL     1       8.082  10.127  17.472  0.00  0.00    +0.000 A 
ATOM     28  C   UNL     1       8.316  11.589  17.556  0.00  0.00    +0.000 A 
BRANCH  23  29
ATOM     29  C   UNL     1       9.335  13.704  18.596  0.00  0.00    +0.000 C 
ATOM     30  O   UNL     1       8.736  14.467  19.341  0.00  0.00    +0.000 OA
BRANCH  29  32
ATOM     31  C   UNL     1      10.481  15.543  17.538  0.00  0.00    +0.000 C 
ATOM     32  O   UNL     1      10.307  14.109  17.714  0.00  0.00    +0.000 OA
ENDBRANCH  29  32
ENDBRANCH  23  29
ENDBRANCH  22  26
ENDBRANCH   1  22
TORSDOF 7
ENDMDL
MODEL 7
REMARK VINA RESULT:      -8.7      0.864      1.172
REMARK  Name = 
REMARK  8 active torsions:
REMARK  status: ('A' for Active; 'I' for Inactive)
REMARK    1  A    between atoms: C_1  and  O_2
REMARK    2  A    between atoms: O_2  and  C_3
REMARK    3  A    between atoms: C_3  and  C_5
REMARK    4  A    between atoms: C_8  and  C_9
REMARK    5  A    between atoms: C_9  and  N_10
REMARK    6  A    between atoms: C_12  and  C_13
REMARK    7  A    between atoms: N_15  and  C_16
REMARK    8  A    between atoms: C_21  and  O_22
REMARK                            x       y       z     vdW  Elec       q    Type
REMARK                         _______ _______ _______ _____ _____    ______ ____
ROOT
ATOM      1  N   UNL     1       3.046   6.193  18.080  0.00  0.00    +0.000 N 
ATOM      2  C   UNL     1       4.000   5.935  19.108  0.00  0.00    +0.000 A 
ATOM      3  C   UNL     1       4.499   4.893  18.379  0.00  0.00    +0.000 A 
ATOM      4  C   UNL     1       3.436   4.051  18.509  0.00  0.00    +0.000 A 
ATOM      5  C   UNL     1       3.641   2.639  18.795  0.00  0.00    +0.000 A 
ATOM      6  C   UNL     1       2.707   1.665  18.785  0.00  0.00    +0.000 A 
ATOM      7  C   UNL     1       1.509   2.177  18.424  0.00  0.00    +0.000 A 
ATOM      8  C   UNL     1       1.335   3.645  18.094  0.00  0.00    +0.000 A 
ATOM      9  C   UNL     1       2.163   4.935  18.070  0.00  0.00    +0.000 A 
ENDROOT
BRANCH   3  10
ATOM     10  C   UNL     1       5.547   4.605  17.460  0.00  0.00    +0.000 C 
ATOM     11  O   UNL     1       6.652   4.252  17.849  0.00  0.00    +0.000 OA
ATOM     12  N   UNL     1       5.154   4.675  16.174  0.00  0.00    +0.000 N 
ATOM     13  H   UNL     1       4.163   4.789  16.068  0.00  0.00    +0.000 HD
BRANCH  12  14
ATOM     14  C   UNL     1       5.980   4.322  15.047  0.00  0.00    +0.000 C 
ATOM     15  C   UNL     1       5.175   3.757  13.879  0.00  0.00    +0.000 C 
ATOM     16  C   UNL     1       6.055   3.326  12.728  0.00  0.00    +0.000 C 
ATOM     17  C   UNL     1       6.954   4.469  12.282  0.00  0.00    +0.000 C 
ATOM     18  C   UNL     1       7.765   5.013  13.441  0.00  0.00    +0.000 C 
ATOM     19  C   UNL     1       6.853   5.493  14.559  0.00  0.00    +0.000 C 
BRANCH  19  20
ATOM     20  O   UNL     1       7.711   5.951  15.592  0.00  0.00    +0.000 OA
ATOM     21  H   UNL     1       8.570   5.537  15.414  0.00  0.00    +0.000 HD
ENDBRANCH  19  20
ENDBRANCH  12  14
ENDBRANCH   3  10
BRANCH   1  22
ATOM     22  C   UNL     1       2.891   7.884  17.983  0.00  0.00    +0.000 C 
BRANCH  22  26
ATOM     23  C   UNL     1      -0.401  10.991  19.651  0.00  0.00    +0.000 A 
ATOM     24  C   UNL     1      -0.237  10.665  18.303  0.00  0.00    +0.000 A 
ATOM     25  C   UNL     1       0.761   9.661  17.819  0.00  0.00    +0.000 A 
ATOM     26  C   UNL     1       1.662   8.906  18.626  0.00  0.00    +0.000 A 
ATOM     27  C   UNL     1       1.299   9.151  19.981  0.00  0.00    +0.000 A 
ATOM     28  C   UNL     1       0.347  10.174  20.478  0.00  0.00    +0.000 A 
BRANCH  23  29
ATOM     29  C   UNL     1      -1.419  12.014  20.184  0.00  0.00    +0.000 C 
ATOM     30  O   UNL     1      -1.094  13.091  20.664  0.00  0.00    +0.000 OA
BRANCH  29  32
ATOM     31  C   UNL     1      -3.438  11.973  18.866  0.00  0.00    +0.000 C 
ATOM     32  O   UNL     1      -2.722  11.594  20.074  0.00  0.00    +0.000 OA
ENDBRANCH  29  32
ENDBRANCH  23  29
ENDBRANCH  22  26
ENDBRANCH   1  22
TORSDOF 7
ENDMDL
MODEL 8
REMARK VINA RESULT:      -8.7      1.230      1.787
REMARK  Name = 
REMARK  8 active torsions:
REMARK  status: ('A' for Active; 'I' for Inactive)
REMARK    1  A    between atoms: C_1  and  O_2
REMARK    2  A    between atoms: O_2  and  C_3
REMARK    3  A    between atoms: C_3  and  C_5
REMARK    4  A    between atoms: C_8  and  C_9
REMARK    5  A    between atoms: C_9  and  N_10
REMARK    6  A    between atoms: C_12  and  C_13
REMARK    7  A    between atoms: N_15  and  C_16
REMARK    8  A    between atoms: C_21  and  O_22
REMARK                            x       y       z     vdW  Elec       q    Type
REMARK                         _______ _______ _______ _____ _____    ______ ____
ROOT
ATOM      1  N   UNL     1       3.330   6.084  18.183  0.00  0.00    +0.000 N 
ATOM      2  C   UNL     1       4.326   5.718  19.136  0.00  0.00    +0.000 A 
ATOM      3  C   UNL     1       4.767   4.738  18.293  0.00  0.00    +0.000 A 
ATOM      4  C   UNL     1       3.694   3.906  18.398  0.00  0.00    +0.000 A 
ATOM      5  C   UNL     1       3.883   2.470  18.545  0.00  0.00    +0.000 A 
ATOM      6  C   UNL     1       2.929   1.518  18.494  0.00  0.00    +0.000 A 
ATOM      7  C   UNL     1       1.727   2.080  18.240  0.00  0.00    +0.000 A 
ATOM      8  C   UNL     1       1.568   3.575  18.052  0.00  0.00    +0.000 A 
ATOM      9  C   UNL     1       2.422   4.848  18.103  0.00  0.00    +0.000 A 
ENDROOT
BRANCH   3  10
ATOM     10  C   UNL     1       5.765   4.517  17.301  0.00  0.00    +0.000 C 
ATOM     11  O   UNL     1       6.929   4.305  17.609  0.00  0.00    +0.000 OA
ATOM     12  N   UNL     1       5.265   4.479  16.051  0.00  0.00    +0.000 N 
ATOM     13  H   UNL     1       4.262   4.481  16.024  0.00  0.00    +0.000 HD
BRANCH  12  14
ATOM     14  C   UNL     1       6.033   4.159  14.874  0.00  0.00    +0.000 C 
ATOM     15  C   UNL     1       5.174   3.604  13.741  0.00  0.00    +0.000 C 
ATOM     16  C   UNL     1       5.994   3.207  12.536  0.00  0.00    +0.000 C 
ATOM     17  C   UNL     1       6.852   4.371  12.064  0.00  0.00    +0.000 C 
ATOM     18  C   UNL     1       7.718   4.906  13.186  0.00  0.00    +0.000 C 
ATOM     19  C   UNL     1       6.861   5.352  14.362  0.00  0.00    +0.000 C 
BRANCH  19  20
ATOM     20  O   UNL     1       7.769   5.804  15.355  0.00  0.00    +0.000 OA
ATOM     21  H   UNL     1       8.027   5.008  15.847  0.00  0.00    +0.000 HD
ENDBRANCH  19  20
ENDBRANCH  12  14
ENDBRANCH   3  10
BRANCH   1  22
ATOM     22  C   UNL     1       3.206   7.780  18.246  0.00  0.00    +0.000 C 
BRANCH  22  26
ATOM     23  C   UNL     1      -0.850  10.294  18.952  0.00  0.00    +0.000 A 
ATOM     24  C   UNL     1       0.014   9.890  19.972  0.00  0.00    +0.000 A 
ATOM     25  C   UNL     1       1.291   9.152  19.719  0.00  0.00    +0.000 A 
ATOM     26  C   UNL     1       1.808   8.765  18.447  0.00  0.00    +0.000 A 
ATOM     27  C   UNL     1       0.978   9.378  17.466  0.00  0.00    +0.000 A 
ATOM     28  C   UNL     1      -0.313  10.072  17.698  0.00  0.00    +0.000 A 
BRANCH  23  29
ATOM     29  C   UNL     1      -2.167  11.057  19.175  0.00  0.00    +0.000 C 
ATOM     30  O   UNL     1      -2.285  11.959  19.992  0.00  0.00    +0.000 OA
BRANCH  29  32
ATOM     31  C   UNL     1      -3.904  11.626  17.603  0.00  0.00    +0.000 C 
ATOM     32  O   UNL     1      -3.193  10.618  18.374  0.00  0.00    +0.000 OA
ENDBRANCH  29  32
ENDBRANCH  23  29
ENDBRANCH  22  26
ENDBRANCH   1  22
TORSDOF 7
ENDMDL
MODEL 9
REMARK VINA RESULT:      -8.6      4.837      7.444
REMARK  Name = 
REMARK  8 active torsions:
REMARK  status: ('A' for Active; 'I' for Inactive)
REMARK    1  A    between atoms: C_1  and  O_2
REMARK    2  A    between atoms: O_2  and  C_3
REMARK    3  A    between atoms: C_3  and  C_5
REMARK    4  A    between atoms: C_8  and  C_9
REMARK    5  A    between atoms: C_9  and  N_10
REMARK    6  A    between atoms: C_12  and  C_13
REMARK    7  A    between atoms: N_15  and  C_16
REMARK    8  A    between atoms: C_21  and  O_22
REMARK                            x       y       z     vdW  Elec       q    Type
REMARK                         _______ _______ _______ _____ _____    ______ ____
ROOT
ATOM      1  N   UNL     1       7.458   6.486  17.478  0.00  0.00    +0.000 N 
ATOM      2  C   UNL     1       6.121   6.982  17.509  0.00  0.00    +0.000 A 
ATOM      3  C   UNL     1       5.648   5.702  17.445  0.00  0.00    +0.000 A 
ATOM      4  C   UNL     1       6.015   5.433  16.161  0.00  0.00    +0.000 A 
ATOM      5  C   UNL     1       5.102   4.748  15.258  0.00  0.00    +0.000 A 
ATOM      6  C   UNL     1       5.383   4.272  14.028  0.00  0.00    +0.000 A 
ATOM      7  C   UNL     1       6.685   4.483  13.736  0.00  0.00    +0.000 A 
ATOM      8  C   UNL     1       7.622   5.164  14.713  0.00  0.00    +0.000 A 
ATOM      9  C   UNL     1       7.576   5.825  16.095  0.00  0.00    +0.000 A 
ENDROOT
BRANCH   3  10
ATOM     10  C   UNL     1       5.186   4.663  18.302  0.00  0.00    +0.000 C 
ATOM     11  O   UNL     1       5.969   3.909  18.863  0.00  0.00    +0.000 OA
ATOM     12  N   UNL     1       3.851   4.681  18.478  0.00  0.00    +0.000 N 
ATOM     13  H   UNL     1       3.411   5.493  18.089  0.00  0.00    +0.000 HD
BRANCH  12  14
ATOM     14  C   UNL     1       3.135   3.816  19.382  0.00  0.00    +0.000 C 
ATOM     15  C   UNL     1       2.625   4.549  20.620  0.00  0.00    +0.000 C 
ATOM     16  C   UNL     1       1.935   3.622  21.594  0.00  0.00    +0.000 C 
ATOM     17  C   UNL     1       0.819   2.852  20.905  0.00  0.00    +0.000 C 
ATOM     18  C   UNL     1       1.335   2.110  19.688  0.00  0.00    +0.000 C 
ATOM     19  C   UNL     1       1.971   3.075  18.699  0.00  0.00    +0.000 C 
BRANCH  19  20
ATOM     20  O   UNL     1       2.440   2.276  17.623  0.00  0.00    +0.000 OA
ATOM     21  H   UNL     1       3.406   2.272  17.708  0.00  0.00    +0.000 HD
ENDBRANCH  19  20
ENDBRANCH  12  14
ENDBRANCH   3  10
BRANCH   1  22
ATOM     22  C   UNL     1       8.363   7.482  18.518  0.00  0.00    +0.000 C 
BRANCH  22  26
ATOM     23  C   UNL     1       9.050  12.243  18.147  0.00  0.00    +0.000 A 
ATOM     24  C   UNL     1       8.110  11.521  17.407  0.00  0.00    +0.000 A 
ATOM     25  C   UNL     1       7.886  10.052  17.577  0.00  0.00    +0.000 A 
ATOM     26  C   UNL     1       8.566   9.192  18.489  0.00  0.00    +0.000 A 
ATOM     27  C   UNL     1       9.354  10.029  19.329  0.00  0.00    +0.000 A 
ATOM     28  C   UNL     1       9.623  11.476  19.146  0.00  0.00    +0.000 A 
BRANCH  23  29
ATOM     29  C   UNL     1       9.304  13.752  18.001  0.00  0.00    +0.000 C 
ATOM     30  O   UNL     1      10.385  14.218  17.670  0.00  0.00    +0.000 OA
BRANCH  29  32
ATOM     31  C   UNL     1       8.243  15.914  17.873  0.00  0.00    +0.000 C 
ATOM     32  O   UNL     1       8.202  14.520  18.289  0.00  0.00    +0.000 OA
ENDBRANCH  29  32
ENDBRANCH  23  29
ENDBRANCH  22  26
ENDBRANCH   1  22
TORSDOF 7
ENDMDL
