MODEL 1
REMARK VINA RESULT:      -8.1      0.000      0.000
REMARK  Name = 
REMARK  14 active torsions:
REMARK  status: ('A' for Active; 'I' for Inactive)
REMARK    1  A    between atoms: C_1  and  C_2
REMARK    2  A    between atoms: C_4  and  C_5
REMARK    3  A    between atoms: N_10  and  C_11
REMARK    4  A    between atoms: C_11  and  C_12
REMARK    5  A    between atoms: C_12  and  C_13
REMARK    6  A    between atoms: C_13  and  N_14
REMARK    7  A    between atoms: N_14  and  C_15
REMARK    8  A    between atoms: N_14  and  C_16
REMARK    9  A    between atoms: C_16  and  C_17
REMARK   10  A    between atoms: C_17  and  O_18
REMARK   11  A    between atoms: O_18  and  C_19
REMARK   12  A    between atoms: C_28  and  C_29
REMARK   13  A    between atoms: C_30  and  C_31
REMARK   14  A    between atoms: C_32  and  O_33
REMARK                            x       y       z     vdW  Elec       q    Type
REMARK                         _______ _______ _______ _____ _____    ______ ____
ROOT
ATOM      1  C   UNL     1       4.116   4.176  19.802  0.00  0.00    +0.000 C 
ATOM      2  S   UNL     1       3.900   2.375  19.730  0.00  0.00    +0.000 S 
ATOM      3  C   UNL     1       2.159   2.443  20.180  0.00  0.00    +0.000 C 
ATOM      4  C   UNL     1       1.743   3.892  20.147  0.00  0.00    +0.000 C 
ATOM      5  O   UNL     1       0.599   4.251  20.424  0.00  0.00    +0.000 OA
ATOM      6  N   UNL     1       2.778   4.749  19.798  0.00  0.00    +0.000 N 
ENDROOT
BRANCH   1  10
ATOM      7  C   UNL     1       8.153   6.887  18.511  0.00  0.00    +0.000 C 
ATOM      8  C   UNL     1       7.028   5.986  18.093  0.00  0.00    +0.000 A 
ATOM      9  C   UNL     1       6.149   5.469  19.050  0.00  0.00    +0.000 A 
ATOM     10  C   UNL     1       5.062   4.641  18.700  0.00  0.00    +0.000 A 
ATOM     11  C   UNL     1       4.841   4.358  17.319  0.00  0.00    +0.000 A 
ATOM     12  C   UNL     1       3.643   3.557  16.857  0.00  0.00    +0.000 C 
ATOM     13  C   UNL     1       5.740   4.867  16.336  0.00  0.00    +0.000 A 
ATOM     14  C   UNL     1       5.545   4.598  14.862  0.00  0.00    +0.000 C 
ATOM     15  C   UNL     1       6.822   5.667  16.749  0.00  0.00    +0.000 A 
BRANCH  15  16
ATOM     16  O   UNL     1       7.721   6.197  15.858  0.00  0.00    +0.000 OA
ATOM     17  H   UNL     1       8.296   5.503  15.506  0.00  0.00    +0.000 HD
ENDBRANCH  15  16
ENDBRANCH   1  10
BRANCH   6  18
ATOM     18  C   UNL     1       2.576   6.196  19.945  0.00  0.00    +0.000 C 
BRANCH  18  19
ATOM     19  C   UNL     1       2.210   6.864  18.617  0.00  0.00    +0.000 C 
BRANCH  19  20
ATOM     20  C   UNL     1       2.187   8.397  18.693  0.00  0.00    +0.000 C 
BRANCH  20  21
ATOM     21  N   UNL     1       0.898   8.999  19.079  0.00  0.00    +0.000 NA
ATOM     22  C   UNL     1       0.858   9.368  20.496  0.00  0.00    +0.000 C 
BRANCH  21  23
ATOM     23  C   UNL     1       0.566  10.189  18.255  0.00  0.00    +0.000 C 
BRANCH  23  24
ATOM     24  C   UNL     1      -0.945  10.348  18.069  0.00  0.00    +0.000 C 
BRANCH  24  25
ATOM     25  O   UNL     1      -1.443  11.572  18.639  0.00  0.00    +0.000 OA
BRANCH  25  26
ATOM     26  C   UNL     1      -2.799  11.693  18.408  0.00  0.00    +0.000 A 
ATOM     27  C   UNL     1      -3.266  11.328  17.128  0.00  0.00    +0.000 A 
ATOM     28  C   UNL     1      -4.643  11.231  16.883  0.00  0.00    +0.000 A 
ATOM     29  C   UNL     1      -5.498  11.484  17.934  0.00  0.00    +0.000 A 
ATOM     30  C   UNL     1      -5.032  11.921  19.150  0.00  0.00    +0.000 A 
ATOM     31  C   UNL     1      -3.697  12.083  19.402  0.00  0.00    +0.000 A 
ATOM     32  O   UNL     1      -6.025  12.078  20.068  0.00  0.00    +0.000 OA
ATOM     33  C   UNL     1      -7.091  11.407  19.376  0.00  0.00    +0.000 C 
ATOM     34  O   UNL     1      -6.846  11.294  17.954  0.00  0.00    +0.000 OA
ENDBRANCH  25  26
ENDBRANCH  24  25
ENDBRANCH  23  24
ENDBRANCH  21  23
ENDBRANCH  20  21
ENDBRANCH  19  20
ENDBRANCH  18  19
ENDBRANCH   6  18
TORSDOF 10
ENDMDL
MODEL 2
REMARK VINA RESULT:      -8.1      1.100      2.104
REMARK  Name = 
REMARK  14 active torsions:
REMARK  status: ('A' for Active; 'I' for Inactive)
REMARK    1  A    between atoms: C_1  and  C_2
REMARK    2  A    between atoms: C_4  and  C_5
REMARK    3  A    between atoms: N_10  and  C_11
REMARK    4  A    between atoms: C_11  and  C_12
REMARK    5  A    between atoms: C_12  and  C_13
REMARK    6  A    between atoms: C_13  and  N_14
REMARK    7  A    between atoms: N_14  and  C_15
REMARK    8  A    between atoms: N_14  and  C_16
REMARK    9  A    between atoms: C_16  and  C_17
REMARK   10  A    between atoms: C_17  and  O_18
REMARK   11  A    between atoms: O_18  and  C_19
REMARK   12  A    between atoms: C_28  and  C_29
REMARK   13  A    between atoms: C_30  and  C_31
REMARK   14  A    between atoms: C_32  and  O_33
REMARK                            x       y       z     vdW  Elec       q    Type
REMARK                         _______ _______ _______ _____ _____    ______ ____
ROOT
ATOM      1  C   UNL     1       3.973   3.497  18.762  0.00  0.00    +0.000 C 
ATOM      2  S   UNL     1       3.593   1.784  18.293  0.00  0.00    +0.000 S 
ATOM      3  C   UNL     1       1.912   1.852  18.930  0.00  0.00    +0.000 C 
ATOM      4  C   UNL     1       1.623   3.291  19.282  0.00  0.00    +0.000 C 
ATOM      5  O   UNL     1       0.544   3.643  19.756  0.00  0.00    +0.000 OA
ATOM      6  N   UNL     1       2.694   4.138  19.035  0.00  0.00    +0.000 N 
ENDROOT
BRANCH   1  10
ATOM      7  C   UNL     1       5.431   3.695  13.951  0.00  0.00    +0.000 C 
ATOM      8  C   UNL     1       5.561   4.219  15.352  0.00  0.00    +0.000 A 
ATOM      9  C   UNL     1       4.748   3.711  16.370  0.00  0.00    +0.000 A 
ATOM     10  C   UNL     1       4.854   4.153  17.705  0.00  0.00    +0.000 A 
ATOM     11  C   UNL     1       5.850   5.124  18.022  0.00  0.00    +0.000 A 
ATOM     12  C   UNL     1       6.090   5.579  19.445  0.00  0.00    +0.000 C 
ATOM     13  C   UNL     1       6.674   5.661  16.988  0.00  0.00    +0.000 A 
ATOM     14  C   UNL     1       7.746   6.688  17.274  0.00  0.00    +0.000 C 
ATOM     15  C   UNL     1       6.505   5.198  15.669  0.00  0.00    +0.000 A 
BRANCH  15  16
ATOM     16  O   UNL     1       7.267   5.663  14.628  0.00  0.00    +0.000 OA
ATOM     17  H   UNL     1       8.024   5.079  14.478  0.00  0.00    +0.000 HD
ENDBRANCH  15  16
ENDBRANCH   1  10
BRANCH   6  18
ATOM     18  C   UNL     1       2.634   5.517  19.538  0.00  0.00    +0.000 C 
BRANCH  18  19
ATOM     19  C   UNL     1       2.061   6.484  18.498  0.00  0.00    +0.000 C 
BRANCH  19  20
ATOM     20  C   UNL     1       2.408   7.953  18.778  0.00  0.00    +0.000 C 
BRANCH  20  21
ATOM     21  N   UNL     1       1.338   8.757  19.393  0.00  0.00    +0.000 NA
ATOM     22  C   UNL     1       1.168   8.460  20.818  0.00  0.00    +0.000 C 
BRANCH  21  23
ATOM     23  C   UNL     1       1.561  10.215  19.221  0.00  0.00    +0.000 C 
BRANCH  23  24
ATOM     24  C   UNL     1       0.395  10.886  18.493  0.00  0.00    +0.000 C 
BRANCH  24  25
ATOM     25  O   UNL     1      -0.509   9.933  17.905  0.00  0.00    +0.000 OA
BRANCH  25  26
ATOM     26  C   UNL     1      -1.732  10.522  17.654  0.00  0.00    +0.000 A 
ATOM     27  C   UNL     1      -2.341  10.230  16.415  0.00  0.00    +0.000 A 
ATOM     28  C   UNL     1      -3.665  10.624  16.172  0.00  0.00    +0.000 A 
ATOM     29  C   UNL     1      -4.333  11.278  17.185  0.00  0.00    +0.000 A 
ATOM     30  C   UNL     1      -3.700  11.631  18.352  0.00  0.00    +0.000 A 
ATOM     31  C   UNL     1      -2.392  11.313  18.596  0.00  0.00    +0.000 A 
ATOM     32  O   UNL     1      -4.536  12.234  19.241  0.00  0.00    +0.000 OA
ATOM     33  C   UNL     1      -5.795  11.938  18.615  0.00  0.00    +0.000 C 
ATOM     34  O   UNL     1      -5.655  11.602  17.215  0.00  0.00    +0.000 OA
ENDBRANCH  25  26
ENDBRANCH  24  25
ENDBRANCH  23  24
ENDBRANCH  21  23
ENDBRANCH  20  21
ENDBRANCH  19  20
ENDBRANCH  18  19
ENDBRANCH   6  18
TORSDOF 10
ENDMDL
MODEL 3
REMARK VINA RESULT:      -8.0      2.863      3.585
REMARK  Name = 
REMARK  14 active torsions:
REMARK  status: ('A' for Active; 'I' for Inactive)
REMARK    1  A    between atoms: C_1  and  C_2
REMARK    2  A    between atoms: C_4  and  C_5
REMARK    3  A    between atoms: N_10  and  C_11
REMARK    4  A    between atoms: C_11  and  C_12
REMARK    5  A    between atoms: C_12  and  C_13
REMARK    6  A    between atoms: C_13  and  N_14
REMARK    7  A    between atoms: N_14  and  C_15
REMARK    8  A    between atoms: N_14  and  C_16
REMARK    9  A    between atoms: C_16  and  C_17
REMARK   10  A    between atoms: C_17  and  O_18
REMARK   11  A    between atoms: O_18  and  C_19
REMARK   12  A    between atoms: C_28  and  C_29
REMARK   13  A    between atoms: C_30  and  C_31
REMARK   14  A    between atoms: C_32  and  O_33
REMARK                            x       y       z     vdW  Elec       q    Type
REMARK                         _______ _______ _______ _____ _____    ______ ____
ROOT
ATOM      1  C   UNL     1       3.768   3.619  18.461  0.00  0.00    +0.000 C 
ATOM      2  S   UNL     1       3.995   1.819  18.539  0.00  0.00    +0.000 S 
ATOM      3  C   UNL     1       2.232   1.478  18.642  0.00  0.00    +0.000 C 
ATOM      4  C   UNL     1       1.507   2.774  18.378  0.00  0.00    +0.000 C 
ATOM      5  O   UNL     1       0.279   2.852  18.394  0.00  0.00    +0.000 OA
ATOM      6  N   UNL     1       2.364   3.839  18.143  0.00  0.00    +0.000 N 
ENDROOT
BRANCH   1  10
ATOM      7  C   UNL     1       5.813   3.724  13.867  0.00  0.00    +0.000 C 
ATOM      8  C   UNL     1       5.783   4.262  15.268  0.00  0.00    +0.000 A 
ATOM      9  C   UNL     1       4.838   3.786  16.182  0.00  0.00    +0.000 A 
ATOM     10  C   UNL     1       4.789   4.242  17.515  0.00  0.00    +0.000 A 
ATOM     11  C   UNL     1       5.762   5.193  17.944  0.00  0.00    +0.000 A 
ATOM     12  C   UNL     1       5.835   5.660  19.382  0.00  0.00    +0.000 C 
ATOM     13  C   UNL     1       6.720   5.698  17.015  0.00  0.00    +0.000 A 
ATOM     14  C   UNL     1       7.773   6.703  17.423  0.00  0.00    +0.000 C 
ATOM     15  C   UNL     1       6.703   5.223  15.690  0.00  0.00    +0.000 A 
BRANCH  15  16
ATOM     16  O   UNL     1       7.600   5.658  14.747  0.00  0.00    +0.000 OA
ATOM     17  H   UNL     1       8.261   4.974  14.571  0.00  0.00    +0.000 HD
ENDBRANCH  15  16
ENDBRANCH   1  10
BRANCH   6  18
ATOM     18  C   UNL     1       1.806   5.198  18.095  0.00  0.00    +0.000 C 
BRANCH  18  19
ATOM     19  C   UNL     1       2.130   5.997  19.361  0.00  0.00    +0.000 C 
BRANCH  19  20
ATOM     20  C   UNL     1       2.610   7.426  19.070  0.00  0.00    +0.000 C 
BRANCH  20  21
ATOM     21  N   UNL     1       1.852   8.502  19.733  0.00  0.00    +0.000 NA
ATOM     22  C   UNL     1       0.933   9.180  18.816  0.00  0.00    +0.000 C 
BRANCH  21  23
ATOM     23  C   UNL     1       1.094   8.012  20.911  0.00  0.00    +0.000 C 
BRANCH  23  24
ATOM     24  C   UNL     1       0.066   9.037  21.393  0.00  0.00    +0.000 C 
BRANCH  24  25
ATOM     25  O   UNL     1       0.675  10.149  22.074  0.00  0.00    +0.000 OA
BRANCH  25  26
ATOM     26  C   UNL     1      -0.247  11.159  22.266  0.00  0.00    +0.000 A 
ATOM     27  C   UNL     1      -0.097  12.320  21.478  0.00  0.00    +0.000 A 
ATOM     28  C   UNL     1      -1.102  13.299  21.470  0.00  0.00    +0.000 A 
ATOM     29  C   UNL     1      -2.225  13.067  22.234  0.00  0.00    +0.000 A 
ATOM     30  C   UNL     1      -2.319  11.973  23.061  0.00  0.00    +0.000 A 
ATOM     31  C   UNL     1      -1.330  11.031  23.137  0.00  0.00    +0.000 A 
ATOM     32  O   UNL     1      -3.518  11.900  23.702  0.00  0.00    +0.000 OA
ATOM     33  C   UNL     1      -4.243  12.889  22.953  0.00  0.00    +0.000 C 
ATOM     34  O   UNL     1      -3.372  13.801  22.245  0.00  0.00    +0.000 OA
ENDBRANCH  25  26
ENDBRANCH  24  25
ENDBRANCH  23  24
ENDBRANCH  21  23
ENDBRANCH  20  21
ENDBRANCH  19  20
ENDBRANCH  18  19
ENDBRANCH   6  18
TORSDOF 10
ENDMDL
MODEL 4
REMARK VINA RESULT:      -8.0      1.600      2.840
REMARK  Name = 
REMARK  14 active torsions:
REMARK  status: ('A' for Active; 'I' for Inactive)
REMARK    1  A    between atoms: C_1  and  C_2
REMARK    2  A    between atoms: C_4  and  C_5
REMARK    3  A    between atoms: N_10  and  C_11
REMARK    4  A    between atoms: C_11  and  C_12
REMARK    5  A    between atoms: C_12  and  C_13
REMARK    6  A    between atoms: C_13  and  N_14
REMARK    7  A    between atoms: N_14  and  C_15
REMARK    8  A    between atoms: N_14  and  C_16
REMARK    9  A    between atoms: C_16  and  C_17
REMARK   10  A    between atoms: C_17  and  O_18
REMARK   11  A    between atoms: O_18  and  C_19
REMARK   12  A    between atoms: C_28  and  C_29
REMARK   13  A    between atoms: C_30  and  C_31
REMARK   14  A    between atoms: C_32  and  O_33
REMARK                            x       y       z     vdW  Elec       q    Type
REMARK                         _______ _______ _______ _____ _____    ______ ____
ROOT
ATOM      1  C   UNL     1       3.985   3.377  18.836  0.00  0.00    +0.000 C 
ATOM      2  S   UNL     1       3.325   1.827  18.159  0.00  0.00    +0.000 S 
ATOM      3  C   UNL     1       1.716   2.028  18.936  0.00  0.00    +0.000 C 
ATOM      4  C   UNL     1       1.667   3.421  19.515  0.00  0.00    +0.000 C 
ATOM      5  O   UNL     1       0.685   3.842  20.124  0.00  0.00    +0.000 OA
ATOM      6  N   UNL     1       2.836   4.139  19.304  0.00  0.00    +0.000 N 
ENDROOT
BRANCH   1  10
ATOM      7  C   UNL     1       5.370   3.870  14.026  0.00  0.00    +0.000 C 
ATOM      8  C   UNL     1       5.557   4.271  15.460  0.00  0.00    +0.000 A 
ATOM      9  C   UNL     1       4.732   3.734  16.453  0.00  0.00    +0.000 A 
ATOM     10  C   UNL     1       4.888   4.060  17.815  0.00  0.00    +0.000 A 
ATOM     11  C   UNL     1       5.949   4.939  18.186  0.00  0.00    +0.000 A 
ATOM     12  C   UNL     1       6.241   5.263  19.635  0.00  0.00    +0.000 C 
ATOM     13  C   UNL     1       6.787   5.506  17.180  0.00  0.00    +0.000 A 
ATOM     14  C   UNL     1       7.926   6.438  17.523  0.00  0.00    +0.000 C 
ATOM     15  C   UNL     1       6.566   5.161  15.833  0.00  0.00    +0.000 A 
BRANCH  15  16
ATOM     16  O   UNL     1       7.339   5.661  14.815  0.00  0.00    +0.000 OA
ATOM     17  H   UNL     1       6.837   6.305  14.297  0.00  0.00    +0.000 HD
ENDBRANCH  15  16
ENDBRANCH   1  10
BRANCH   6  18
ATOM     18  C   UNL     1       3.014   5.418  20.004  0.00  0.00    +0.000 C 
BRANCH  18  19
ATOM     19  C   UNL     1       2.937   6.612  19.049  0.00  0.00    +0.000 C 
BRANCH  19  20
ATOM     20  C   UNL     1       1.673   7.462  19.238  0.00  0.00    +0.000 C 
BRANCH  20  21
ATOM     21  N   UNL     1       1.857   8.919  19.113  0.00  0.00    +0.000 NA
ATOM     22  C   UNL     1       1.769   9.372  17.723  0.00  0.00    +0.000 C 
BRANCH  21  23
ATOM     23  C   UNL     1       0.886   9.681  19.937  0.00  0.00    +0.000 C 
BRANCH  23  24
ATOM     24  C   UNL     1       0.240  10.821  19.147  0.00  0.00    +0.000 C 
BRANCH  24  25
ATOM     25  O   UNL     1      -1.094  11.116  19.598  0.00  0.00    +0.000 OA
BRANCH  25  26
ATOM     26  C   UNL     1      -2.007  10.875  18.590  0.00  0.00    +0.000 A 
ATOM     27  C   UNL     1      -3.228  11.579  18.650  0.00  0.00    +0.000 A 
ATOM     28  C   UNL     1      -4.115  11.542  17.565  0.00  0.00    +0.000 A 
ATOM     29  C   UNL     1      -3.737  10.818  16.455  0.00  0.00    +0.000 A 
ATOM     30  C   UNL     1      -2.585  10.069  16.444  0.00  0.00    +0.000 A 
ATOM     31  C   UNL     1      -1.728  10.037  17.510  0.00  0.00    +0.000 A 
ATOM     32  O   UNL     1      -2.366   9.459  15.247  0.00  0.00    +0.000 OA
ATOM     33  C   UNL     1      -3.338  10.154  14.449  0.00  0.00    +0.000 C 
ATOM     34  O   UNL     1      -4.368  10.782  15.249  0.00  0.00    +0.000 OA
ENDBRANCH  25  26
ENDBRANCH  24  25
ENDBRANCH  23  24
ENDBRANCH  21  23
ENDBRANCH  20  21
ENDBRANCH  19  20
ENDBRANCH  18  19
ENDBRANCH   6  18
TORSDOF 10
ENDMDL
MODEL 5
REMARK VINA RESULT:      -7.8      1.266      2.298
REMARK  Name = 
REMARK  14 active torsions:
REMARK  status: ('A' for Active; 'I' for Inactive)
REMARK    1  A    between atoms: C_1  and  C_2
REMARK    2  A    between atoms: C_4  and  C_5
REMARK    3  A    between atoms: N_10  and  C_11
REMARK    4  A    between atoms: C_11  and  C_12
REMARK    5  A    between atoms: C_12  and  C_13
REMARK    6  A    between atoms: C_13  and  N_14
REMARK    7  A    between atoms: N_14  and  C_15
REMARK    8  A    between atoms: N_14  and  C_16
REMARK    9  A    between atoms: C_16  and  C_17
REMARK   10  A    between atoms: C_17  and  O_18
REMARK   11  A    between atoms: O_18  and  C_19
REMARK   12  A    between atoms: C_28  and  C_29
REMARK   13  A    between atoms: C_30  and  C_31
REMARK   14  A    between atoms: C_32  and  O_33
REMARK                            x       y       z     vdW  Elec       q    Type
REMARK                         _______ _______ _______ _____ _____    ______ ____
ROOT
ATOM      1  C   UNL     1       3.951   3.506  18.673  0.00  0.00    +0.000 C 
ATOM      2  S   UNL     1       3.648   1.772  18.230  0.00  0.00    +0.000 S 
ATOM      3  C   UNL     1       1.927   1.810  18.753  0.00  0.00    +0.000 C 
ATOM      4  C   UNL     1       1.578   3.249  19.044  0.00  0.00    +0.000 C 
ATOM      5  O   UNL     1       0.461   3.584  19.436  0.00  0.00    +0.000 OA
ATOM      6  N   UNL     1       2.640   4.119  18.843  0.00  0.00    +0.000 N 
ENDROOT
BRANCH   1  10
ATOM      7  C   UNL     1       5.645   3.681  13.940  0.00  0.00    +0.000 C 
ATOM      8  C   UNL     1       5.706   4.213  15.343  0.00  0.00    +0.000 A 
ATOM      9  C   UNL     1       4.844   3.709  16.322  0.00  0.00    +0.000 A 
ATOM     10  C   UNL     1       4.883   4.158  17.658  0.00  0.00    +0.000 A 
ATOM     11  C   UNL     1       5.861   5.132  18.019  0.00  0.00    +0.000 A 
ATOM     12  C   UNL     1       6.030   5.594  19.450  0.00  0.00    +0.000 C 
ATOM     13  C   UNL     1       6.735   5.664  17.024  0.00  0.00    +0.000 A 
ATOM     14  C   UNL     1       7.790   6.694  17.358  0.00  0.00    +0.000 C 
ATOM     15  C   UNL     1       6.631   5.194  15.701  0.00  0.00    +0.000 A 
BRANCH  15  16
ATOM     16  O   UNL     1       7.444   5.655  14.697  0.00  0.00    +0.000 OA
ATOM     17  H   UNL     1       7.762   4.918  14.157  0.00  0.00    +0.000 HD
ENDBRANCH  15  16
ENDBRANCH   1  10
BRANCH   6  18
ATOM     18  C   UNL     1       2.512   5.509  19.301  0.00  0.00    +0.000 C 
BRANCH  18  19
ATOM     19  C   UNL     1       2.380   6.489  18.132  0.00  0.00    +0.000 C 
BRANCH  19  20
ATOM     20  C   UNL     1       2.542   7.958  18.550  0.00  0.00    +0.000 C 
BRANCH  20  21
ATOM     21  N   UNL     1       1.318   8.626  19.026  0.00  0.00    +0.000 NA
ATOM     22  C   UNL     1       1.274   8.731  20.487  0.00  0.00    +0.000 C 
BRANCH  21  23
ATOM     23  C   UNL     1       1.149   9.977  18.434  0.00  0.00    +0.000 C 
BRANCH  23  24
ATOM     24  C   UNL     1      -0.068  10.702  19.011  0.00  0.00    +0.000 C 
BRANCH  24  25
ATOM     25  O   UNL     1      -1.020  11.072  17.997  0.00  0.00    +0.000 OA
BRANCH  25  26
ATOM     26  C   UNL     1      -2.132  11.655  18.571  0.00  0.00    +0.000 A 
ATOM     27  C   UNL     1      -3.376  11.409  17.951  0.00  0.00    +0.000 A 
ATOM     28  C   UNL     1      -4.566  11.796  18.584  0.00  0.00    +0.000 A 
ATOM     29  C   UNL     1      -4.465  12.395  19.821  0.00  0.00    +0.000 A 
ATOM     30  C   UNL     1      -3.245  12.705  20.373  0.00  0.00    +0.000 A 
ATOM     31  C   UNL     1      -2.066  12.394  19.753  0.00  0.00    +0.000 A 
ATOM     32  O   UNL     1      -3.354  13.255  21.613  0.00  0.00    +0.000 OA
ATOM     33  C   UNL     1      -4.739  12.971  21.874  0.00  0.00    +0.000 C 
ATOM     34  O   UNL     1      -5.488  12.700  20.667  0.00  0.00    +0.000 OA
ENDBRANCH  25  26
ENDBRANCH  24  25
ENDBRANCH  23  24
ENDBRANCH  21  23
ENDBRANCH  20  21
ENDBRANCH  19  20
ENDBRANCH  18  19
ENDBRANCH   6  18
TORSDOF 10
ENDMDL
MODEL 6
REMARK VINA RESULT:      -7.8      1.137      1.658
REMARK  Name = 
REMARK  14 active torsions:
REMARK  status: ('A' for Active; 'I' for Inactive)
REMARK    1  A    between atoms: C_1  and  C_2
REMARK    2  A    between atoms: C_4  and  C_5
REMARK    3  A    between atoms: N_10  and  C_11
REMARK    4  A    between atoms: C_11  and  C_12
REMARK    5  A    between atoms: C_12  and  C_13
REMARK    6  A    between atoms: C_13  and  N_14
REMARK    7  A    between atoms: N_14  and  C_15
REMARK    8  A    between atoms: N_14  and  C_16
REMARK    9  A    between atoms: C_16  and  C_17
REMARK   10  A    between atoms: C_17  and  O_18
REMARK   11  A    between atoms: O_18  and  C_19
REMARK   12  A    between atoms: C_28  and  C_29
REMARK   13  A    between atoms: C_30  and  C_31
REMARK   14  A    between atoms: C_32  and  O_33
REMARK                            x       y       z     vdW  Elec       q    Type
REMARK                         _______ _______ _______ _____ _____    ______ ____
ROOT
ATOM      1  C   UNL     1       3.928   4.527  19.651  0.00  0.00    +0.000 C 
ATOM      2  S   UNL     1       4.121   2.807  20.201  0.00  0.00    +0.000 S 
ATOM      3  C   UNL     1       2.361   2.571  20.485  0.00  0.00    +0.000 C 
ATOM      4  C   UNL     1       1.649   3.774  19.919  0.00  0.00    +0.000 C 
ATOM      5  O   UNL     1       0.426   3.899  19.979  0.00  0.00    +0.000 OA
ATOM      6  N   UNL     1       2.513   4.705  19.360  0.00  0.00    +0.000 N 
ENDROOT
BRANCH   1  10
ATOM      7  C   UNL     1       7.935   7.121  18.064  0.00  0.00    +0.000 C 
ATOM      8  C   UNL     1       6.853   6.125  17.764  0.00  0.00    +0.000 A 
ATOM      9  C   UNL     1       5.952   5.745  18.763  0.00  0.00    +0.000 A 
ATOM     10  C   UNL     1       4.903   4.834  18.520  0.00  0.00    +0.000 A 
ATOM     11  C   UNL     1       4.744   4.318  17.200  0.00  0.00    +0.000 A 
ATOM     12  C   UNL     1       3.588   3.411  16.836  0.00  0.00    +0.000 C 
ATOM     13  C   UNL     1       5.667   4.687  16.176  0.00  0.00    +0.000 A 
ATOM     14  C   UNL     1       5.538   4.171  14.761  0.00  0.00    +0.000 C 
ATOM     15  C   UNL     1       6.709   5.581  16.486  0.00  0.00    +0.000 A 
BRANCH  15  16
ATOM     16  O   UNL     1       7.627   5.986  15.550  0.00  0.00    +0.000 OA
ATOM     17  H   UNL     1       7.215   6.585  14.911  0.00  0.00    +0.000 HD
ENDBRANCH  15  16
ENDBRANCH   1  10
BRANCH   6  18
ATOM     18  C   UNL     1       1.982   6.020  18.977  0.00  0.00    +0.000 C 
BRANCH  18  19
ATOM     19  C   UNL     1       2.286   7.092  20.028  0.00  0.00    +0.000 C 
BRANCH  19  20
ATOM     20  C   UNL     1       1.171   7.252  21.071  0.00  0.00    +0.000 C 
BRANCH  20  21
ATOM     21  N   UNL     1       0.424   8.521  21.019  0.00  0.00    +0.000 NA
ATOM     22  C   UNL     1      -0.495   8.671  22.149  0.00  0.00    +0.000 C 
BRANCH  21  23
ATOM     23  C   UNL     1       1.323   9.700  20.960  0.00  0.00    +0.000 C 
BRANCH  23  24
ATOM     24  C   UNL     1       0.590  10.951  20.473  0.00  0.00    +0.000 C 
BRANCH  24  25
ATOM     25  O   UNL     1       0.573  11.056  19.038  0.00  0.00    +0.000 OA
BRANCH  25  26
ATOM     26  C   UNL     1      -0.726  11.064  18.571  0.00  0.00    +0.000 A 
ATOM     27  C   UNL     1      -1.086  10.047  17.661  0.00  0.00    +0.000 A 
ATOM     28  C   UNL     1      -2.430   9.870  17.301  0.00  0.00    +0.000 A 
ATOM     29  C   UNL     1      -3.362  10.704  17.880  0.00  0.00    +0.000 A 
ATOM     30  C   UNL     1      -2.987  11.743  18.697  0.00  0.00    +0.000 A 
ATOM     31  C   UNL     1      -1.679  11.979  19.020  0.00  0.00    +0.000 A 
ATOM     32  O   UNL     1      -4.051  12.426  19.200  0.00  0.00    +0.000 OA
ATOM     33  C   UNL     1      -5.103  11.513  18.846  0.00  0.00    +0.000 C 
ATOM     34  O   UNL     1      -4.717  10.600  17.792  0.00  0.00    +0.000 OA
ENDBRANCH  25  26
ENDBRANCH  24  25
ENDBRANCH  23  24
ENDBRANCH  21  23
ENDBRANCH  20  21
ENDBRANCH  19  20
ENDBRANCH  18  19
ENDBRANCH   6  18
TORSDOF 10
ENDMDL
MODEL 7
REMARK VINA RESULT:      -7.8      3.137      5.039
REMARK  Name = 
REMARK  14 active torsions:
REMARK  status: ('A' for Active; 'I' for Inactive)
REMARK    1  A    between atoms: C_1  and  C_2
REMARK    2  A    between atoms: C_4  and  C_5
REMARK    3  A    between atoms: N_10  and  C_11
REMARK    4  A    between atoms: C_11  and  C_12
REMARK    5  A    between atoms: C_12  and  C_13
REMARK    6  A    between atoms: C_13  and  N_14
REMARK    7  A    between atoms: N_14  and  C_15
REMARK    8  A    between atoms: N_14  and  C_16
REMARK    9  A    between atoms: C_16  and  C_17
REMARK   10  A    between atoms: C_17  and  O_18
REMARK   11  A    between atoms: O_18  and  C_19
REMARK   12  A    between atoms: C_28  and  C_29
REMARK   13  A    between atoms: C_30  and  C_31
REMARK   14  A    between atoms: C_32  and  O_33
REMARK                            x       y       z     vdW  Elec       q    Type
REMARK                         _______ _______ _______ _____ _____    ______ ____
ROOT
ATOM      1  C   UNL     1       3.968   3.476  18.733  0.00  0.00    +0.000 C 
ATOM      2  S   UNL     1       3.706   1.733  18.297  0.00  0.00    +0.000 S 
ATOM      3  C   UNL     1       1.976   1.742  18.789  0.00  0.00    +0.000 C 
ATOM      4  C   UNL     1       1.595   3.176  19.064  0.00  0.00    +0.000 C 
ATOM      5  O   UNL     1       0.465   3.493  19.434  0.00  0.00    +0.000 OA
ATOM      6  N   UNL     1       2.644   4.064  18.875  0.00  0.00    +0.000 N 
ENDROOT
BRANCH   1  10
ATOM      7  C   UNL     1       5.691   3.697  14.012  0.00  0.00    +0.000 C 
ATOM      8  C   UNL     1       5.742   4.215  15.420  0.00  0.00    +0.000 A 
ATOM      9  C   UNL     1       4.875   3.702  16.389  0.00  0.00    +0.000 A 
ATOM     10  C   UNL     1       4.906   4.138  17.729  0.00  0.00    +0.000 A 
ATOM     11  C   UNL     1       5.881   5.109  18.105  0.00  0.00    +0.000 A 
ATOM     12  C   UNL     1       6.040   5.558  19.542  0.00  0.00    +0.000 C 
ATOM     13  C   UNL     1       6.760   5.652  17.121  0.00  0.00    +0.000 A 
ATOM     14  C   UNL     1       7.812   6.679  17.471  0.00  0.00    +0.000 C 
ATOM     15  C   UNL     1       6.665   5.195  15.793  0.00  0.00    +0.000 A 
BRANCH  15  16
ATOM     16  O   UNL     1       7.483   5.666  14.798  0.00  0.00    +0.000 OA
ATOM     17  H   UNL     1       7.320   5.187  13.973  0.00  0.00    +0.000 HD
ENDBRANCH  15  16
ENDBRANCH   1  10
BRANCH   6  18
ATOM     18  C   UNL     1       2.481   5.455  19.321  0.00  0.00    +0.000 C 
BRANCH  18  19
ATOM     19  C   UNL     1       2.421   6.433  18.144  0.00  0.00    +0.000 C 
BRANCH  19  20
ATOM     20  C   UNL     1       2.579   7.900  18.565  0.00  0.00    +0.000 C 
BRANCH  20  21
ATOM     21  N   UNL     1       1.339   8.586  18.972  0.00  0.00    +0.000 NA
ATOM     22  C   UNL     1       1.274   8.803  20.419  0.00  0.00    +0.000 C 
BRANCH  21  23
ATOM     23  C   UNL     1       1.161   9.884  18.274  0.00  0.00    +0.000 C 
BRANCH  23  24
ATOM     24  C   UNL     1       0.333  10.867  19.105  0.00  0.00    +0.000 C 
BRANCH  24  25
ATOM     25  O   UNL     1       0.421  12.215  18.610  0.00  0.00    +0.000 OA
BRANCH  25  26
ATOM     26  C   UNL     1       1.546  12.839  19.111  0.00  0.00    +0.000 A 
ATOM     27  C   UNL     1       2.424  13.424  18.173  0.00  0.00    +0.000 A 
ATOM     28  C   UNL     1       3.474  14.245  18.611  0.00  0.00    +0.000 A 
ATOM     29  C   UNL     1       3.592  14.462  19.966  0.00  0.00    +0.000 A 
ATOM     30  C   UNL     1       2.784  13.818  20.871  0.00  0.00    +0.000 A 
ATOM     31  C   UNL     1       1.788  12.966  20.479  0.00  0.00    +0.000 A 
ATOM     32  O   UNL     1       3.029  14.194  22.156  0.00  0.00    +0.000 OA
ATOM     33  C   UNL     1       3.855  15.343  21.910  0.00  0.00    +0.000 C 
ATOM     34  O   UNL     1       4.432  15.340  20.583  0.00  0.00    +0.000 OA
ENDBRANCH  25  26
ENDBRANCH  24  25
ENDBRANCH  23  24
ENDBRANCH  21  23
ENDBRANCH  20  21
ENDBRANCH  19  20
ENDBRANCH  18  19
ENDBRANCH   6  18
TORSDOF 10
ENDMDL
MODEL 8
REMARK VINA RESULT:      -7.8      1.015      1.255
REMARK  Name = 
REMARK  14 active torsions:
REMARK  status: ('A' for Active; 'I' for Inactive)
REMARK    1  A    between atoms: C_1  and  C_2
REMARK    2  A    between atoms: C_4  and  C_5
REMARK    3  A    between atoms: N_10  and  C_11
REMARK    4  A    between atoms: C_11  and  C_12
REMARK    5  A    between atoms: C_12  and  C_13
REMARK    6  A    between atoms: C_13  and  N_14
REMARK    7  A    between atoms: N_14  and  C_15
REMARK    8  A    between atoms: N_14  and  C_16
REMARK    9  A    between atoms: C_16  and  C_17
REMARK   10  A    between atoms: C_17  and  O_18
REMARK   11  A    between atoms: O_18  and  C_19
REMARK   12  A    between atoms: C_28  and  C_29
REMARK   13  A    between atoms: C_30  and  C_31
REMARK   14  A    between atoms: C_32  and  O_33
REMARK                            x       y       z     vdW  Elec       q    Type
REMARK                         _______ _______ _______ _____ _____    ______ ____
ROOT
ATOM      1  C   UNL     1       3.998   4.516  19.556  0.00  0.00    +0.000 C 
ATOM      2  S   UNL     1       4.223   2.821  20.165  0.00  0.00    +0.000 S 
ATOM      3  C   UNL     1       2.465   2.552  20.434  0.00  0.00    +0.000 C 
ATOM      4  C   UNL     1       1.733   3.719  19.820  0.00  0.00    +0.000 C 
ATOM      5  O   UNL     1       0.507   3.816  19.859  0.00  0.00    +0.000 OA
ATOM      6  N   UNL     1       2.582   4.651  19.240  0.00  0.00    +0.000 N 
ENDROOT
BRANCH   1  10
ATOM      7  C   UNL     1       7.864   7.260  17.876  0.00  0.00    +0.000 C 
ATOM      8  C   UNL     1       6.859   6.174  17.624  0.00  0.00    +0.000 A 
ATOM      9  C   UNL     1       5.959   5.804  18.628  0.00  0.00    +0.000 A 
ATOM     10  C   UNL     1       4.980   4.809  18.427  0.00  0.00    +0.000 A 
ATOM     11  C   UNL     1       4.892   4.192  17.144  0.00  0.00    +0.000 A 
ATOM     12  C   UNL     1       3.809   3.185  16.822  0.00  0.00    +0.000 C 
ATOM     13  C   UNL     1       5.816   4.550  16.117  0.00  0.00    +0.000 A 
ATOM     14  C   UNL     1       5.759   3.928  14.741  0.00  0.00    +0.000 C 
ATOM     15  C   UNL     1       6.787   5.533  16.385  0.00  0.00    +0.000 A 
BRANCH  15  16
ATOM     16  O   UNL     1       7.701   5.933  15.444  0.00  0.00    +0.000 OA
ATOM     17  H   UNL     1       7.631   5.382  14.652  0.00  0.00    +0.000 HD
ENDBRANCH  15  16
ENDBRANCH   1  10
BRANCH   6  18
ATOM     18  C   UNL     1       2.026   5.940  18.807  0.00  0.00    +0.000 C 
BRANCH  18  19
ATOM     19  C   UNL     1       2.538   7.104  19.660  0.00  0.00    +0.000 C 
BRANCH  19  20
ATOM     20  C   UNL     1       1.535   7.561  20.728  0.00  0.00    +0.000 C 
BRANCH  20  21
ATOM     21  N   UNL     1       0.813   8.812  20.433  0.00  0.00    +0.000 NA
ATOM     22  C   UNL     1       0.900   9.776  21.531  0.00  0.00    +0.000 C 
BRANCH  21  23
ATOM     23  C   UNL     1       1.289   9.453  19.181  0.00  0.00    +0.000 C 
BRANCH  23  24
ATOM     24  C   UNL     1       0.133  10.035  18.366  0.00  0.00    +0.000 C 
BRANCH  24  25
ATOM     25  O   UNL     1      -0.037  11.448  18.583  0.00  0.00    +0.000 OA
BRANCH  25  26
ATOM     26  C   UNL     1      -1.379  11.765  18.657  0.00  0.00    +0.000 A 
ATOM     27  C   UNL     1      -2.203  11.314  17.604  0.00  0.00    +0.000 A 
ATOM     28  C   UNL     1      -3.597  11.421  17.708  0.00  0.00    +0.000 A 
ATOM     29  C   UNL     1      -4.112  11.957  18.868  0.00  0.00    +0.000 A 
ATOM     30  C   UNL     1      -3.296  12.470  19.847  0.00  0.00    +0.000 A 
ATOM     31  C   UNL     1      -1.932  12.435  19.750  0.00  0.00    +0.000 A 
ATOM     32  O   UNL     1      -3.990  12.917  20.929  0.00  0.00    +0.000 OA
ATOM     33  C   UNL     1      -5.277  12.350  20.632  0.00  0.00    +0.000 C 
ATOM     34  O   UNL     1      -5.423  12.004  19.234  0.00  0.00    +0.000 OA
ENDBRANCH  25  26
ENDBRANCH  24  25
ENDBRANCH  23  24
ENDBRANCH  21  23
ENDBRANCH  20  21
ENDBRANCH  19  20
ENDBRANCH  18  19
ENDBRANCH   6  18
TORSDOF 10
ENDMDL
MODEL 9
REMARK VINA RESULT:      -7.7      3.204      4.554
REMARK  Name = 
REMARK  14 active torsions:
REMARK  status: ('A' for Active; 'I' for Inactive)
REMARK    1  A    between atoms: C_1  and  C_2
REMARK    2  A    between atoms: C_4  and  C_5
REMARK    3  A    between atoms: N_10  and  C_11
REMARK    4  A    between atoms: C_11  and  C_12
REMARK    5  A    between atoms: C_12  and  C_13
REMARK    6  A    between atoms: C_13  and  N_14
REMARK    7  A    between atoms: N_14  and  C_15
REMARK    8  A    between atoms: N_14  and  C_16
REMARK    9  A    between atoms: C_16  and  C_17
REMARK   10  A    between atoms: C_17  and  O_18
REMARK   11  A    between atoms: O_18  and  C_19
REMARK   12  A    between atoms: C_28  and  C_29
REMARK   13  A    between atoms: C_30  and  C_31
REMARK   14  A    between atoms: C_32  and  O_33
REMARK                            x       y       z     vdW  Elec       q    Type
REMARK                         _______ _______ _______ _____ _____    ______ ____
ROOT
ATOM      1  C   UNL     1       3.996   4.242  19.652  0.00  0.00    +0.000 C 
ATOM      2  S   UNL     1       4.147   2.465  19.991  0.00  0.00    +0.000 S 
ATOM      3  C   UNL     1       2.383   2.242  20.263  0.00  0.00    +0.000 C 
ATOM      4  C   UNL     1       1.699   3.522  19.852  0.00  0.00    +0.000 C 
ATOM      5  O   UNL     1       0.481   3.669  19.939  0.00  0.00    +0.000 OA
ATOM      6  N   UNL     1       2.584   4.490  19.398  0.00  0.00    +0.000 N 
ENDROOT
BRANCH   1  10
ATOM      7  C   UNL     1       7.995   6.987  18.318  0.00  0.00    +0.000 C 
ATOM      8  C   UNL     1       6.916   6.020  17.925  0.00  0.00    +0.000 A 
ATOM      9  C   UNL     1       6.016   5.545  18.883  0.00  0.00    +0.000 A 
ATOM     10  C   UNL     1       4.970   4.658  18.555  0.00  0.00    +0.000 A 
ATOM     11  C   UNL     1       4.814   4.267  17.192  0.00  0.00    +0.000 A 
ATOM     12  C   UNL     1       3.661   3.395  16.744  0.00  0.00    +0.000 C 
ATOM     13  C   UNL     1       5.736   4.734  16.208  0.00  0.00    +0.000 A 
ATOM     14  C   UNL     1       5.609   4.352  14.751  0.00  0.00    +0.000 C 
ATOM     15  C   UNL     1       6.775   5.598  16.601  0.00  0.00    +0.000 A 
BRANCH  15  16
ATOM     16  O   UNL     1       7.692   6.092  15.708  0.00  0.00    +0.000 OA
ATOM     17  H   UNL     1       7.498   5.773  14.816  0.00  0.00    +0.000 HD
ENDBRANCH  15  16
ENDBRANCH   1  10
BRANCH   6  18
ATOM     18  C   UNL     1       2.085   5.855  19.180  0.00  0.00    +0.000 C 
BRANCH  18  19
ATOM     19  C   UNL     1       1.933   6.629  20.492  0.00  0.00    +0.000 C 
BRANCH  19  20
ATOM     20  C   UNL     1       1.598   8.113  20.288  0.00  0.00    +0.000 C 
BRANCH  20  21
ATOM     21  N   UNL     1       0.652   8.694  21.257  0.00  0.00    +0.000 NA
ATOM     22  C   UNL     1       1.331   9.262  22.424  0.00  0.00    +0.000 C 
BRANCH  21  23
ATOM     23  C   UNL     1      -0.214   9.732  20.643  0.00  0.00    +0.000 C 
BRANCH  23  24
ATOM     24  C   UNL     1       0.571  11.001  20.304  0.00  0.00    +0.000 C 
BRANCH  24  25
ATOM     25  O   UNL     1       0.552  11.301  18.897  0.00  0.00    +0.000 OA
BRANCH  25  26
ATOM     26  C   UNL     1       1.106  12.544  18.663  0.00  0.00    +0.000 A 
ATOM     27  C   UNL     1       0.287  13.666  18.909  0.00  0.00    +0.000 A 
ATOM     28  C   UNL     1       0.838  14.956  18.888  0.00  0.00    +0.000 A 
ATOM     29  C   UNL     1       2.189  15.070  18.642  0.00  0.00    +0.000 A 
ATOM     30  C   UNL     1       2.955  13.976  18.320  0.00  0.00    +0.000 A 
ATOM     31  C   UNL     1       2.435  12.711  18.273  0.00  0.00    +0.000 A 
ATOM     32  O   UNL     1       4.270  14.286  18.150  0.00  0.00    +0.000 OA
ATOM     33  C   UNL     1       4.267  15.616  18.695  0.00  0.00    +0.000 C 
ATOM     34  O   UNL     1       2.943  16.200  18.733  0.00  0.00    +0.000 OA
ENDBRANCH  25  26
ENDBRANCH  24  25
ENDBRANCH  23  24
ENDBRANCH  21  23
ENDBRANCH  20  21
ENDBRANCH  19  20
ENDBRANCH  18  19
ENDBRANCH   6  18
TORSDOF 10
ENDMDL
