MODEL 1
REMARK VINA RESULT:      -7.9      0.000      0.000
REMARK  Name = 
REMARK  10 active torsions:
REMARK  status: ('A' for Active; 'I' for Inactive)
REMARK    1  A    between atoms: C_1  and  N_2
REMARK    2  A    between atoms: N_2  and  C_18
REMARK    3  A    between atoms: C_3  and  C_5
REMARK    4  A    between atoms: C_5  and  O_6
REMARK    5  A    between atoms: O_6  and  C_7
REMARK    6  A    between atoms: C_7  and  C_9
REMARK    7  A    between atoms: C_9  and  C_10
REMARK    8  A    between atoms: C_19  and  N_20
REMARK    9  A    between atoms: N_21  and  C_22
REMARK   10  A    between atoms: C_22  and  C_23
REMARK                            x       y       z     vdW  Elec       q    Type
REMARK                         _______ _______ _______ _____ _____    ______ ____
ROOT
ATOM      1  C   UNL     1       6.362   5.615  17.891  0.00  0.00    +0.000 A 
ATOM      2  C   UNL     1       5.033   5.829  18.037  0.00  0.00    +0.000 A 
ATOM      3  N   UNL     1       4.109   4.919  17.513  0.00  0.00    +0.000 N 
ATOM      4  C   UNL     1       4.485   3.864  16.672  0.00  0.00    +0.000 A 
ATOM      5  O   UNL     1       3.712   3.153  16.050  0.00  0.00    +0.000 OA
ATOM      6  N   UNL     1       5.831   3.637  16.584  0.00  0.00    +0.000 N 
ATOM      7  C   UNL     1       6.822   4.414  17.112  0.00  0.00    +0.000 A 
ATOM      8  O   UNL     1       8.003   4.184  16.890  0.00  0.00    +0.000 OA
ATOM      9  H   UNL     1       6.115   2.866  15.997  0.00  0.00    +0.000 HD
ENDROOT
BRANCH   1  11
ATOM     10  C   UNL     1       8.026   6.038  19.643  0.00  0.00    +0.000 C 
ATOM     11  N   UNL     1       7.351   6.471  18.418  0.00  0.00    +0.000 N 
ATOM     12  C   UNL     1       7.557   7.706  17.798  0.00  0.00    +0.000 C 
ATOM     13  O   UNL     1       6.944   8.039  16.775  0.00  0.00    +0.000 OA
BRANCH  12  14
ATOM     14  C   UNL     1       8.623   8.646  18.388  0.00  0.00    +0.000 C 
BRANCH  14  15
ATOM     15  O   UNL     1       8.328  10.026  18.141  0.00  0.00    +0.000 OA
BRANCH  15  16
ATOM     16  C   UNL     1       9.304  10.867  18.578  0.00  0.00    +0.000 C 
ATOM     17  O   UNL     1      10.280  10.525  19.229  0.00  0.00    +0.000 OA
BRANCH  16  18
ATOM     18  C   UNL     1       9.010  12.293  18.165  0.00  0.00    +0.000 C 
BRANCH  18  19
ATOM     19  C   UNL     1       9.952  13.309  18.768  0.00  0.00    +0.000 A 
ATOM     20  C   UNL     1       9.765  13.798  20.076  0.00  0.00    +0.000 A 
ATOM     21 CL   UNL     1       8.437  13.294  21.065  0.00  0.00    +0.000 Cl
ATOM     22  C   UNL     1      10.673  14.695  20.651  0.00  0.00    +0.000 A 
ATOM     23  C   UNL     1      11.780  15.133  19.931  0.00  0.00    +0.000 A 
ATOM     24  C   UNL     1      11.975  14.679  18.631  0.00  0.00    +0.000 A 
ATOM     25  C   UNL     1      11.069  13.781  18.053  0.00  0.00    +0.000 A 
ATOM     26 CL   UNL     1      11.420  13.263  16.440  0.00  0.00    +0.000 Cl
ENDBRANCH  18  19
ENDBRANCH  16  18
ENDBRANCH  15  16
ENDBRANCH  14  15
ENDBRANCH  12  14
ENDBRANCH   1  11
BRANCH   2  27
ATOM     27  N   UNL     1       4.582   6.978  18.681  0.00  0.00    +0.000 N 
ATOM     28  H   UNL     1       3.666   6.849  19.103  0.00  0.00    +0.000 HD
ATOM     29  H   UNL     1       4.571   7.801  18.084  0.00  0.00    +0.000 HD
ENDBRANCH   2  27
BRANCH   3  30
ATOM     30  C   UNL     1       2.671   5.098  17.794  0.00  0.00    +0.000 C 
BRANCH  30  31
ATOM     31  C   UNL     1       2.123   4.352  19.008  0.00  0.00    +0.000 A 
ATOM     32  C   UNL     1       1.462   3.120  18.827  0.00  0.00    +0.000 A 
ATOM     33  C   UNL     1       1.111   2.322  19.921  0.00  0.00    +0.000 A 
ATOM     34  C   UNL     1       1.431   2.735  21.210  0.00  0.00    +0.000 A 
ATOM     35  C   UNL     1       2.065   3.960  21.408  0.00  0.00    +0.000 A 
ATOM     36  C   UNL     1       2.393   4.769  20.317  0.00  0.00    +0.000 A 
ENDBRANCH  30  31
ENDBRANCH   3  30
TORSDOF 9
ENDMDL
MODEL 2
REMARK VINA RESULT:      -7.8      1.258      1.552
REMARK  Name = 
REMARK  10 active torsions:
REMARK  status: ('A' for Active; 'I' for Inactive)
REMARK    1  A    between atoms: C_1  and  N_2
REMARK    2  A    between atoms: N_2  and  C_18
REMARK    3  A    between atoms: C_3  and  C_5
REMARK    4  A    between atoms: C_5  and  O_6
REMARK    5  A    between atoms: O_6  and  C_7
REMARK    6  A    between atoms: C_7  and  C_9
REMARK    7  A    between atoms: C_9  and  C_10
REMARK    8  A    between atoms: C_19  and  N_20
REMARK    9  A    between atoms: N_21  and  C_22
REMARK   10  A    between atoms: C_22  and  C_23
REMARK                            x       y       z     vdW  Elec       q    Type
REMARK                         _______ _______ _______ _____ _____    ______ ____
ROOT
ATOM      1  C   UNL     1       6.392   5.455  17.865  0.00  0.00    +0.000 A 
ATOM      2  C   UNL     1       5.065   5.534  18.125  0.00  0.00    +0.000 A 
ATOM      3  N   UNL     1       4.169   4.664  17.494  0.00  0.00    +0.000 N 
ATOM      4  C   UNL     1       4.553   3.813  16.451  0.00  0.00    +0.000 A 
ATOM      5  O   UNL     1       3.787   3.170  15.752  0.00  0.00    +0.000 OA
ATOM      6  N   UNL     1       5.902   3.713  16.244  0.00  0.00    +0.000 N 
ATOM      7  C   UNL     1       6.874   4.456  16.850  0.00  0.00    +0.000 A 
ATOM      8  O   UNL     1       8.049   4.364  16.521  0.00  0.00    +0.000 OA
ATOM      9  H   UNL     1       6.194   3.087  15.508  0.00  0.00    +0.000 HD
ENDROOT
BRANCH   1  11
ATOM     10  C   UNL     1       7.964   5.777  19.721  0.00  0.00    +0.000 C 
ATOM     11  N   UNL     1       7.357   6.276  18.485  0.00  0.00    +0.000 N 
ATOM     12  C   UNL     1       7.602   7.538  17.939  0.00  0.00    +0.000 C 
ATOM     13  O   UNL     1       7.046   7.927  16.904  0.00  0.00    +0.000 OA
BRANCH  12  14
ATOM     14  C   UNL     1       8.640   8.438  18.631  0.00  0.00    +0.000 C 
BRANCH  14  15
ATOM     15  O   UNL     1       8.659   9.764  18.088  0.00  0.00    +0.000 OA
BRANCH  15  16
ATOM     16  C   UNL     1       9.447  10.620  18.793  0.00  0.00    +0.000 C 
ATOM     17  O   UNL     1       9.707  10.509  19.982  0.00  0.00    +0.000 OA
BRANCH  16  18
ATOM     18  C   UNL     1       9.947  11.742  17.910  0.00  0.00    +0.000 C 
BRANCH  18  19
ATOM     19  C   UNL     1       9.818  13.112  18.535  0.00  0.00    +0.000 A 
ATOM     20  C   UNL     1      10.848  13.656  19.328  0.00  0.00    +0.000 A 
ATOM     21 CL   UNL     1      12.307  12.788  19.662  0.00  0.00    +0.000 Cl
ATOM     22  C   UNL     1      10.750  14.948  19.857  0.00  0.00    +0.000 A 
ATOM     23  C   UNL     1       9.619  15.722  19.617  0.00  0.00    +0.000 A 
ATOM     24  C   UNL     1       8.581  15.200  18.854  0.00  0.00    +0.000 A 
ATOM     25  C   UNL     1       8.676  13.907  18.322  0.00  0.00    +0.000 A 
ATOM     26 CL   UNL     1       7.338  13.365  17.367  0.00  0.00    +0.000 Cl
ENDBRANCH  18  19
ENDBRANCH  16  18
ENDBRANCH  15  16
ENDBRANCH  14  15
ENDBRANCH  12  14
ENDBRANCH   1  11
BRANCH   2  27
ATOM     27  N   UNL     1       4.586   6.506  18.997  0.00  0.00    +0.000 N 
ATOM     28  H   UNL     1       4.742   6.262  19.972  0.00  0.00    +0.000 HD
ATOM     29  H   UNL     1       3.604   6.732  18.855  0.00  0.00    +0.000 HD
ENDBRANCH   2  27
BRANCH   3  30
ATOM     30  C   UNL     1       2.746   4.676  17.886  0.00  0.00    +0.000 C 
BRANCH  30  31
ATOM     31  C   UNL     1       2.379   3.852  19.119  0.00  0.00    +0.000 A 
ATOM     32  C   UNL     1       3.381   3.121  19.789  0.00  0.00    +0.000 A 
ATOM     33  C   UNL     1       3.124   2.508  21.020  0.00  0.00    +0.000 A 
ATOM     34  C   UNL     1       1.868   2.631  21.606  0.00  0.00    +0.000 A 
ATOM     35  C   UNL     1       0.861   3.331  20.946  0.00  0.00    +0.000 A 
ATOM     36  C   UNL     1       1.109   3.924  19.704  0.00  0.00    +0.000 A 
ENDBRANCH  30  31
ENDBRANCH   3  30
TORSDOF 9
ENDMDL
MODEL 3
REMARK VINA RESULT:      -7.7      0.607      1.529
REMARK  Name = 
REMARK  10 active torsions:
REMARK  status: ('A' for Active; 'I' for Inactive)
REMARK    1  A    between atoms: C_1  and  N_2
REMARK    2  A    between atoms: N_2  and  C_18
REMARK    3  A    between atoms: C_3  and  C_5
REMARK    4  A    between atoms: C_5  and  O_6
REMARK    5  A    between atoms: O_6  and  C_7
REMARK    6  A    between atoms: C_7  and  C_9
REMARK    7  A    between atoms: C_9  and  C_10
REMARK    8  A    between atoms: C_19  and  N_20
REMARK    9  A    between atoms: N_21  and  C_22
REMARK   10  A    between atoms: C_22  and  C_23
REMARK                            x       y       z     vdW  Elec       q    Type
REMARK                         _______ _______ _______ _____ _____    ______ ____
ROOT
ATOM      1  C   UNL     1       6.353   5.578  17.908  0.00  0.00    +0.000 A 
ATOM      2  C   UNL     1       5.029   5.805  18.077  0.00  0.00    +0.000 A 
ATOM      3  N   UNL     1       4.085   4.945  17.505  0.00  0.00    +0.000 N 
ATOM      4  C   UNL     1       4.437   3.937  16.599  0.00  0.00    +0.000 A 
ATOM      5  O   UNL     1       3.648   3.280  15.940  0.00  0.00    +0.000 OA
ATOM      6  N   UNL     1       5.779   3.693  16.487  0.00  0.00    +0.000 N 
ATOM      7  C   UNL     1       6.786   4.418  17.054  0.00  0.00    +0.000 A 
ATOM      8  O   UNL     1       7.962   4.182  16.809  0.00  0.00    +0.000 OA
ATOM      9  H   UNL     1       6.045   2.955  15.851  0.00  0.00    +0.000 HD
ENDROOT
BRANCH   1  11
ATOM     10  C   UNL     1       7.994   5.890  19.705  0.00  0.00    +0.000 C 
ATOM     11  N   UNL     1       7.361   6.382  18.480  0.00  0.00    +0.000 N 
ATOM     12  C   UNL     1       7.623   7.626  17.900  0.00  0.00    +0.000 C 
ATOM     13  O   UNL     1       7.044   8.010  16.876  0.00  0.00    +0.000 OA
BRANCH  12  14
ATOM     14  C   UNL     1       8.709   8.509  18.539  0.00  0.00    +0.000 C 
BRANCH  14  15
ATOM     15  O   UNL     1       8.724   9.833  17.991  0.00  0.00    +0.000 OA
BRANCH  15  16
ATOM     16  C   UNL     1       9.069  10.784  18.901  0.00  0.00    +0.000 C 
ATOM     17  O   UNL     1       9.404  10.557  20.055  0.00  0.00    +0.000 OA
BRANCH  16  18
ATOM     18  C   UNL     1       8.964  12.168  18.299  0.00  0.00    +0.000 C 
BRANCH  18  19
ATOM     19  C   UNL     1       9.846  13.194  18.972  0.00  0.00    +0.000 A 
ATOM     20  C   UNL     1      11.245  13.180  18.805  0.00  0.00    +0.000 A 
ATOM     21 CL   UNL     1      12.046  11.980  17.850  0.00  0.00    +0.000 Cl
ATOM     22  C   UNL     1      12.054  14.166  19.382  0.00  0.00    +0.000 A 
ATOM     23  C   UNL     1      11.488  15.180  20.148  0.00  0.00    +0.000 A 
ATOM     24  C   UNL     1      10.111  15.204  20.343  0.00  0.00    +0.000 A 
ATOM     25  C   UNL     1       9.298  14.219  19.767  0.00  0.00    +0.000 A 
ATOM     26 CL   UNL     1       7.597  14.357  20.052  0.00  0.00    +0.000 Cl
ENDBRANCH  18  19
ENDBRANCH  16  18
ENDBRANCH  15  16
ENDBRANCH  14  15
ENDBRANCH  12  14
ENDBRANCH   1  11
BRANCH   2  27
ATOM     27  N   UNL     1       4.602   6.919  18.795  0.00  0.00    +0.000 N 
ATOM     28  H   UNL     1       5.139   7.752  18.569  0.00  0.00    +0.000 HD
ATOM     29  H   UNL     1       4.598   6.777  19.802  0.00  0.00    +0.000 HD
ENDBRANCH   2  27
BRANCH   3  30
ATOM     30  C   UNL     1       2.653   5.131  17.808  0.00  0.00    +0.000 C 
BRANCH  30  31
ATOM     31  C   UNL     1       2.109   4.351  19.003  0.00  0.00    +0.000 A 
ATOM     32  C   UNL     1       1.459   3.118  18.790  0.00  0.00    +0.000 A 
ATOM     33  C   UNL     1       1.113   2.291  19.864  0.00  0.00    +0.000 A 
ATOM     34  C   UNL     1       1.427   2.676  21.163  0.00  0.00    +0.000 A 
ATOM     35  C   UNL     1       2.049   3.901  21.392  0.00  0.00    +0.000 A 
ATOM     36  C   UNL     1       2.373   4.740  20.322  0.00  0.00    +0.000 A 
ENDBRANCH  30  31
ENDBRANCH   3  30
TORSDOF 9
ENDMDL
MODEL 4
REMARK VINA RESULT:      -7.7      0.762      1.982
REMARK  Name = 
REMARK  10 active torsions:
REMARK  status: ('A' for Active; 'I' for Inactive)
REMARK    1  A    between atoms: C_1  and  N_2
REMARK    2  A    between atoms: N_2  and  C_18
REMARK    3  A    between atoms: C_3  and  C_5
REMARK    4  A    between atoms: C_5  and  O_6
REMARK    5  A    between atoms: O_6  and  C_7
REMARK    6  A    between atoms: C_7  and  C_9
REMARK    7  A    between atoms: C_9  and  C_10
REMARK    8  A    between atoms: C_19  and  N_20
REMARK    9  A    between atoms: N_21  and  C_22
REMARK   10  A    between atoms: C_22  and  C_23
REMARK                            x       y       z     vdW  Elec       q    Type
REMARK                         _______ _______ _______ _____ _____    ______ ____
ROOT
ATOM      1  C   UNL     1       6.525   5.625  17.860  0.00  0.00    +0.000 A 
ATOM      2  C   UNL     1       5.197   5.830  18.025  0.00  0.00    +0.000 A 
ATOM      3  N   UNL     1       4.269   4.964  17.436  0.00  0.00    +0.000 N 
ATOM      4  C   UNL     1       4.640   3.975  16.517  0.00  0.00    +0.000 A 
ATOM      5  O   UNL     1       3.864   3.316  15.845  0.00  0.00    +0.000 OA
ATOM      6  N   UNL     1       5.986   3.753  16.409  0.00  0.00    +0.000 N 
ATOM      7  C   UNL     1       6.980   4.484  16.992  0.00  0.00    +0.000 A 
ATOM      8  O   UNL     1       8.160   4.269  16.750  0.00  0.00    +0.000 OA
ATOM      9  H   UNL     1       6.266   3.027  15.764  0.00  0.00    +0.000 HD
ENDROOT
BRANCH   1  11
ATOM     10  C   UNL     1       8.148   5.939  19.673  0.00  0.00    +0.000 C 
ATOM     11  N   UNL     1       7.517   6.436  18.448  0.00  0.00    +0.000 N 
ATOM     12  C   UNL     1       7.768   7.690  17.884  0.00  0.00    +0.000 C 
ATOM     13  O   UNL     1       7.192   8.077  16.860  0.00  0.00    +0.000 OA
BRANCH  12  14
ATOM     14  C   UNL     1       8.837   8.580  18.541  0.00  0.00    +0.000 C 
BRANCH  14  15
ATOM     15  O   UNL     1       8.312   9.848  18.950  0.00  0.00    +0.000 OA
BRANCH  15  16
ATOM     16  C   UNL     1       8.998  10.903  18.431  0.00  0.00    +0.000 C 
ATOM     17  O   UNL     1       8.595  11.621  17.529  0.00  0.00    +0.000 OA
BRANCH  16  18
ATOM     18  C   UNL     1      10.342  11.057  19.111  0.00  0.00    +0.000 C 
BRANCH  18  19
ATOM     19  C   UNL     1      10.611  12.454  19.619  0.00  0.00    +0.000 A 
ATOM     20  C   UNL     1      11.393  13.365  18.880  0.00  0.00    +0.000 A 
ATOM     21 CL   UNL     1      12.116  12.940  17.366  0.00  0.00    +0.000 Cl
ATOM     22  C   UNL     1      11.592  14.677  19.325  0.00  0.00    +0.000 A 
ATOM     23  C   UNL     1      11.027  15.107  20.522  0.00  0.00    +0.000 A 
ATOM     24  C   UNL     1      10.268  14.220  21.278  0.00  0.00    +0.000 A 
ATOM     25  C   UNL     1      10.066  12.906  20.835  0.00  0.00    +0.000 A 
ATOM     26 CL   UNL     1       9.086  11.895  21.840  0.00  0.00    +0.000 Cl
ENDBRANCH  18  19
ENDBRANCH  16  18
ENDBRANCH  15  16
ENDBRANCH  14  15
ENDBRANCH  12  14
ENDBRANCH   1  11
BRANCH   2  27
ATOM     27  N   UNL     1       4.750   6.928  18.756  0.00  0.00    +0.000 N 
ATOM     28  H   UNL     1       3.974   6.694  19.369  0.00  0.00    +0.000 HD
ATOM     29  H   UNL     1       4.499   7.727  18.177  0.00  0.00    +0.000 HD
ENDBRANCH   2  27
BRANCH   3  30
ATOM     30  C   UNL     1       2.832   5.125  17.733  0.00  0.00    +0.000 C 
BRANCH  30  31
ATOM     31  C   UNL     1       2.270   4.239  18.842  0.00  0.00    +0.000 A 
ATOM     32  C   UNL     1       2.535   4.559  20.189  0.00  0.00    +0.000 A 
ATOM     33  C   UNL     1       1.890   3.884  21.231  0.00  0.00    +0.000 A 
ATOM     34  C   UNL     1       0.958   2.894  20.942  0.00  0.00    +0.000 A 
ATOM     35  C   UNL     1       0.700   2.550  19.616  0.00  0.00    +0.000 A 
ATOM     36  C   UNL     1       1.362   3.207  18.575  0.00  0.00    +0.000 A 
ENDBRANCH  30  31
ENDBRANCH   3  30
TORSDOF 9
ENDMDL
MODEL 5
REMARK VINA RESULT:      -7.6      8.384     11.347
REMARK  Name = 
REMARK  10 active torsions:
REMARK  status: ('A' for Active; 'I' for Inactive)
REMARK    1  A    between atoms: C_1  and  N_2
REMARK    2  A    between atoms: N_2  and  C_18
REMARK    3  A    between atoms: C_3  and  C_5
REMARK    4  A    between atoms: C_5  and  O_6
REMARK    5  A    between atoms: O_6  and  C_7
REMARK    6  A    between atoms: C_7  and  C_9
REMARK    7  A    between atoms: C_9  and  C_10
REMARK    8  A    between atoms: C_19  and  N_20
REMARK    9  A    between atoms: N_21  and  C_22
REMARK   10  A    between atoms: C_22  and  C_23
REMARK                            x       y       z     vdW  Elec       q    Type
REMARK                         _______ _______ _______ _____ _____    ______ ____
ROOT
ATOM      1  C   UNL     1      -1.043  11.657  21.283  0.00  0.00    +0.000 A 
ATOM      2  C   UNL     1      -2.118  12.327  20.804  0.00  0.00    +0.000 A 
ATOM      3  N   UNL     1      -3.158  12.702  21.662  0.00  0.00    +0.000 N 
ATOM      4  C   UNL     1      -3.235  12.259  22.989  0.00  0.00    +0.000 A 
ATOM      5  O   UNL     1      -4.199  12.407  23.722  0.00  0.00    +0.000 OA
ATOM      6  N   UNL     1      -2.116  11.632  23.463  0.00  0.00    +0.000 N 
ATOM      7  C   UNL     1      -1.014  11.280  22.738  0.00  0.00    +0.000 A 
ATOM      8  O   UNL     1      -0.104  10.626  23.232  0.00  0.00    +0.000 OA
ATOM      9  H   UNL     1      -2.151  11.325  24.424  0.00  0.00    +0.000 HD
ENDROOT
BRANCH   1  11
ATOM     10  C   UNL     1       1.135  12.251  20.322  0.00  0.00    +0.000 C 
ATOM     11  N   UNL     1       0.055  11.275  20.485  0.00  0.00    +0.000 N 
ATOM     12  C   UNL     1       0.002  10.041  19.833  0.00  0.00    +0.000 C 
ATOM     13  O   UNL     1      -0.944   9.257  19.984  0.00  0.00    +0.000 OA
BRANCH  12  14
ATOM     14  C   UNL     1       1.193   9.636  18.948  0.00  0.00    +0.000 C 
BRANCH  14  15
ATOM     15  O   UNL     1       1.909   8.515  19.479  0.00  0.00    +0.000 OA
BRANCH  15  16
ATOM     16  C   UNL     1       2.450   7.721  18.515  0.00  0.00    +0.000 C 
ATOM     17  O   UNL     1       2.292   7.877  17.313  0.00  0.00    +0.000 OA
BRANCH  16  18
ATOM     18  C   UNL     1       3.261   6.602  19.132  0.00  0.00    +0.000 C 
BRANCH  18  19
ATOM     19  C   UNL     1       2.928   5.234  18.583  0.00  0.00    +0.000 A 
ATOM     20  C   UNL     1       3.619   4.700  17.477  0.00  0.00    +0.000 A 
ATOM     21 CL   UNL     1       4.866   5.578  16.660  0.00  0.00    +0.000 Cl
ATOM     22  C   UNL     1       3.348   3.409  17.007  0.00  0.00    +0.000 A 
ATOM     23  C   UNL     1       2.375   2.627  17.622  0.00  0.00    +0.000 A 
ATOM     24  C   UNL     1       1.666   3.140  18.703  0.00  0.00    +0.000 A 
ATOM     25  C   UNL     1       1.935   4.431  19.176  0.00  0.00    +0.000 A 
ATOM     26 CL   UNL     1       1.013   4.961  20.541  0.00  0.00    +0.000 Cl
ENDBRANCH  18  19
ENDBRANCH  16  18
ENDBRANCH  15  16
ENDBRANCH  14  15
ENDBRANCH  12  14
ENDBRANCH   1  11
BRANCH   2  27
ATOM     27  N   UNL     1      -2.207  12.615  19.445  0.00  0.00    +0.000 N 
ATOM     28  H   UNL     1      -2.636  13.520  19.269  0.00  0.00    +0.000 HD
ATOM     29  H   UNL     1      -2.689  11.898  18.908  0.00  0.00    +0.000 HD
ENDBRANCH   2  27
BRANCH   3  30
ATOM     30  C   UNL     1      -4.257  13.544  21.151  0.00  0.00    +0.000 C 
BRANCH  30  31
ATOM     31  C   UNL     1      -5.573  12.829  20.856  0.00  0.00    +0.000 A 
ATOM     32  C   UNL     1      -5.632  11.883  19.813  0.00  0.00    +0.000 A 
ATOM     33  C   UNL     1      -6.762  11.078  19.632  0.00  0.00    +0.000 A 
ATOM     34  C   UNL     1      -7.841  11.195  20.502  0.00  0.00    +0.000 A 
ATOM     35  C   UNL     1      -7.808  12.140  21.525  0.00  0.00    +0.000 A 
ATOM     36  C   UNL     1      -6.690  12.962  21.691  0.00  0.00    +0.000 A 
ENDBRANCH  30  31
ENDBRANCH   3  30
TORSDOF 9
ENDMDL
MODEL 6
REMARK VINA RESULT:      -7.5      8.025     11.033
REMARK  Name = 
REMARK  10 active torsions:
REMARK  status: ('A' for Active; 'I' for Inactive)
REMARK    1  A    between atoms: C_1  and  N_2
REMARK    2  A    between atoms: N_2  and  C_18
REMARK    3  A    between atoms: C_3  and  C_5
REMARK    4  A    between atoms: C_5  and  O_6
REMARK    5  A    between atoms: O_6  and  C_7
REMARK    6  A    between atoms: C_7  and  C_9
REMARK    7  A    between atoms: C_9  and  C_10
REMARK    8  A    between atoms: C_19  and  N_20
REMARK    9  A    between atoms: N_21  and  C_22
REMARK   10  A    between atoms: C_22  and  C_23
REMARK                            x       y       z     vdW  Elec       q    Type
REMARK                         _______ _______ _______ _____ _____    ______ ____
ROOT
ATOM      1  C   UNL     1      -1.236  10.971  19.414  0.00  0.00    +0.000 A 
ATOM      2  C   UNL     1      -1.682  11.998  20.176  0.00  0.00    +0.000 A 
ATOM      3  N   UNL     1      -2.986  12.480  20.019  0.00  0.00    +0.000 N 
ATOM      4  C   UNL     1      -3.820  12.069  18.972  0.00  0.00    +0.000 A 
ATOM      5  O   UNL     1      -4.890  12.581  18.685  0.00  0.00    +0.000 OA
ATOM      6  N   UNL     1      -3.369  10.997  18.251  0.00  0.00    +0.000 N 
ATOM      7  C   UNL     1      -2.148  10.398  18.364  0.00  0.00    +0.000 A 
ATOM      8  O   UNL     1      -1.797   9.509  17.600  0.00  0.00    +0.000 OA
ATOM      9  H   UNL     1      -3.971  10.678  17.506  0.00  0.00    +0.000 HD
ENDROOT
BRANCH   1  11
ATOM     10  C   UNL     1       1.076  10.880  18.599  0.00  0.00    +0.000 C 
ATOM     11  N   UNL     1       0.053  10.413  19.537  0.00  0.00    +0.000 N 
ATOM     12  C   UNL     1       0.246   9.394  20.473  0.00  0.00    +0.000 C 
ATOM     13  O   UNL     1      -0.656   9.016  21.230  0.00  0.00    +0.000 OA
BRANCH  12  14
ATOM     14  C   UNL     1       1.649   8.774  20.591  0.00  0.00    +0.000 C 
BRANCH  14  15
ATOM     15  O   UNL     1       1.638   7.359  20.367  0.00  0.00    +0.000 OA
BRANCH  15  16
ATOM     16  C   UNL     1       2.462   6.971  19.356  0.00  0.00    +0.000 C 
ATOM     17  O   UNL     1       2.485   7.476  18.243  0.00  0.00    +0.000 OA
BRANCH  16  18
ATOM     18  C   UNL     1       3.335   5.813  19.787  0.00  0.00    +0.000 C 
BRANCH  18  19
ATOM     19  C   UNL     1       3.066   4.532  19.032  0.00  0.00    +0.000 A 
ATOM     20  C   UNL     1       2.030   3.658  19.416  0.00  0.00    +0.000 A 
ATOM     21 CL   UNL     1       1.021   3.973  20.786  0.00  0.00    +0.000 Cl
ATOM     22  C   UNL     1       1.747   2.502  18.680  0.00  0.00    +0.000 A 
ATOM     23  C   UNL     1       2.497   2.186  17.551  0.00  0.00    +0.000 A 
ATOM     24  C   UNL     1       3.537   3.024  17.163  0.00  0.00    +0.000 A 
ATOM     25  C   UNL     1       3.823   4.181  17.898  0.00  0.00    +0.000 A 
ATOM     26 CL   UNL     1       5.121   5.165  17.314  0.00  0.00    +0.000 Cl
ENDBRANCH  18  19
ENDBRANCH  16  18
ENDBRANCH  15  16
ENDBRANCH  14  15
ENDBRANCH  12  14
ENDBRANCH   1  11
BRANCH   2  27
ATOM     27  N   UNL     1      -0.830  12.600  21.097  0.00  0.00    +0.000 N 
ATOM     28  H   UNL     1      -0.245  13.315  20.672  0.00  0.00    +0.000 HD
ATOM     29  H   UNL     1      -0.247  11.938  21.605  0.00  0.00    +0.000 HD
ENDBRANCH   2  27
BRANCH   3  30
ATOM     30  C   UNL     1      -3.498  13.509  20.945  0.00  0.00    +0.000 C 
BRANCH  30  31
ATOM     31  C   UNL     1      -4.281  13.000  22.153  0.00  0.00    +0.000 A 
ATOM     32  C   UNL     1      -3.596  12.696  23.348  0.00  0.00    +0.000 A 
ATOM     33  C   UNL     1      -4.294  12.405  24.525  0.00  0.00    +0.000 A 
ATOM     34  C   UNL     1      -5.684  12.431  24.530  0.00  0.00    +0.000 A 
ATOM     35  C   UNL     1      -6.377  12.707  23.353  0.00  0.00    +0.000 A 
ATOM     36  C   UNL     1      -5.681  12.973  22.170  0.00  0.00    +0.000 A 
ENDBRANCH  30  31
ENDBRANCH   3  30
TORSDOF 9
ENDMDL
MODEL 7
REMARK VINA RESULT:      -7.4      5.922      8.223
REMARK  Name = 
REMARK  10 active torsions:
REMARK  status: ('A' for Active; 'I' for Inactive)
REMARK    1  A    between atoms: C_1  and  N_2
REMARK    2  A    between atoms: N_2  and  C_18
REMARK    3  A    between atoms: C_3  and  C_5
REMARK    4  A    between atoms: C_5  and  O_6
REMARK    5  A    between atoms: O_6  and  C_7
REMARK    6  A    between atoms: C_7  and  C_9
REMARK    7  A    between atoms: C_9  and  C_10
REMARK    8  A    between atoms: C_19  and  N_20
REMARK    9  A    between atoms: N_21  and  C_22
REMARK   10  A    between atoms: C_22  and  C_23
REMARK                            x       y       z     vdW  Elec       q    Type
REMARK                         _______ _______ _______ _____ _____    ______ ____
ROOT
ATOM      1  C   UNL     1       4.547   5.630  17.681  0.00  0.00    +0.000 A 
ATOM      2  C   UNL     1       5.386   5.908  16.656  0.00  0.00    +0.000 A 
ATOM      3  N   UNL     1       6.643   5.296  16.584  0.00  0.00    +0.000 N 
ATOM      4  C   UNL     1       7.166   4.527  17.630  0.00  0.00    +0.000 A 
ATOM      5  O   UNL     1       8.315   4.121  17.695  0.00  0.00    +0.000 OA
ATOM      6  N   UNL     1       6.282   4.217  18.628  0.00  0.00    +0.000 N 
ATOM      7  C   UNL     1       5.011   4.695  18.764  0.00  0.00    +0.000 A 
ATOM      8  O   UNL     1       4.332   4.439  19.750  0.00  0.00    +0.000 OA
ATOM      9  H   UNL     1       6.642   3.646  19.379  0.00  0.00    +0.000 HD
ENDROOT
BRANCH   1  11
ATOM     10  C   UNL     1       2.123   5.257  17.746  0.00  0.00    +0.000 C 
ATOM     11  N   UNL     1       3.256   6.183  17.803  0.00  0.00    +0.000 N 
ATOM     12  C   UNL     1       3.136   7.573  17.876  0.00  0.00    +0.000 C 
ATOM     13  O   UNL     1       4.123   8.319  17.898  0.00  0.00    +0.000 OA
BRANCH  12  14
ATOM     14  C   UNL     1       1.724   8.174  17.989  0.00  0.00    +0.000 C 
BRANCH  14  15
ATOM     15  O   UNL     1       1.684   9.549  17.587  0.00  0.00    +0.000 OA
BRANCH  15  16
ATOM     16  C   UNL     1       1.231  10.379  18.565  0.00  0.00    +0.000 C 
ATOM     17  O   UNL     1       1.712  11.470  18.832  0.00  0.00    +0.000 OA
BRANCH  16  18
ATOM     18  C   UNL     1       0.058   9.761  19.294  0.00  0.00    +0.000 C 
BRANCH  18  19
ATOM     19  C   UNL     1      -0.538  10.654  20.357  0.00  0.00    +0.000 A 
ATOM     20  C   UNL     1      -1.456  11.672  20.030  0.00  0.00    +0.000 A 
ATOM     21 CL   UNL     1      -1.938  11.986  18.398  0.00  0.00    +0.000 Cl
ATOM     22  C   UNL     1      -2.050  12.459  21.023  0.00  0.00    +0.000 A 
ATOM     23  C   UNL     1      -1.734  12.257  22.363  0.00  0.00    +0.000 A 
ATOM     24  C   UNL     1      -0.816  11.271  22.709  0.00  0.00    +0.000 A 
ATOM     25  C   UNL     1      -0.220  10.481  21.718  0.00  0.00    +0.000 A 
ATOM     26 CL   UNL     1       0.889   9.268  22.260  0.00  0.00    +0.000 Cl
ENDBRANCH  18  19
ENDBRANCH  16  18
ENDBRANCH  15  16
ENDBRANCH  14  15
ENDBRANCH  12  14
ENDBRANCH   1  11
BRANCH   2  27
ATOM     27  N   UNL     1       5.013   6.834  15.685  0.00  0.00    +0.000 N 
ATOM     28  H   UNL     1       5.814   7.238  15.208  0.00  0.00    +0.000 HD
ATOM     29  H   UNL     1       4.416   7.577  16.040  0.00  0.00    +0.000 HD
ENDBRANCH   2  27
BRANCH   3  30
ATOM     30  C   UNL     1       7.489   5.509  15.394  0.00  0.00    +0.000 C 
BRANCH  30  31
ATOM     31  C   UNL     1       7.112   4.714  14.146  0.00  0.00    +0.000 A 
ATOM     32  C   UNL     1       6.010   3.837  14.188  0.00  0.00    +0.000 A 
ATOM     33  C   UNL     1       5.523   3.235  13.023  0.00  0.00    +0.000 A 
ATOM     34  C   UNL     1       6.120   3.514  11.798  0.00  0.00    +0.000 A 
ATOM     35  C   UNL     1       7.225   4.361  11.742  0.00  0.00    +0.000 A 
ATOM     36  C   UNL     1       7.727   4.944  12.910  0.00  0.00    +0.000 A 
ENDBRANCH  30  31
ENDBRANCH   3  30
TORSDOF 9
ENDMDL
MODEL 8
REMARK VINA RESULT:      -7.4      7.999     11.131
REMARK  Name = 
REMARK  10 active torsions:
REMARK  status: ('A' for Active; 'I' for Inactive)
REMARK    1  A    between atoms: C_1  and  N_2
REMARK    2  A    between atoms: N_2  and  C_18
REMARK    3  A    between atoms: C_3  and  C_5
REMARK    4  A    between atoms: C_5  and  O_6
REMARK    5  A    between atoms: O_6  and  C_7
REMARK    6  A    between atoms: C_7  and  C_9
REMARK    7  A    between atoms: C_9  and  C_10
REMARK    8  A    between atoms: C_19  and  N_20
REMARK    9  A    between atoms: N_21  and  C_22
REMARK   10  A    between atoms: C_22  and  C_23
REMARK                            x       y       z     vdW  Elec       q    Type
REMARK                         _______ _______ _______ _____ _____    ______ ____
ROOT
ATOM      1  C   UNL     1      -1.213  10.914  19.441  0.00  0.00    +0.000 A 
ATOM      2  C   UNL     1      -1.620  11.937  20.229  0.00  0.00    +0.000 A 
ATOM      3  N   UNL     1      -2.907  12.470  20.087  0.00  0.00    +0.000 N 
ATOM      4  C   UNL     1      -3.757  12.114  19.033  0.00  0.00    +0.000 A 
ATOM      5  O   UNL     1      -4.808  12.671  18.761  0.00  0.00    +0.000 OA
ATOM      6  N   UNL     1      -3.346  11.044  18.286  0.00  0.00    +0.000 N 
ATOM      7  C   UNL     1      -2.147  10.400  18.381  0.00  0.00    +0.000 A 
ATOM      8  O   UNL     1      -1.830   9.516  17.595  0.00  0.00    +0.000 OA
ATOM      9  H   UNL     1      -3.960  10.765  17.534  0.00  0.00    +0.000 HD
ENDROOT
BRANCH   1  11
ATOM     10  C   UNL     1       1.073  10.711  18.575  0.00  0.00    +0.000 C 
ATOM     11  N   UNL     1       0.055  10.307  19.547  0.00  0.00    +0.000 N 
ATOM     12  C   UNL     1       0.231   9.303  20.503  0.00  0.00    +0.000 C 
ATOM     13  O   UNL     1      -0.667   8.979  21.289  0.00  0.00    +0.000 OA
BRANCH  12  14
ATOM     14  C   UNL     1       1.611   8.629  20.602  0.00  0.00    +0.000 C 
BRANCH  14  15
ATOM     15  O   UNL     1       1.606   7.301  20.065  0.00  0.00    +0.000 OA
BRANCH  15  16
ATOM     16  C   UNL     1       2.586   7.094  19.144  0.00  0.00    +0.000 C 
ATOM     17  O   UNL     1       2.742   7.758  18.130  0.00  0.00    +0.000 OA
BRANCH  16  18
ATOM     18  C   UNL     1       3.448   5.913  19.532  0.00  0.00    +0.000 C 
BRANCH  18  19
ATOM     19  C   UNL     1       3.031   4.613  18.883  0.00  0.00    +0.000 A 
ATOM     20  C   UNL     1       3.496   4.250  17.604  0.00  0.00    +0.000 A 
ATOM     21 CL   UNL     1       4.547   5.271  16.683  0.00  0.00    +0.000 Cl
ATOM     22  C   UNL     1       3.154   3.020  17.030  0.00  0.00    +0.000 A 
ATOM     23  C   UNL     1       2.331   2.130  17.714  0.00  0.00    +0.000 A 
ATOM     24  C   UNL     1       1.843   2.475  18.970  0.00  0.00    +0.000 A 
ATOM     25  C   UNL     1       2.184   3.705  19.547  0.00  0.00    +0.000 A 
ATOM     26 CL   UNL     1       1.543   4.023  21.122  0.00  0.00    +0.000 Cl
ENDBRANCH  18  19
ENDBRANCH  16  18
ENDBRANCH  15  16
ENDBRANCH  14  15
ENDBRANCH  12  14
ENDBRANCH   1  11
BRANCH   2  27
ATOM     27  N   UNL     1      -0.745  12.486  21.161  0.00  0.00    +0.000 N 
ATOM     28  H   UNL     1      -0.144  13.198  20.755  0.00  0.00    +0.000 HD
ATOM     29  H   UNL     1      -0.176  11.793  21.643  0.00  0.00    +0.000 HD
ENDBRANCH   2  27
BRANCH   3  30
ATOM     30  C   UNL     1      -3.379  13.494  21.039  0.00  0.00    +0.000 C 
BRANCH  30  31
ATOM     31  C   UNL     1      -4.247  12.994  22.192  0.00  0.00    +0.000 A 
ATOM     32  C   UNL     1      -3.641  12.628  23.411  0.00  0.00    +0.000 A 
ATOM     33  C   UNL     1      -4.412  12.343  24.542  0.00  0.00    +0.000 A 
ATOM     34  C   UNL     1      -5.799  12.437  24.477  0.00  0.00    +0.000 A 
ATOM     35  C   UNL     1      -6.415  12.775  23.274  0.00  0.00    +0.000 A 
ATOM     36  C   UNL     1      -5.646  13.036  22.136  0.00  0.00    +0.000 A 
ENDBRANCH  30  31
ENDBRANCH   3  30
TORSDOF 9
ENDMDL
MODEL 9
REMARK VINA RESULT:      -7.4      5.776      8.120
REMARK  Name = 
REMARK  10 active torsions:
REMARK  status: ('A' for Active; 'I' for Inactive)
REMARK    1  A    between atoms: C_1  and  N_2
REMARK    2  A    between atoms: N_2  and  C_18
REMARK    3  A    between atoms: C_3  and  C_5
REMARK    4  A    between atoms: C_5  and  O_6
REMARK    5  A    between atoms: O_6  and  C_7
REMARK    6  A    between atoms: C_7  and  C_9
REMARK    7  A    between atoms: C_9  and  C_10
REMARK    8  A    between atoms: C_19  and  N_20
REMARK    9  A    between atoms: N_21  and  C_22
REMARK   10  A    between atoms: C_22  and  C_23
REMARK                            x       y       z     vdW  Elec       q    Type
REMARK                         _______ _______ _______ _____ _____    ______ ____
ROOT
ATOM      1  C   UNL     1       4.413   5.449  17.778  0.00  0.00    +0.000 A 
ATOM      2  C   UNL     1       5.250   5.811  16.777  0.00  0.00    +0.000 A 
ATOM      3  N   UNL     1       6.535   5.263  16.696  0.00  0.00    +0.000 N 
ATOM      4  C   UNL     1       7.082   4.474  17.716  0.00  0.00    +0.000 A 
ATOM      5  O   UNL     1       8.248   4.120  17.779  0.00  0.00    +0.000 OA
ATOM      6  N   UNL     1       6.202   4.079  18.686  0.00  0.00    +0.000 N 
ATOM      7  C   UNL     1       4.908   4.490  18.825  0.00  0.00    +0.000 A 
ATOM      8  O   UNL     1       4.230   4.159  19.789  0.00  0.00    +0.000 OA
ATOM      9  H   UNL     1       6.579   3.493  19.417  0.00  0.00    +0.000 HD
ENDROOT
BRANCH   1  11
ATOM     10  C   UNL     1       2.009   4.959  17.797  0.00  0.00    +0.000 C 
ATOM     11  N   UNL     1       3.096   5.935  17.905  0.00  0.00    +0.000 N 
ATOM     12  C   UNL     1       2.908   7.314  18.033  0.00  0.00    +0.000 C 
ATOM     13  O   UNL     1       3.858   8.104  18.096  0.00  0.00    +0.000 OA
BRANCH  12  14
ATOM     14  C   UNL     1       1.468   7.842  18.151  0.00  0.00    +0.000 C 
BRANCH  14  15
ATOM     15  O   UNL     1       1.339   9.184  17.665  0.00  0.00    +0.000 OA
BRANCH  15  16
ATOM     16  C   UNL     1       0.550   9.964  18.452  0.00  0.00    +0.000 C 
ATOM     17  O   UNL     1      -0.621  10.228  18.223  0.00  0.00    +0.000 OA
BRANCH  16  18
ATOM     18  C   UNL     1       1.325  10.480  19.645  0.00  0.00    +0.000 C 
BRANCH  18  19
ATOM     19  C   UNL     1       0.452  10.874  20.815  0.00  0.00    +0.000 A 
ATOM     20  C   UNL     1       0.026  12.205  20.996  0.00  0.00    +0.000 A 
ATOM     21 CL   UNL     1       0.492  13.475  19.918  0.00  0.00    +0.000 Cl
ATOM     22  C   UNL     1      -0.830  12.555  22.047  0.00  0.00    +0.000 A 
ATOM     23  C   UNL     1      -1.270  11.589  22.947  0.00  0.00    +0.000 A 
ATOM     24  C   UNL     1      -0.847  10.272  22.799  0.00  0.00    +0.000 A 
ATOM     25  C   UNL     1       0.009   9.918  21.748  0.00  0.00    +0.000 A 
ATOM     26 CL   UNL     1       0.453   8.249  21.644  0.00  0.00    +0.000 Cl
ENDBRANCH  18  19
ENDBRANCH  16  18
ENDBRANCH  15  16
ENDBRANCH  14  15
ENDBRANCH  12  14
ENDBRANCH   1  11
BRANCH   2  27
ATOM     27  N   UNL     1       4.845   6.760  15.842  0.00  0.00    +0.000 N 
ATOM     28  H   UNL     1       4.082   6.426  15.259  0.00  0.00    +0.000 HD
ATOM     29  H   UNL     1       5.602   7.101  15.254  0.00  0.00    +0.000 HD
ENDBRANCH   2  27
BRANCH   3  30
ATOM     30  C   UNL     1       7.385   5.567  15.529  0.00  0.00    +0.000 C 
BRANCH  30  31
ATOM     31  C   UNL     1       6.979   4.914  14.210  0.00  0.00    +0.000 A 
ATOM     32  C   UNL     1       7.685   5.229  13.031  0.00  0.00    +0.000 A 
ATOM     33  C   UNL     1       7.466   4.518  11.847  0.00  0.00    +0.000 A 
ATOM     34  C   UNL     1       6.551   3.471  11.828  0.00  0.00    +0.000 A 
ATOM     35  C   UNL     1       5.828   3.160  12.978  0.00  0.00    +0.000 A 
ATOM     36  C   UNL     1       6.029   3.886  14.155  0.00  0.00    +0.000 A 
ENDBRANCH  30  31
ENDBRANCH   3  30
TORSDOF 9
ENDMDL
