MODEL 1
REMARK VINA RESULT:      -8.0      0.000      0.000
REMARK  Name = 
REMARK  7 active torsions:
REMARK  status: ('A' for Active; 'I' for Inactive)
REMARK    1  A    between atoms: C_1  and  C_2
REMARK    2  A    between atoms: C_2  and  C_3
REMARK    3  A    between atoms: C_3  and  C_4
REMARK    4  A    between atoms: C_4  and  N_5
REMARK    5  A    between atoms: C_9  and  S_10
REMARK    6  A    between atoms: S_10  and  C_13
REMARK    7  A    between atoms: C_16  and  C_17
REMARK                            x       y       z     vdW  Elec       q    Type
REMARK                         _______ _______ _______ _____ _____    ______ ____
ROOT
ATOM      1  N   UNL     1       3.036   4.808  20.518  0.00  0.00    +0.000 N 
ATOM      2  C   UNL     1       3.015   5.870  19.643  0.00  0.00    +0.000 A 
ATOM      3  N   UNL     1       2.197   6.881  19.862  0.00  0.00    +0.000 NA
ATOM      4  C   UNL     1       2.195   7.947  18.995  0.00  0.00    +0.000 A 
ATOM      5  C   UNL     1       1.540   9.165  18.945  0.00  0.00    +0.000 A 
ATOM      6  N   UNL     1       1.891   9.845  17.798  0.00  0.00    +0.000 NA
ATOM      7  N   UNL     1       2.774   9.110  17.134  0.00  0.00    +0.000 NA
ATOM      8  N   UNL     1       2.987   7.992  17.850  0.00  0.00    +0.000 N 
ATOM      9  C   UNL     1       3.859   6.932  17.554  0.00  0.00    +0.000 A 
ATOM     10  C   UNL     1       4.728   6.745  16.456  0.00  0.00    +0.000 A 
ATOM     11  C   UNL     1       5.387   5.534  16.569  0.00  0.00    +0.000 A 
ATOM     12  S   UNL     1       4.949   4.673  17.996  0.00  0.00    +0.000 S 
ATOM     13  C   UNL     1       3.871   5.899  18.457  0.00  0.00    +0.000 A 
ATOM     14  H   UNL     1       3.579   4.008  20.210  0.00  0.00    +0.000 HD
ENDROOT
BRANCH   5  15
ATOM     15  S   UNL     1       0.417   9.801  20.079  0.00  0.00    +0.000 S 
ATOM     16  O   UNL     1       0.014   8.685  20.911  0.00  0.00    +0.000 OA
ATOM     17  O   UNL     1       1.050  10.975  20.647  0.00  0.00    +0.000 OA
BRANCH  15  18
ATOM     18  C   UNL     1      -0.977  10.352  19.133  0.00  0.00    +0.000 A 
ATOM     19  C   UNL     1      -1.369   9.643  17.995  0.00  0.00    +0.000 A 
ATOM     20  C   UNL     1      -2.494  10.060  17.278  0.00  0.00    +0.000 A 
ATOM     21  C   UNL     1      -3.229  11.178  17.693  0.00  0.00    +0.000 A 
ATOM     22  C   UNL     1      -4.438  11.630  16.926  0.00  0.00    +0.000 C 
ATOM     23  C   UNL     1      -2.829  11.874  18.844  0.00  0.00    +0.000 A 
ATOM     24  C   UNL     1      -1.709  11.461  19.568  0.00  0.00    +0.000 A 
ENDBRANCH  15  18
ENDBRANCH   5  15
BRANCH   1  25
ATOM     25  C   UNL     1       1.905   4.497  21.371  0.00  0.00    +0.000 C 
BRANCH  25  26
ATOM     26  C   UNL     1       1.342   3.117  21.029  0.00  0.00    +0.000 C 
BRANCH  26  28
ATOM     27  C   UNL     1       1.670   2.170  18.717  0.00  0.00    +0.000 C 
ATOM     28  C   UNL     1       0.798   3.048  19.601  0.00  0.00    +0.000 C 
ENDBRANCH  26  28
ENDBRANCH  25  26
ENDBRANCH   1  25
TORSDOF 5
ENDMDL
MODEL 2
REMARK VINA RESULT:      -7.9      1.614      3.898
REMARK  Name = 
REMARK  7 active torsions:
REMARK  status: ('A' for Active; 'I' for Inactive)
REMARK    1  A    between atoms: C_1  and  C_2
REMARK    2  A    between atoms: C_2  and  C_3
REMARK    3  A    between atoms: C_3  and  C_4
REMARK    4  A    between atoms: C_4  and  N_5
REMARK    5  A    between atoms: C_9  and  S_10
REMARK    6  A    between atoms: S_10  and  C_13
REMARK    7  A    between atoms: C_16  and  C_17
REMARK                            x       y       z     vdW  Elec       q    Type
REMARK                         _______ _______ _______ _____ _____    ______ ____
ROOT
ATOM      1  N   UNL     1       4.348   5.652  17.177  0.00  0.00    +0.000 N 
ATOM      2  C   UNL     1       3.504   6.020  18.199  0.00  0.00    +0.000 A 
ATOM      3  N   UNL     1       3.019   7.246  18.235  0.00  0.00    +0.000 NA
ATOM      4  C   UNL     1       2.160   7.602  19.248  0.00  0.00    +0.000 A 
ATOM      5  C   UNL     1       1.434   8.738  19.561  0.00  0.00    +0.000 A 
ATOM      6  N   UNL     1       0.757   8.556  20.747  0.00  0.00    +0.000 NA
ATOM      7  N   UNL     1       1.004   7.327  21.182  0.00  0.00    +0.000 NA
ATOM      8  N   UNL     1       1.813   6.738  20.284  0.00  0.00    +0.000 N 
ATOM      9  C   UNL     1       2.320   5.428  20.310  0.00  0.00    +0.000 A 
ATOM     10  C   UNL     1       2.132   4.395  21.254  0.00  0.00    +0.000 A 
ATOM     11  C   UNL     1       2.845   3.270  20.882  0.00  0.00    +0.000 A 
ATOM     12  S   UNL     1       3.702   3.491  19.403  0.00  0.00    +0.000 S 
ATOM     13  C   UNL     1       3.142   5.086  19.265  0.00  0.00    +0.000 A 
ATOM     14  H   UNL     1       4.794   4.747  17.294  0.00  0.00    +0.000 HD
ENDROOT
BRANCH   5  15
ATOM     15  S   UNL     1       1.357  10.211  18.678  0.00  0.00    +0.000 S 
ATOM     16  O   UNL     1       1.874  11.235  19.565  0.00  0.00    +0.000 OA
ATOM     17  O   UNL     1       1.980   9.937  17.398  0.00  0.00    +0.000 OA
BRANCH  15  18
ATOM     18  C   UNL     1      -0.363  10.515  18.381  0.00  0.00    +0.000 A 
ATOM     19  C   UNL     1      -1.071   9.700  17.494  0.00  0.00    +0.000 A 
ATOM     20  C   UNL     1      -2.437   9.920  17.297  0.00  0.00    +0.000 A 
ATOM     21  C   UNL     1      -3.099  10.947  17.983  0.00  0.00    +0.000 A 
ATOM     22  C   UNL     1      -4.566  11.188  17.776  0.00  0.00    +0.000 C 
ATOM     23  C   UNL     1      -2.377  11.750  18.880  0.00  0.00    +0.000 A 
ATOM     24  C   UNL     1      -1.013  11.533  19.085  0.00  0.00    +0.000 A 
ENDBRANCH  15  18
ENDBRANCH   5  15
BRANCH   1  25
ATOM     25  C   UNL     1       5.116   6.628  16.429  0.00  0.00    +0.000 C 
BRANCH  25  26
ATOM     26  C   UNL     1       6.603   6.277  16.460  0.00  0.00    +0.000 C 
BRANCH  26  28
ATOM     27  C   UNL     1       7.808   8.162  17.619  0.00  0.00    +0.000 C 
ATOM     28  C   UNL     1       7.283   6.742  17.750  0.00  0.00    +0.000 C 
ENDBRANCH  26  28
ENDBRANCH  25  26
ENDBRANCH   1  25
TORSDOF 5
ENDMDL
MODEL 3
REMARK VINA RESULT:      -7.8      1.600      3.924
REMARK  Name = 
REMARK  7 active torsions:
REMARK  status: ('A' for Active; 'I' for Inactive)
REMARK    1  A    between atoms: C_1  and  C_2
REMARK    2  A    between atoms: C_2  and  C_3
REMARK    3  A    between atoms: C_3  and  C_4
REMARK    4  A    between atoms: C_4  and  N_5
REMARK    5  A    between atoms: C_9  and  S_10
REMARK    6  A    between atoms: S_10  and  C_13
REMARK    7  A    between atoms: C_16  and  C_17
REMARK                            x       y       z     vdW  Elec       q    Type
REMARK                         _______ _______ _______ _____ _____    ______ ____
ROOT
ATOM      1  N   UNL     1       4.247   5.507  17.146  0.00  0.00    +0.000 N 
ATOM      2  C   UNL     1       3.441   5.901  18.190  0.00  0.00    +0.000 A 
ATOM      3  N   UNL     1       2.977   7.135  18.227  0.00  0.00    +0.000 NA
ATOM      4  C   UNL     1       2.156   7.516  19.262  0.00  0.00    +0.000 A 
ATOM      5  C   UNL     1       1.459   8.667  19.584  0.00  0.00    +0.000 A 
ATOM      6  N   UNL     1       0.816   8.509  20.793  0.00  0.00    +0.000 NA
ATOM      7  N   UNL     1       1.057   7.280  21.234  0.00  0.00    +0.000 NA
ATOM      8  N   UNL     1       1.828   6.668  20.318  0.00  0.00    +0.000 N 
ATOM      9  C   UNL     1       2.315   5.351  20.343  0.00  0.00    +0.000 A 
ATOM     10  C   UNL     1       2.140   4.332  21.305  0.00  0.00    +0.000 A 
ATOM     11  C   UNL     1       2.823   3.191  20.923  0.00  0.00    +0.000 A 
ATOM     12  S   UNL     1       3.636   3.382  19.416  0.00  0.00    +0.000 S 
ATOM     13  C   UNL     1       3.098   4.984  19.278  0.00  0.00    +0.000 A 
ATOM     14  H   UNL     1       4.682   4.597  17.259  0.00  0.00    +0.000 HD
ENDROOT
BRANCH   5  15
ATOM     15  S   UNL     1       1.377  10.131  18.688  0.00  0.00    +0.000 S 
ATOM     16  O   UNL     1       1.938  11.156  19.546  0.00  0.00    +0.000 OA
ATOM     17  O   UNL     1       1.954   9.833  17.392  0.00  0.00    +0.000 OA
BRANCH  15  18
ATOM     18  C   UNL     1      -0.347  10.460  18.442  0.00  0.00    +0.000 A 
ATOM     19  C   UNL     1      -0.973  11.471  19.174  0.00  0.00    +0.000 A 
ATOM     20  C   UNL     1      -2.323  11.753  18.944  0.00  0.00    +0.000 A 
ATOM     21  C   UNL     1      -3.048  11.030  17.987  0.00  0.00    +0.000 A 
ATOM     22  C   UNL     1      -4.497  11.329  17.736  0.00  0.00    +0.000 C 
ATOM     23  C   UNL     1      -2.402  10.025  17.252  0.00  0.00    +0.000 A 
ATOM     24  C   UNL     1      -1.052   9.742  17.472  0.00  0.00    +0.000 A 
ENDBRANCH  15  18
ENDBRANCH   5  15
BRANCH   1  25
ATOM     25  C   UNL     1       5.006   6.463  16.363  0.00  0.00    +0.000 C 
BRANCH  25  26
ATOM     26  C   UNL     1       6.503   6.181  16.481  0.00  0.00    +0.000 C 
BRANCH  26  28
ATOM     27  C   UNL     1       7.745   6.295  18.670  0.00  0.00    +0.000 C 
ATOM     28  C   UNL     1       7.188   7.092  17.502  0.00  0.00    +0.000 C 
ENDBRANCH  26  28
ENDBRANCH  25  26
ENDBRANCH   1  25
TORSDOF 5
ENDMDL
MODEL 4
REMARK VINA RESULT:      -7.6      1.555      3.861
REMARK  Name = 
REMARK  7 active torsions:
REMARK  status: ('A' for Active; 'I' for Inactive)
REMARK    1  A    between atoms: C_1  and  C_2
REMARK    2  A    between atoms: C_2  and  C_3
REMARK    3  A    between atoms: C_3  and  C_4
REMARK    4  A    between atoms: C_4  and  N_5
REMARK    5  A    between atoms: C_9  and  S_10
REMARK    6  A    between atoms: S_10  and  C_13
REMARK    7  A    between atoms: C_16  and  C_17
REMARK                            x       y       z     vdW  Elec       q    Type
REMARK                         _______ _______ _______ _____ _____    ______ ____
ROOT
ATOM      1  N   UNL     1       4.175   5.528  17.155  0.00  0.00    +0.000 N 
ATOM      2  C   UNL     1       3.386   5.930  18.208  0.00  0.00    +0.000 A 
ATOM      3  N   UNL     1       2.921   7.164  18.242  0.00  0.00    +0.000 NA
ATOM      4  C   UNL     1       2.118   7.553  19.288  0.00  0.00    +0.000 A 
ATOM      5  C   UNL     1       1.424   8.706  19.611  0.00  0.00    +0.000 A 
ATOM      6  N   UNL     1       0.802   8.559  20.832  0.00  0.00    +0.000 NA
ATOM      7  N   UNL     1       1.052   7.334  21.279  0.00  0.00    +0.000 NA
ATOM      8  N   UNL     1       1.809   6.715  20.357  0.00  0.00    +0.000 N 
ATOM      9  C   UNL     1       2.297   5.399  20.385  0.00  0.00    +0.000 A 
ATOM     10  C   UNL     1       2.139   4.387  21.359  0.00  0.00    +0.000 A 
ATOM     11  C   UNL     1       2.817   3.244  20.975  0.00  0.00    +0.000 A 
ATOM     12  S   UNL     1       3.605   3.422  19.453  0.00  0.00    +0.000 S 
ATOM     13  C   UNL     1       3.062   5.023  19.310  0.00  0.00    +0.000 A 
ATOM     14  H   UNL     1       4.613   4.620  17.268  0.00  0.00    +0.000 HD
ENDROOT
BRANCH   5  15
ATOM     15  S   UNL     1       1.327  10.162  18.703  0.00  0.00    +0.000 S 
ATOM     16  O   UNL     1       1.826  11.209  19.572  0.00  0.00    +0.000 OA
ATOM     17  O   UNL     1       1.955   9.876  17.429  0.00  0.00    +0.000 OA
BRANCH  15  18
ATOM     18  C   UNL     1      -0.398  10.435  18.398  0.00  0.00    +0.000 A 
ATOM     19  C   UNL     1      -1.085  11.416  19.117  0.00  0.00    +0.000 A 
ATOM     20  C   UNL     1      -2.435  11.653  18.843  0.00  0.00    +0.000 A 
ATOM     21  C   UNL     1      -3.099  10.918  17.852  0.00  0.00    +0.000 A 
ATOM     22  C   UNL     1      -4.549  11.169  17.552  0.00  0.00    +0.000 C 
ATOM     23  C   UNL     1      -2.393   9.944  17.130  0.00  0.00    +0.000 A 
ATOM     24  C   UNL     1      -1.043   9.704  17.396  0.00  0.00    +0.000 A 
ENDBRANCH  15  18
ENDBRANCH   5  15
BRANCH   1  25
ATOM     25  C   UNL     1       4.919   6.477  16.350  0.00  0.00    +0.000 C 
BRANCH  25  26
ATOM     26  C   UNL     1       6.418   6.346  16.620  0.00  0.00    +0.000 C 
BRANCH  26  28
ATOM     27  C   UNL     1       6.386   4.890  14.564  0.00  0.00    +0.000 C 
ATOM     28  C   UNL     1       7.031   5.133  15.918  0.00  0.00    +0.000 C 
ENDBRANCH  26  28
ENDBRANCH  25  26
ENDBRANCH   1  25
TORSDOF 5
ENDMDL
MODEL 5
REMARK VINA RESULT:      -7.6      3.514      5.960
REMARK  Name = 
REMARK  7 active torsions:
REMARK  status: ('A' for Active; 'I' for Inactive)
REMARK    1  A    between atoms: C_1  and  C_2
REMARK    2  A    between atoms: C_2  and  C_3
REMARK    3  A    between atoms: C_3  and  C_4
REMARK    4  A    between atoms: C_4  and  N_5
REMARK    5  A    between atoms: C_9  and  S_10
REMARK    6  A    between atoms: S_10  and  C_13
REMARK    7  A    between atoms: C_16  and  C_17
REMARK                            x       y       z     vdW  Elec       q    Type
REMARK                         _______ _______ _______ _____ _____    ______ ____
ROOT
ATOM      1  N   UNL     1       7.464   7.018  16.650  0.00  0.00    +0.000 N 
ATOM      2  C   UNL     1       6.463   6.081  16.531  0.00  0.00    +0.000 A 
ATOM      3  N   UNL     1       5.593   5.928  17.511  0.00  0.00    +0.000 NA
ATOM      4  C   UNL     1       4.584   5.004  17.379  0.00  0.00    +0.000 A 
ATOM      5  C   UNL     1       3.495   4.628  18.146  0.00  0.00    +0.000 A 
ATOM      6  N   UNL     1       2.822   3.590  17.538  0.00  0.00    +0.000 NA
ATOM      7  N   UNL     1       3.431   3.317  16.391  0.00  0.00    +0.000 NA
ATOM      8  N   UNL     1       4.463   4.170  16.269  0.00  0.00    +0.000 N 
ATOM      9  C   UNL     1       5.376   4.272  15.207  0.00  0.00    +0.000 A 
ATOM     10  C   UNL     1       5.468   3.531  14.008  0.00  0.00    +0.000 A 
ATOM     11  C   UNL     1       6.545   3.966  13.258  0.00  0.00    +0.000 A 
ATOM     12  S   UNL     1       7.398   5.258  14.014  0.00  0.00    +0.000 S 
ATOM     13  C   UNL     1       6.348   5.230  15.347  0.00  0.00    +0.000 A 
ATOM     14  H   UNL     1       8.176   6.978  15.928  0.00  0.00    +0.000 HD
ENDROOT
BRANCH   5  15
ATOM     15  S   UNL     1       3.001   5.279  19.658  0.00  0.00    +0.000 S 
ATOM     16  O   UNL     1       1.907   4.444  20.114  0.00  0.00    +0.000 OA
ATOM     17  O   UNL     1       4.214   5.427  20.439  0.00  0.00    +0.000 OA
BRANCH  15  18
ATOM     18  C   UNL     1       2.386   6.905  19.314  0.00  0.00    +0.000 A 
ATOM     19  C   UNL     1       2.432   7.405  18.010  0.00  0.00    +0.000 A 
ATOM     20  C   UNL     1       1.907   8.671  17.739  0.00  0.00    +0.000 A 
ATOM     21  C   UNL     1       1.334   9.438  18.763  0.00  0.00    +0.000 A 
ATOM     22  C   UNL     1       0.767  10.799  18.477  0.00  0.00    +0.000 C 
ATOM     23  C   UNL     1       1.284   8.918  20.064  0.00  0.00    +0.000 A 
ATOM     24  C   UNL     1       1.803   7.652  20.342  0.00  0.00    +0.000 A 
ENDBRANCH  15  18
ENDBRANCH   5  15
BRANCH   1  25
ATOM     25  C   UNL     1       7.918   7.494  17.942  0.00  0.00    +0.000 C 
BRANCH  25  26
ATOM     26  C   UNL     1       8.132   9.006  17.909  0.00  0.00    +0.000 C 
BRANCH  26  28
ATOM     27  C   UNL     1       9.529  10.901  18.807  0.00  0.00    +0.000 C 
ATOM     28  C   UNL     1       9.012   9.495  19.061  0.00  0.00    +0.000 C 
ENDBRANCH  26  28
ENDBRANCH  25  26
ENDBRANCH   1  25
TORSDOF 5
ENDMDL
MODEL 6
REMARK VINA RESULT:      -7.4      4.997      8.773
REMARK  Name = 
REMARK  7 active torsions:
REMARK  status: ('A' for Active; 'I' for Inactive)
REMARK    1  A    between atoms: C_1  and  C_2
REMARK    2  A    between atoms: C_2  and  C_3
REMARK    3  A    between atoms: C_3  and  C_4
REMARK    4  A    between atoms: C_4  and  N_5
REMARK    5  A    between atoms: C_9  and  S_10
REMARK    6  A    between atoms: S_10  and  C_13
REMARK    7  A    between atoms: C_16  and  C_17
REMARK                            x       y       z     vdW  Elec       q    Type
REMARK                         _______ _______ _______ _____ _____    ______ ____
ROOT
ATOM      1  N   UNL     1      -3.812  11.886  17.380  0.00  0.00    +0.000 N 
ATOM      2  C   UNL     1      -4.071  12.102  18.714  0.00  0.00    +0.000 A 
ATOM      3  N   UNL     1      -3.068  12.254  19.557  0.00  0.00    +0.000 NA
ATOM      4  C   UNL     1      -3.334  12.489  20.886  0.00  0.00    +0.000 A 
ATOM      5  C   UNL     1      -2.564  12.750  22.006  0.00  0.00    +0.000 A 
ATOM      6  N   UNL     1      -3.368  12.864  23.118  0.00  0.00    +0.000 NA
ATOM      7  N   UNL     1      -4.631  12.717  22.734  0.00  0.00    +0.000 NA
ATOM      8  N   UNL     1      -4.626  12.523  21.404  0.00  0.00    +0.000 N 
ATOM      9  C   UNL     1      -5.731  12.343  20.556  0.00  0.00    +0.000 A 
ATOM     10  C   UNL     1      -7.113  12.314  20.850  0.00  0.00    +0.000 A 
ATOM     11  C   UNL     1      -7.843  12.088  19.698  0.00  0.00    +0.000 A 
ATOM     12  S   UNL     1      -6.844  11.936  18.302  0.00  0.00    +0.000 S 
ATOM     13  C   UNL     1      -5.440  12.151  19.229  0.00  0.00    +0.000 A 
ATOM     14  H   UNL     1      -4.621  11.635  16.821  0.00  0.00    +0.000 HD
ENDROOT
BRANCH   5  15
ATOM     15  S   UNL     1      -0.853  12.893  22.093  0.00  0.00    +0.000 S 
ATOM     16  O   UNL     1      -0.476  13.822  21.047  0.00  0.00    +0.000 OA
ATOM     17  O   UNL     1      -0.550  13.160  23.485  0.00  0.00    +0.000 OA
BRANCH  15  18
ATOM     18  C   UNL     1      -0.207  11.288  21.705  0.00  0.00    +0.000 A 
ATOM     19  C   UNL     1       0.369  11.054  20.455  0.00  0.00    +0.000 A 
ATOM     20  C   UNL     1       0.914   9.799  20.171  0.00  0.00    +0.000 A 
ATOM     21  C   UNL     1       0.887   8.778  21.131  0.00  0.00    +0.000 A 
ATOM     22  C   UNL     1       1.471   7.428  20.832  0.00  0.00    +0.000 C 
ATOM     23  C   UNL     1       0.315   9.032  22.386  0.00  0.00    +0.000 A 
ATOM     24  C   UNL     1      -0.227  10.285  22.679  0.00  0.00    +0.000 A 
ENDBRANCH  15  18
ENDBRANCH   5  15
BRANCH   1  25
ATOM     25  C   UNL     1      -2.551  11.335  16.925  0.00  0.00    +0.000 C 
BRANCH  25  26
ATOM     26  C   UNL     1      -2.747   9.915  16.397  0.00  0.00    +0.000 C 
BRANCH  26  28
ATOM     27  C   UNL     1      -3.952  10.105  14.192  0.00  0.00    +0.000 C 
ATOM     28  C   UNL     1      -2.620   9.837  14.874  0.00  0.00    +0.000 C 
ENDBRANCH  26  28
ENDBRANCH  25  26
ENDBRANCH   1  25
TORSDOF 5
ENDMDL
MODEL 7
REMARK VINA RESULT:      -7.4      1.673      2.188
REMARK  Name = 
REMARK  7 active torsions:
REMARK  status: ('A' for Active; 'I' for Inactive)
REMARK    1  A    between atoms: C_1  and  C_2
REMARK    2  A    between atoms: C_2  and  C_3
REMARK    3  A    between atoms: C_3  and  C_4
REMARK    4  A    between atoms: C_4  and  N_5
REMARK    5  A    between atoms: C_9  and  S_10
REMARK    6  A    between atoms: S_10  and  C_13
REMARK    7  A    between atoms: C_16  and  C_17
REMARK                            x       y       z     vdW  Elec       q    Type
REMARK                         _______ _______ _______ _____ _____    ______ ____
ROOT
ATOM      1  N   UNL     1       3.000   4.680  20.455  0.00  0.00    +0.000 N 
ATOM      2  C   UNL     1       3.007   5.749  19.589  0.00  0.00    +0.000 A 
ATOM      3  N   UNL     1       2.228   6.786  19.826  0.00  0.00    +0.000 NA
ATOM      4  C   UNL     1       2.254   7.860  18.968  0.00  0.00    +0.000 A 
ATOM      5  C   UNL     1       1.643   9.101  18.935  0.00  0.00    +0.000 A 
ATOM      6  N   UNL     1       2.004   9.777  17.789  0.00  0.00    +0.000 NA
ATOM      7  N   UNL     1       2.852   9.016  17.108  0.00  0.00    +0.000 NA
ATOM      8  N   UNL     1       3.033   7.885  17.813  0.00  0.00    +0.000 N 
ATOM      9  C   UNL     1       3.863   6.797  17.497  0.00  0.00    +0.000 A 
ATOM     10  C   UNL     1       4.711   6.588  16.387  0.00  0.00    +0.000 A 
ATOM     11  C   UNL     1       5.328   5.354  16.482  0.00  0.00    +0.000 A 
ATOM     12  S   UNL     1       4.876   4.497  17.908  0.00  0.00    +0.000 S 
ATOM     13  C   UNL     1       3.849   5.757  18.392  0.00  0.00    +0.000 A 
ATOM     14  H   UNL     1       3.510   3.863  20.133  0.00  0.00    +0.000 HD
ENDROOT
BRANCH   5  15
ATOM     15  S   UNL     1       0.557   9.767  20.089  0.00  0.00    +0.000 S 
ATOM     16  O   UNL     1      -0.724   9.135  19.843  0.00  0.00    +0.000 OA
ATOM     17  O   UNL     1       1.223   9.650  21.371  0.00  0.00    +0.000 OA
BRANCH  15  18
ATOM     18  C   UNL     1       0.434  11.493  19.706  0.00  0.00    +0.000 A 
ATOM     19  C   UNL     1      -0.599  11.952  18.885  0.00  0.00    +0.000 A 
ATOM     20  C   UNL     1      -0.714  13.320  18.621  0.00  0.00    +0.000 A 
ATOM     21  C   UNL     1       0.197  14.230  19.176  0.00  0.00    +0.000 A 
ATOM     22  C   UNL     1       0.078  15.700  18.896  0.00  0.00    +0.000 C 
ATOM     23  C   UNL     1       1.222  13.756  20.007  0.00  0.00    +0.000 A 
ATOM     24  C   UNL     1       1.340  12.391  20.278  0.00  0.00    +0.000 A 
ENDBRANCH  15  18
ENDBRANCH   5  15
BRANCH   1  25
ATOM     25  C   UNL     1       1.869   4.402  21.319  0.00  0.00    +0.000 C 
BRANCH  25  26
ATOM     26  C   UNL     1       1.459   2.934  21.207  0.00  0.00    +0.000 C 
BRANCH  26  28
ATOM     27  C   UNL     1       0.773   2.499  18.822  0.00  0.00    +0.000 C 
ATOM     28  C   UNL     1       1.863   2.317  19.866  0.00  0.00    +0.000 C 
ENDBRANCH  26  28
ENDBRANCH  25  26
ENDBRANCH   1  25
TORSDOF 5
ENDMDL
MODEL 8
REMARK VINA RESULT:      -7.4      1.533      2.182
REMARK  Name = 
REMARK  7 active torsions:
REMARK  status: ('A' for Active; 'I' for Inactive)
REMARK    1  A    between atoms: C_1  and  C_2
REMARK    2  A    between atoms: C_2  and  C_3
REMARK    3  A    between atoms: C_3  and  C_4
REMARK    4  A    between atoms: C_4  and  N_5
REMARK    5  A    between atoms: C_9  and  S_10
REMARK    6  A    between atoms: S_10  and  C_13
REMARK    7  A    between atoms: C_16  and  C_17
REMARK                            x       y       z     vdW  Elec       q    Type
REMARK                         _______ _______ _______ _____ _____    ______ ____
ROOT
ATOM      1  N   UNL     1       3.152   4.482  20.436  0.00  0.00    +0.000 N 
ATOM      2  C   UNL     1       3.088   5.597  19.631  0.00  0.00    +0.000 A 
ATOM      3  N   UNL     1       2.301   6.600  19.968  0.00  0.00    +0.000 NA
ATOM      4  C   UNL     1       2.256   7.719  19.170  0.00  0.00    +0.000 A 
ATOM      5  C   UNL     1       1.617   8.945  19.240  0.00  0.00    +0.000 A 
ATOM      6  N   UNL     1       1.898   9.691  18.116  0.00  0.00    +0.000 NA
ATOM      7  N   UNL     1       2.723   8.989  17.348  0.00  0.00    +0.000 NA
ATOM      8  N   UNL     1       2.968   7.826  17.978  0.00  0.00    +0.000 N 
ATOM      9  C   UNL     1       3.802   6.778  17.557  0.00  0.00    +0.000 A 
ATOM     10  C   UNL     1       4.591   6.650  16.392  0.00  0.00    +0.000 A 
ATOM     11  C   UNL     1       5.238   5.428  16.384  0.00  0.00    +0.000 A 
ATOM     12  S   UNL     1       4.886   4.485  17.782  0.00  0.00    +0.000 S 
ATOM     13  C   UNL     1       3.860   5.691  18.392  0.00  0.00    +0.000 A 
ATOM     14  H   UNL     1       3.661   3.697  20.041  0.00  0.00    +0.000 HD
ENDROOT
BRANCH   5  15
ATOM     15  S   UNL     1       0.584   9.521  20.487  0.00  0.00    +0.000 S 
ATOM     16  O   UNL     1      -0.664   8.800  20.336  0.00  0.00    +0.000 OA
ATOM     17  O   UNL     1       1.358   9.440  21.710  0.00  0.00    +0.000 OA
BRANCH  15  18
ATOM     18  C   UNL     1       0.309  11.237  20.142  0.00  0.00    +0.000 A 
ATOM     19  C   UNL     1       1.229  12.192  20.581  0.00  0.00    +0.000 A 
ATOM     20  C   UNL     1       1.026  13.539  20.269  0.00  0.00    +0.000 A 
ATOM     21  C   UNL     1      -0.089  13.936  19.518  0.00  0.00    +0.000 A 
ATOM     22  C   UNL     1      -0.311  15.381  19.179  0.00  0.00    +0.000 C 
ATOM     23  C   UNL     1      -0.998  12.964  19.074  0.00  0.00    +0.000 A 
ATOM     24  C   UNL     1      -0.800  11.616  19.378  0.00  0.00    +0.000 A 
ENDBRANCH  15  18
ENDBRANCH   5  15
BRANCH   1  25
ATOM     25  C   UNL     1       2.078   4.131  21.344  0.00  0.00    +0.000 C 
BRANCH  25  26
ATOM     26  C   UNL     1       1.667   2.672  21.146  0.00  0.00    +0.000 C 
BRANCH  26  28
ATOM     27  C   UNL     1       0.653   2.575  18.841  0.00  0.00    +0.000 C 
ATOM     28  C   UNL     1       1.852   2.206  19.700  0.00  0.00    +0.000 C 
ENDBRANCH  26  28
ENDBRANCH  25  26
ENDBRANCH   1  25
TORSDOF 5
ENDMDL
MODEL 9
REMARK VINA RESULT:      -7.2      3.832      8.343
REMARK  Name = 
REMARK  7 active torsions:
REMARK  status: ('A' for Active; 'I' for Inactive)
REMARK    1  A    between atoms: C_1  and  C_2
REMARK    2  A    between atoms: C_2  and  C_3
REMARK    3  A    between atoms: C_3  and  C_4
REMARK    4  A    between atoms: C_4  and  N_5
REMARK    5  A    between atoms: C_9  and  S_10
REMARK    6  A    between atoms: S_10  and  C_13
REMARK    7  A    between atoms: C_16  and  C_17
REMARK                            x       y       z     vdW  Elec       q    Type
REMARK                         _______ _______ _______ _____ _____    ______ ____
ROOT
ATOM      1  N   UNL     1       2.199   8.000  18.926  0.00  0.00    +0.000 N 
ATOM      2  C   UNL     1       2.824   6.794  18.707  0.00  0.00    +0.000 A 
ATOM      3  N   UNL     1       3.673   6.671  17.705  0.00  0.00    +0.000 NA
ATOM      4  C   UNL     1       4.309   5.469  17.503  0.00  0.00    +0.000 A 
ATOM      5  C   UNL     1       5.273   5.008  16.624  0.00  0.00    +0.000 A 
ATOM      6  N   UNL     1       5.517   3.670  16.847  0.00  0.00    +0.000 NA
ATOM      7  N   UNL     1       4.760   3.274  17.863  0.00  0.00    +0.000 NA
ATOM      8  N   UNL     1       4.059   4.342  18.283  0.00  0.00    +0.000 N 
ATOM      9  C   UNL     1       3.146   4.409  19.348  0.00  0.00    +0.000 A 
ATOM     10  C   UNL     1       2.719   3.407  20.248  0.00  0.00    +0.000 A 
ATOM     11  C   UNL     1       1.786   3.922  21.129  0.00  0.00    +0.000 A 
ATOM     12  S   UNL     1       1.468   5.593  20.853  0.00  0.00    +0.000 S 
ATOM     13  C   UNL     1       2.556   5.630  19.552  0.00  0.00    +0.000 A 
ATOM     14  H   UNL     1       1.456   7.980  19.617  0.00  0.00    +0.000 HD
ENDROOT
BRANCH   5  15
ATOM     15  S   UNL     1       6.075   5.892  15.387  0.00  0.00    +0.000 S 
ATOM     16  O   UNL     1       5.179   6.972  15.024  0.00  0.00    +0.000 OA
ATOM     17  O   UNL     1       7.408   6.155  15.891  0.00  0.00    +0.000 OA
BRANCH  15  18
ATOM     18  C   UNL     1       6.231   4.782  14.015  0.00  0.00    +0.000 A 
ATOM     19  C   UNL     1       7.425   4.733  13.292  0.00  0.00    +0.000 A 
ATOM     20  C   UNL     1       7.556   3.826  12.237  0.00  0.00    +0.000 A 
ATOM     21  C   UNL     1       6.501   2.966  11.903  0.00  0.00    +0.000 A 
ATOM     22  C   UNL     1       6.635   1.989  10.771  0.00  0.00    +0.000 C 
ATOM     23  C   UNL     1       5.312   3.019  12.646  0.00  0.00    +0.000 A 
ATOM     24  C   UNL     1       5.176   3.919  13.704  0.00  0.00    +0.000 A 
ENDBRANCH  15  18
ENDBRANCH   5  15
BRANCH   1  25
ATOM     25  C   UNL     1       2.033   8.979  17.869  0.00  0.00    +0.000 C 
BRANCH  25  26
ATOM     26  C   UNL     1       1.424  10.266  18.423  0.00  0.00    +0.000 C 
BRANCH  26  28
ATOM     27  C   UNL     1      -1.094  10.345  18.467  0.00  0.00    +0.000 C 
ATOM     28  C   UNL     1       0.164  10.005  19.250  0.00  0.00    +0.000 C 
ENDBRANCH  26  28
ENDBRANCH  25  26
ENDBRANCH   1  25
TORSDOF 5
ENDMDL
