MODEL 1
REMARK VINA RESULT:      -8.5      0.000      0.000
REMARK  Name = 
REMARK  4 active torsions:
REMARK  status: ('A' for Active; 'I' for Inactive)
REMARK    1  A    between atoms: C_2  and  C_10
REMARK    2  A    between atoms: N_3  and  C_4
REMARK    3  A    between atoms: C_4  and  C_5
REMARK    4  A    between atoms: N_19  and  C_20
REMARK                            x       y       z     vdW  Elec       q    Type
REMARK                         _______ _______ _______ _____ _____    ______ ____
ROOT
ATOM      1  C   UNL     1       0.899   8.511  20.766  0.00  0.00    +0.000 A 
ATOM      2  C   UNL     1       0.986   9.336  19.637  0.00  0.00    +0.000 A 
ATOM      3  C   UNL     1       1.790   8.970  18.570  0.00  0.00    +0.000 A 
ATOM      4  C   UNL     1       2.485   7.761  18.627  0.00  0.00    +0.000 A 
ATOM      5  C   UNL     1       3.304   7.365  17.471  0.00  0.00    +0.000 A 
ATOM      6  O   UNL     1       3.434   8.123  16.518  0.00  0.00    +0.000 OA
ATOM      7  N   UNL     1       3.868   6.114  17.590  0.00  0.00    +0.000 N 
ATOM      8  N   UNL     1       4.608   5.619  16.571  0.00  0.00    +0.000 NA
ATOM      9  C   UNL     1       5.055   4.440  16.845  0.00  0.00    +0.000 A 
ATOM     10  N   UNL     1       5.826   3.637  16.049  0.00  0.00    +0.000 N 
ATOM     11  S   UNL     1       4.593   3.832  18.438  0.00  0.00    +0.000 S 
ATOM     12  C   UNL     1       3.728   5.324  18.698  0.00  0.00    +0.000 A 
ATOM     13  N   UNL     1       3.060   5.640  19.762  0.00  0.00    +0.000 NA
ATOM     14  C   UNL     1       2.404   6.898  19.734  0.00  0.00    +0.000 A 
ATOM     15  C   UNL     1       1.610   7.297  20.820  0.00  0.00    +0.000 A 
ATOM     16  H   UNL     1       6.037   2.713  16.398  0.00  0.00    +0.000 HD
ENDROOT
BRANCH  10  17
ATOM     17  C   UNL     1       6.275   3.916  14.739  0.00  0.00    +0.000 A 
ATOM     18  C   UNL     1       5.763   3.297  13.587  0.00  0.00    +0.000 A 
ATOM     19  C   UNL     1       6.252   3.587  12.309  0.00  0.00    +0.000 A 
ATOM     20  C   UNL     1       7.266   4.520  12.150  0.00  0.00    +0.000 A 
ATOM     21  C   UNL     1       7.780   5.167  13.271  0.00  0.00    +0.000 A 
ATOM     22  C   UNL     1       7.289   4.870  14.550  0.00  0.00    +0.000 A 
ENDBRANCH  10  17
BRANCH   1  24
ATOM     23  O   UNL     1      -0.798   8.165  22.344  0.00  0.00    +0.000 OA
ATOM     24  C   UNL     1      -0.021   8.967  21.836  0.00  0.00    +0.000 C 
ATOM     25  N   UNL     1       0.008  10.300  22.164  0.00  0.00    +0.000 N 
ATOM     26  H   UNL     1       0.490  10.954  21.561  0.00  0.00    +0.000 HD
BRANCH  25  27
ATOM     27  C   UNL     1      -1.010  10.830  23.044  0.00  0.00    +0.000 C 
BRANCH  27  28
ATOM     28  C   UNL     1      -1.785  11.868  22.307  0.00  0.00    +0.000 A 
ATOM     29  C   UNL     1      -1.647  12.245  20.985  0.00  0.00    +0.000 A 
ATOM     30  C   UNL     1      -2.546  13.288  20.624  0.00  0.00    +0.000 A 
ATOM     31  C   UNL     1      -3.341  13.669  21.682  0.00  0.00    +0.000 A 
ATOM     32  S   UNL     1      -3.005  12.772  23.097  0.00  0.00    +0.000 S 
ENDBRANCH  27  28
ENDBRANCH  25  27
ENDBRANCH   1  24
TORSDOF 4
ENDMDL
MODEL 2
REMARK VINA RESULT:      -8.4      0.633      1.151
REMARK  Name = 
REMARK  4 active torsions:
REMARK  status: ('A' for Active; 'I' for Inactive)
REMARK    1  A    between atoms: C_2  and  C_10
REMARK    2  A    between atoms: N_3  and  C_4
REMARK    3  A    between atoms: C_4  and  C_5
REMARK    4  A    between atoms: N_19  and  C_20
REMARK                            x       y       z     vdW  Elec       q    Type
REMARK                         _______ _______ _______ _____ _____    ______ ____
ROOT
ATOM      1  C   UNL     1       0.886   8.516  20.759  0.00  0.00    +0.000 A 
ATOM      2  C   UNL     1       0.993   9.352  19.639  0.00  0.00    +0.000 A 
ATOM      3  C   UNL     1       1.810   8.992  18.580  0.00  0.00    +0.000 A 
ATOM      4  C   UNL     1       2.496   7.778  18.634  0.00  0.00    +0.000 A 
ATOM      5  C   UNL     1       3.328   7.388  17.485  0.00  0.00    +0.000 A 
ATOM      6  O   UNL     1       3.475   8.155  16.541  0.00  0.00    +0.000 OA
ATOM      7  N   UNL     1       3.882   6.132  17.599  0.00  0.00    +0.000 N 
ATOM      8  N   UNL     1       4.633   5.642  16.584  0.00  0.00    +0.000 NA
ATOM      9  C   UNL     1       5.069   4.458  16.853  0.00  0.00    +0.000 A 
ATOM     10  N   UNL     1       5.845   3.658  16.059  0.00  0.00    +0.000 N 
ATOM     11  S   UNL     1       4.581   3.837  18.433  0.00  0.00    +0.000 S 
ATOM     12  C   UNL     1       3.722   5.332  18.697  0.00  0.00    +0.000 A 
ATOM     13  N   UNL     1       3.042   5.642  19.755  0.00  0.00    +0.000 NA
ATOM     14  C   UNL     1       2.395   6.904  19.731  0.00  0.00    +0.000 A 
ATOM     15  C   UNL     1       1.589   7.297  20.810  0.00  0.00    +0.000 A 
ATOM     16  H   UNL     1       6.045   2.729  16.402  0.00  0.00    +0.000 HD
ENDROOT
BRANCH  10  17
ATOM     17  C   UNL     1       6.313   3.947  14.758  0.00  0.00    +0.000 A 
ATOM     18  C   UNL     1       7.327   4.878  14.480  0.00  0.00    +0.000 A 
ATOM     19  C   UNL     1       7.746   5.151  13.173  0.00  0.00    +0.000 A 
ATOM     20  C   UNL     1       7.163   4.485  12.105  0.00  0.00    +0.000 A 
ATOM     21  C   UNL     1       6.171   3.541  12.349  0.00  0.00    +0.000 A 
ATOM     22  C   UNL     1       5.752   3.273  13.661  0.00  0.00    +0.000 A 
ENDBRANCH  10  17
BRANCH   1  24
ATOM     23  O   UNL     1      -0.894   8.191  22.247  0.00  0.00    +0.000 OA
ATOM     24  C   UNL     1      -0.045   8.968  21.821  0.00  0.00    +0.000 C 
ATOM     25  N   UNL     1       0.059  10.273  22.235  0.00  0.00    +0.000 N 
ATOM     26  H   UNL     1       0.608  10.928  21.694  0.00  0.00    +0.000 HD
BRANCH  25  27
ATOM     27  C   UNL     1      -0.957  10.816  23.109  0.00  0.00    +0.000 C 
BRANCH  27  28
ATOM     28  C   UNL     1      -1.569  12.003  22.450  0.00  0.00    +0.000 A 
ATOM     29  C   UNL     1      -2.867  12.461  22.569  0.00  0.00    +0.000 A 
ATOM     30  C   UNL     1      -3.107  13.618  21.776  0.00  0.00    +0.000 A 
ATOM     31  C   UNL     1      -1.984  14.006  21.080  0.00  0.00    +0.000 A 
ATOM     32  S   UNL     1      -0.651  12.982  21.387  0.00  0.00    +0.000 S 
ENDBRANCH  27  28
ENDBRANCH  25  27
ENDBRANCH   1  24
TORSDOF 4
ENDMDL
MODEL 3
REMARK VINA RESULT:      -8.2      1.183      1.297
REMARK  Name = 
REMARK  4 active torsions:
REMARK  status: ('A' for Active; 'I' for Inactive)
REMARK    1  A    between atoms: C_2  and  C_10
REMARK    2  A    between atoms: N_3  and  C_4
REMARK    3  A    between atoms: C_4  and  C_5
REMARK    4  A    between atoms: N_19  and  C_20
REMARK                            x       y       z     vdW  Elec       q    Type
REMARK                         _______ _______ _______ _____ _____    ______ ____
ROOT
ATOM      1  C   UNL     1       0.718   8.876  20.851  0.00  0.00    +0.000 A 
ATOM      2  C   UNL     1       0.823   9.652  19.688  0.00  0.00    +0.000 A 
ATOM      3  C   UNL     1       1.627   9.231  18.643  0.00  0.00    +0.000 A 
ATOM      4  C   UNL     1       2.305   8.015  18.754  0.00  0.00    +0.000 A 
ATOM      5  C   UNL     1       3.124   7.559  17.621  0.00  0.00    +0.000 A 
ATOM      6  O   UNL     1       3.270   8.275  16.637  0.00  0.00    +0.000 OA
ATOM      7  N   UNL     1       3.668   6.306  17.795  0.00  0.00    +0.000 N 
ATOM      8  N   UNL     1       4.407   5.758  16.802  0.00  0.00    +0.000 NA
ATOM      9  C   UNL     1       4.835   4.586  17.128  0.00  0.00    +0.000 A 
ATOM     10  N   UNL     1       5.598   3.739  16.371  0.00  0.00    +0.000 N 
ATOM     11  S   UNL     1       4.355   4.052  18.743  0.00  0.00    +0.000 S 
ATOM     12  C   UNL     1       3.511   5.565  18.935  0.00  0.00    +0.000 A 
ATOM     13  N   UNL     1       2.842   5.936  19.980  0.00  0.00    +0.000 NA
ATOM     14  C   UNL     1       2.205   7.201  19.896  0.00  0.00    +0.000 A 
ATOM     15  C   UNL     1       1.411   7.656  20.960  0.00  0.00    +0.000 A 
ATOM     16  H   UNL     1       5.794   2.827  16.760  0.00  0.00    +0.000 HD
ENDROOT
BRANCH  10  17
ATOM     17  C   UNL     1       6.058   3.956  15.053  0.00  0.00    +0.000 A 
ATOM     18  C   UNL     1       5.470   3.384  13.913  0.00  0.00    +0.000 A 
ATOM     19  C   UNL     1       5.971   3.608  12.627  0.00  0.00    +0.000 A 
ATOM     20  C   UNL     1       7.076   4.428  12.447  0.00  0.00    +0.000 A 
ATOM     21  C   UNL     1       7.669   5.027  13.554  0.00  0.00    +0.000 A 
ATOM     22  C   UNL     1       7.164   4.796  14.843  0.00  0.00    +0.000 A 
ENDBRANCH  10  17
BRANCH   1  24
ATOM     23  O   UNL     1      -0.831   8.596  22.586  0.00  0.00    +0.000 OA
ATOM     24  C   UNL     1      -0.201   9.390  21.895  0.00  0.00    +0.000 C 
ATOM     25  N   UNL     1      -0.342  10.753  21.993  0.00  0.00    +0.000 N 
ATOM     26  H   UNL     1       0.012  11.348  21.256  0.00  0.00    +0.000 HD
BRANCH  25  27
ATOM     27  C   UNL     1      -1.378  11.292  22.846  0.00  0.00    +0.000 C 
BRANCH  27  28
ATOM     28  C   UNL     1      -1.191  12.767  22.949  0.00  0.00    +0.000 A 
ATOM     29  C   UNL     1      -1.822  13.641  23.814  0.00  0.00    +0.000 A 
ATOM     30  C   UNL     1      -1.410  14.988  23.617  0.00  0.00    +0.000 A 
ATOM     31  C   UNL     1      -0.476  15.098  22.611  0.00  0.00    +0.000 A 
ATOM     32  S   UNL     1      -0.100  13.584  21.913  0.00  0.00    +0.000 S 
ENDBRANCH  27  28
ENDBRANCH  25  27
ENDBRANCH   1  24
TORSDOF 4
ENDMDL
MODEL 4
REMARK VINA RESULT:      -8.1      2.076     10.669
REMARK  Name = 
REMARK  4 active torsions:
REMARK  status: ('A' for Active; 'I' for Inactive)
REMARK    1  A    between atoms: C_2  and  C_10
REMARK    2  A    between atoms: N_3  and  C_4
REMARK    3  A    between atoms: C_4  and  C_5
REMARK    4  A    between atoms: N_19  and  C_20
REMARK                            x       y       z     vdW  Elec       q    Type
REMARK                         _______ _______ _______ _____ _____    ______ ____
ROOT
ATOM      1  C   UNL     1       2.896   6.487  18.927  0.00  0.00    +0.000 A 
ATOM      2  C   UNL     1       2.935   7.460  17.919  0.00  0.00    +0.000 A 
ATOM      3  C   UNL     1       2.265   8.661  18.087  0.00  0.00    +0.000 A 
ATOM      4  C   UNL     1       1.579   8.894  19.280  0.00  0.00    +0.000 A 
ATOM      5  C   UNL     1       0.905  10.189  19.462  0.00  0.00    +0.000 A 
ATOM      6  O   UNL     1       0.881  11.007  18.550  0.00  0.00    +0.000 OA
ATOM      7  N   UNL     1       0.343  10.354  20.709  0.00  0.00    +0.000 N 
ATOM      8  N   UNL     1      -0.267  11.523  21.013  0.00  0.00    +0.000 NA
ATOM      9  C   UNL     1      -0.733  11.510  22.217  0.00  0.00    +0.000 A 
ATOM     10  N   UNL     1      -1.397  12.517  22.863  0.00  0.00    +0.000 N 
ATOM     11  S   UNL     1      -0.455  10.002  23.095  0.00  0.00    +0.000 S 
ATOM     12  C   UNL     1       0.359   9.390  21.679  0.00  0.00    +0.000 A 
ATOM     13  N   UNL     1       0.895   8.217  21.558  0.00  0.00    +0.000 NA
ATOM     14  C   UNL     1       1.538   7.951  20.321  0.00  0.00    +0.000 A 
ATOM     15  C   UNL     1       2.194   6.727  20.123  0.00  0.00    +0.000 A 
ATOM     16  H   UNL     1      -1.639  12.359  23.830  0.00  0.00    +0.000 HD
ENDROOT
BRANCH  10  17
ATOM     17  C   UNL     1      -1.691  13.803  22.357  0.00  0.00    +0.000 A 
ATOM     18  C   UNL     1      -2.763  14.078  21.492  0.00  0.00    +0.000 A 
ATOM     19  C   UNL     1      -3.006  15.363  20.997  0.00  0.00    +0.000 A 
ATOM     20  C   UNL     1      -2.183  16.417  21.368  0.00  0.00    +0.000 A 
ATOM     21  C   UNL     1      -1.126  16.181  22.242  0.00  0.00    +0.000 A 
ATOM     22  C   UNL     1      -0.884  14.890  22.733  0.00  0.00    +0.000 A 
ENDBRANCH  10  17
BRANCH   1  24
ATOM     23  O   UNL     1       4.507   4.885  19.498  0.00  0.00    +0.000 OA
ATOM     24  C   UNL     1       3.680   5.254  18.671  0.00  0.00    +0.000 C 
ATOM     25  N   UNL     1       3.473   4.615  17.474  0.00  0.00    +0.000 N 
ATOM     26  H   UNL     1       2.961   5.083  16.737  0.00  0.00    +0.000 HD
BRANCH  25  27
ATOM     27  C   UNL     1       4.358   3.538  17.090  0.00  0.00    +0.000 C 
BRANCH  27  28
ATOM     28  C   UNL     1       5.393   4.078  16.164  0.00  0.00    +0.000 A 
ATOM     29  C   UNL     1       5.310   4.213  14.791  0.00  0.00    +0.000 A 
ATOM     30  C   UNL     1       6.502   4.751  14.228  0.00  0.00    +0.000 A 
ATOM     31  C   UNL     1       7.452   5.011  15.190  0.00  0.00    +0.000 A 
ATOM     32  S   UNL     1       6.907   4.610  16.760  0.00  0.00    +0.000 S 
ENDBRANCH  27  28
ENDBRANCH  25  27
ENDBRANCH   1  24
TORSDOF 4
ENDMDL
MODEL 5
REMARK VINA RESULT:      -8.1      2.527      3.737
REMARK  Name = 
REMARK  4 active torsions:
REMARK  status: ('A' for Active; 'I' for Inactive)
REMARK    1  A    between atoms: C_2  and  C_10
REMARK    2  A    between atoms: N_3  and  C_4
REMARK    3  A    between atoms: C_4  and  C_5
REMARK    4  A    between atoms: N_19  and  C_20
REMARK                            x       y       z     vdW  Elec       q    Type
REMARK                         _______ _______ _______ _____ _____    ______ ____
ROOT
ATOM      1  C   UNL     1      -1.004  11.340  20.295  0.00  0.00    +0.000 A 
ATOM      2  C   UNL     1      -0.473  11.726  19.057  0.00  0.00    +0.000 A 
ATOM      3  C   UNL     1       0.519  10.967  18.459  0.00  0.00    +0.000 A 
ATOM      4  C   UNL     1       0.957   9.802  19.092  0.00  0.00    +0.000 A 
ATOM      5  C   UNL     1       1.981   8.982  18.427  0.00  0.00    +0.000 A 
ATOM      6  O   UNL     1       2.493   9.363  17.381  0.00  0.00    +0.000 OA
ATOM      7  N   UNL     1       2.270   7.809  19.087  0.00  0.00    +0.000 N 
ATOM      8  N   UNL     1       3.166   6.947  18.550  0.00  0.00    +0.000 NA
ATOM      9  C   UNL     1       3.315   5.902  19.292  0.00  0.00    +0.000 A 
ATOM     10  N   UNL     1       4.126   4.825  19.058  0.00  0.00    +0.000 N 
ATOM     11  S   UNL     1       2.338   5.902  20.764  0.00  0.00    +0.000 S 
ATOM     12  C   UNL     1       1.701   7.451  20.278  0.00  0.00    +0.000 A 
ATOM     13  N   UNL     1       0.831   8.154  20.931  0.00  0.00    +0.000 NA
ATOM     14  C   UNL     1       0.430   9.372  20.323  0.00  0.00    +0.000 A 
ATOM     15  C   UNL     1      -0.550  10.169  20.932  0.00  0.00    +0.000 A 
ATOM     16  H   UNL     1       4.073   4.061  19.717  0.00  0.00    +0.000 HD
ENDROOT
BRANCH  10  17
ATOM     17  C   UNL     1       4.957   4.613  17.935  0.00  0.00    +0.000 A 
ATOM     18  C   UNL     1       6.351   4.786  17.949  0.00  0.00    +0.000 A 
ATOM     19  C   UNL     1       7.134   4.586  16.808  0.00  0.00    +0.000 A 
ATOM     20  C   UNL     1       6.539   4.195  15.618  0.00  0.00    +0.000 A 
ATOM     21  C   UNL     1       5.162   3.995  15.577  0.00  0.00    +0.000 A 
ATOM     22  C   UNL     1       4.380   4.199  16.723  0.00  0.00    +0.000 A 
ENDBRANCH  10  17
BRANCH   1  24
ATOM     23  O   UNL     1      -2.221  12.308  22.047  0.00  0.00    +0.000 OA
ATOM     24  C   UNL     1      -2.090  12.194  20.833  0.00  0.00    +0.000 C 
ATOM     25  N   UNL     1      -2.941  12.775  19.925  0.00  0.00    +0.000 N 
ATOM     26  H   UNL     1      -2.935  12.464  18.962  0.00  0.00    +0.000 HD
BRANCH  25  27
ATOM     27  C   UNL     1      -4.133  13.439  20.404  0.00  0.00    +0.000 C 
BRANCH  27  28
ATOM     28  C   UNL     1      -5.306  12.559  20.144  0.00  0.00    +0.000 A 
ATOM     29  C   UNL     1      -5.547  11.778  19.029  0.00  0.00    +0.000 A 
ATOM     30  C   UNL     1      -6.784  11.079  19.115  0.00  0.00    +0.000 A 
ATOM     31  C   UNL     1      -7.445  11.348  20.292  0.00  0.00    +0.000 A 
ATOM     32  S   UNL     1      -6.575  12.433  21.286  0.00  0.00    +0.000 S 
ENDBRANCH  27  28
ENDBRANCH  25  27
ENDBRANCH   1  24
TORSDOF 4
ENDMDL
MODEL 6
REMARK VINA RESULT:      -7.9      2.167     10.917
REMARK  Name = 
REMARK  4 active torsions:
REMARK  status: ('A' for Active; 'I' for Inactive)
REMARK    1  A    between atoms: C_2  and  C_10
REMARK    2  A    between atoms: N_3  and  C_4
REMARK    3  A    between atoms: C_4  and  C_5
REMARK    4  A    between atoms: N_19  and  C_20
REMARK                            x       y       z     vdW  Elec       q    Type
REMARK                         _______ _______ _______ _____ _____    ______ ____
ROOT
ATOM      1  C   UNL     1       2.572   7.048  18.605  0.00  0.00    +0.000 A 
ATOM      2  C   UNL     1       2.623   8.122  17.705  0.00  0.00    +0.000 A 
ATOM      3  C   UNL     1       1.993   9.317  18.013  0.00  0.00    +0.000 A 
ATOM      4  C   UNL     1       1.336   9.441  19.238  0.00  0.00    +0.000 A 
ATOM      5  C   UNL     1       0.706  10.728  19.571  0.00  0.00    +0.000 A 
ATOM      6  O   UNL     1       0.692  11.639  18.751  0.00  0.00    +0.000 OA
ATOM      7  N   UNL     1       0.172  10.776  20.839  0.00  0.00    +0.000 N 
ATOM      8  N   UNL     1      -0.397  11.923  21.278  0.00  0.00    +0.000 NA
ATOM      9  C   UNL     1      -0.842  11.795  22.483  0.00  0.00    +0.000 A 
ATOM     10  N   UNL     1      -1.463  12.747  23.246  0.00  0.00    +0.000 N 
ATOM     11  S   UNL     1      -0.595  10.195  23.190  0.00  0.00    +0.000 S 
ATOM     12  C   UNL     1       0.175   9.713  21.701  0.00  0.00    +0.000 A 
ATOM     13  N   UNL     1       0.671   8.545  21.445  0.00  0.00    +0.000 NA
ATOM     14  C   UNL     1       1.284   8.393  20.174  0.00  0.00    +0.000 A 
ATOM     15  C   UNL     1       1.899   7.179  19.834  0.00  0.00    +0.000 A 
ATOM     16  H   UNL     1      -1.692  12.493  24.196  0.00  0.00    +0.000 HD
ENDROOT
BRANCH  10  17
ATOM     17  C   UNL     1      -1.726  14.087  22.886  0.00  0.00    +0.000 A 
ATOM     18  C   UNL     1      -0.853  15.155  23.151  0.00  0.00    +0.000 A 
ATOM     19  C   UNL     1      -1.163  16.472  22.796  0.00  0.00    +0.000 A 
ATOM     20  C   UNL     1      -2.360  16.754  22.152  0.00  0.00    +0.000 A 
ATOM     21  C   UNL     1      -3.236  15.714  21.857  0.00  0.00    +0.000 A 
ATOM     22  C   UNL     1      -2.922  14.395  22.217  0.00  0.00    +0.000 A 
ENDBRANCH  10  17
BRANCH   1  24
ATOM     23  O   UNL     1       2.692   4.867  17.757  0.00  0.00    +0.000 OA
ATOM     24  C   UNL     1       3.312   5.827  18.204  0.00  0.00    +0.000 C 
ATOM     25  N   UNL     1       4.669   5.818  18.413  0.00  0.00    +0.000 N 
ATOM     26  H   UNL     1       5.092   6.531  18.993  0.00  0.00    +0.000 HD
BRANCH  25  27
ATOM     27  C   UNL     1       5.398   4.582  18.237  0.00  0.00    +0.000 C 
BRANCH  27  28
ATOM     28  C   UNL     1       5.885   4.511  16.830  0.00  0.00    +0.000 A 
ATOM     29  C   UNL     1       5.430   3.687  15.819  0.00  0.00    +0.000 A 
ATOM     30  C   UNL     1       6.143   3.879  14.603  0.00  0.00    +0.000 A 
ATOM     31  C   UNL     1       7.117   4.845  14.726  0.00  0.00    +0.000 A 
ATOM     32  S   UNL     1       7.165   5.515  16.297  0.00  0.00    +0.000 S 
ENDBRANCH  27  28
ENDBRANCH  25  27
ENDBRANCH   1  24
TORSDOF 4
ENDMDL
MODEL 7
REMARK VINA RESULT:      -7.8      3.002     10.875
REMARK  Name = 
REMARK  4 active torsions:
REMARK  status: ('A' for Active; 'I' for Inactive)
REMARK    1  A    between atoms: C_2  and  C_10
REMARK    2  A    between atoms: N_3  and  C_4
REMARK    3  A    between atoms: C_4  and  C_5
REMARK    4  A    between atoms: N_19  and  C_20
REMARK                            x       y       z     vdW  Elec       q    Type
REMARK                         _______ _______ _______ _____ _____    ______ ____
ROOT
ATOM      1  C   UNL     1       2.767   7.674  18.516  0.00  0.00    +0.000 A 
ATOM      2  C   UNL     1       2.437   8.652  17.568  0.00  0.00    +0.000 A 
ATOM      3  C   UNL     1       1.517   9.639  17.881  0.00  0.00    +0.000 A 
ATOM      4  C   UNL     1       0.950   9.659  19.156  0.00  0.00    +0.000 A 
ATOM      5  C   UNL     1       0.005  10.736  19.489  0.00  0.00    +0.000 A 
ATOM      6  O   UNL     1      -0.335  11.545  18.634  0.00  0.00    +0.000 OA
ATOM      7  N   UNL     1      -0.420  10.720  20.798  0.00  0.00    +0.000 N 
ATOM      8  N   UNL     1      -1.258  11.688  21.238  0.00  0.00    +0.000 NA
ATOM      9  C   UNL     1      -1.551  11.525  22.484  0.00  0.00    +0.000 A 
ATOM     10  N   UNL     1      -2.358  12.314  23.258  0.00  0.00    +0.000 N 
ATOM     11  S   UNL     1      -0.801  10.113  23.236  0.00  0.00    +0.000 S 
ATOM     12  C   UNL     1      -0.044   9.765  21.703  0.00  0.00    +0.000 A 
ATOM     13  N   UNL     1       0.746   8.770  21.454  0.00  0.00    +0.000 NA
ATOM     14  C   UNL     1       1.275   8.708  20.139  0.00  0.00    +0.000 A 
ATOM     15  C   UNL     1       2.184   7.696  19.797  0.00  0.00    +0.000 A 
ATOM     16  H   UNL     1      -2.430  12.074  24.237  0.00  0.00    +0.000 HD
ENDROOT
BRANCH  10  17
ATOM     17  C   UNL     1      -3.023  13.497  22.865  0.00  0.00    +0.000 A 
ATOM     18  C   UNL     1      -2.465  14.781  22.971  0.00  0.00    +0.000 A 
ATOM     19  C   UNL     1      -3.167  15.929  22.590  0.00  0.00    +0.000 A 
ATOM     20  C   UNL     1      -4.452  15.818  22.078  0.00  0.00    +0.000 A 
ATOM     21  C   UNL     1      -5.025  14.557  21.940  0.00  0.00    +0.000 A 
ATOM     22  C   UNL     1      -4.318  13.409  22.327  0.00  0.00    +0.000 A 
ENDBRANCH  10  17
BRANCH   1  24
ATOM     23  O   UNL     1       4.114   6.612  16.920  0.00  0.00    +0.000 OA
ATOM     24  C   UNL     1       3.794   6.687  18.102  0.00  0.00    +0.000 C 
ATOM     25  N   UNL     1       4.295   5.856  19.073  0.00  0.00    +0.000 N 
ATOM     26  H   UNL     1       3.833   5.799  19.972  0.00  0.00    +0.000 HD
BRANCH  25  27
ATOM     27  C   UNL     1       5.134   4.744  18.683  0.00  0.00    +0.000 C 
BRANCH  27  28
ATOM     28  C   UNL     1       4.282   3.530  18.543  0.00  0.00    +0.000 A 
ATOM     29  C   UNL     1       3.464   3.189  17.482  0.00  0.00    +0.000 A 
ATOM     30  C   UNL     1       2.780   1.960  17.700  0.00  0.00    +0.000 A 
ATOM     31  C   UNL     1       3.102   1.402  18.917  0.00  0.00    +0.000 A 
ATOM     32  S   UNL     1       4.223   2.356  19.787  0.00  0.00    +0.000 S 
ENDBRANCH  27  28
ENDBRANCH  25  27
ENDBRANCH   1  24
TORSDOF 4
ENDMDL
MODEL 8
REMARK VINA RESULT:      -7.8      3.174     10.802
REMARK  Name = 
REMARK  4 active torsions:
REMARK  status: ('A' for Active; 'I' for Inactive)
REMARK    1  A    between atoms: C_2  and  C_10
REMARK    2  A    between atoms: N_3  and  C_4
REMARK    3  A    between atoms: C_4  and  C_5
REMARK    4  A    between atoms: N_19  and  C_20
REMARK                            x       y       z     vdW  Elec       q    Type
REMARK                         _______ _______ _______ _____ _____    ______ ____
ROOT
ATOM      1  C   UNL     1       2.515   7.660  18.802  0.00  0.00    +0.000 A 
ATOM      2  C   UNL     1       2.272   8.559  17.755  0.00  0.00    +0.000 A 
ATOM      3  C   UNL     1       1.394   9.615  17.937  0.00  0.00    +0.000 A 
ATOM      4  C   UNL     1       0.783   9.783  19.180  0.00  0.00    +0.000 A 
ATOM      5  C   UNL     1      -0.115  10.932  19.373  0.00  0.00    +0.000 A 
ATOM      6  O   UNL     1      -0.381  11.672  18.434  0.00  0.00    +0.000 OA
ATOM      7  N   UNL     1      -0.588  11.061  20.660  0.00  0.00    +0.000 N 
ATOM      8  N   UNL     1      -1.389  12.105  20.974  0.00  0.00    +0.000 NA
ATOM      9  C   UNL     1      -1.735  12.075  22.216  0.00  0.00    +0.000 A 
ATOM     10  N   UNL     1      -2.527  12.973  22.881  0.00  0.00    +0.000 N 
ATOM     11  S   UNL     1      -1.088  10.706  23.126  0.00  0.00    +0.000 S 
ATOM     12  C   UNL     1      -0.296  10.178  21.664  0.00  0.00    +0.000 A 
ATOM     13  N   UNL     1       0.449   9.126  21.541  0.00  0.00    +0.000 NA
ATOM     14  C   UNL     1       1.021   8.914  20.259  0.00  0.00    +0.000 A 
ATOM     15  C   UNL     1       1.888   7.831  20.051  0.00  0.00    +0.000 A 
ATOM     16  H   UNL     1      -2.647  12.830  23.873  0.00  0.00    +0.000 HD
ENDROOT
BRANCH  10  17
ATOM     17  C   UNL     1      -3.114  14.144  22.353  0.00  0.00    +0.000 A 
ATOM     18  C   UNL     1      -4.235  14.146  21.508  0.00  0.00    +0.000 A 
ATOM     19  C   UNL     1      -4.772  15.328  20.989  0.00  0.00    +0.000 A 
ATOM     20  C   UNL     1      -4.201  16.550  21.315  0.00  0.00    +0.000 A 
ATOM     21  C   UNL     1      -3.102  16.584  22.167  0.00  0.00    +0.000 A 
ATOM     22  C   UNL     1      -2.565  15.395  22.683  0.00  0.00    +0.000 A 
ENDBRANCH  10  17
BRANCH   1  24
ATOM     23  O   UNL     1       3.818   6.349  17.362  0.00  0.00    +0.000 OA
ATOM     24  C   UNL     1       3.502   6.588  18.523  0.00  0.00    +0.000 C 
ATOM     25  N   UNL     1       3.972   5.872  19.596  0.00  0.00    +0.000 N 
ATOM     26  H   UNL     1       3.509   5.949  20.492  0.00  0.00    +0.000 HD
BRANCH  25  27
ATOM     27  C   UNL     1       4.767   4.688  19.356  0.00  0.00    +0.000 C 
BRANCH  27  28
ATOM     28  C   UNL     1       3.853   3.556  19.034  0.00  0.00    +0.000 A 
ATOM     29  C   UNL     1       3.757   2.859  17.845  0.00  0.00    +0.000 A 
ATOM     30  C   UNL     1       2.756   1.849  17.890  0.00  0.00    +0.000 A 
ATOM     31  C   UNL     1       2.124   1.806  19.112  0.00  0.00    +0.000 A 
ATOM     32  S   UNL     1       2.738   2.976  20.197  0.00  0.00    +0.000 S 
ENDBRANCH  27  28
ENDBRANCH  25  27
ENDBRANCH   1  24
TORSDOF 4
ENDMDL
MODEL 9
REMARK VINA RESULT:      -7.8      2.146     10.707
REMARK  Name = 
REMARK  4 active torsions:
REMARK  status: ('A' for Active; 'I' for Inactive)
REMARK    1  A    between atoms: C_2  and  C_10
REMARK    2  A    between atoms: N_3  and  C_4
REMARK    3  A    between atoms: C_4  and  C_5
REMARK    4  A    between atoms: N_19  and  C_20
REMARK                            x       y       z     vdW  Elec       q    Type
REMARK                         _______ _______ _______ _____ _____    ______ ____
ROOT
ATOM      1  C   UNL     1       2.876   6.447  18.925  0.00  0.00    +0.000 A 
ATOM      2  C   UNL     1       2.930   7.424  17.922  0.00  0.00    +0.000 A 
ATOM      3  C   UNL     1       2.275   8.632  18.094  0.00  0.00    +0.000 A 
ATOM      4  C   UNL     1       1.590   8.869  19.286  0.00  0.00    +0.000 A 
ATOM      5  C   UNL     1       0.933  10.172  19.473  0.00  0.00    +0.000 A 
ATOM      6  O   UNL     1       0.921  10.994  18.565  0.00  0.00    +0.000 OA
ATOM      7  N   UNL     1       0.370  10.339  20.719  0.00  0.00    +0.000 N 
ATOM      8  N   UNL     1      -0.226  11.514  21.028  0.00  0.00    +0.000 NA
ATOM      9  C   UNL     1      -0.694  11.502  22.230  0.00  0.00    +0.000 A 
ATOM     10  N   UNL     1      -1.346  12.515  22.879  0.00  0.00    +0.000 N 
ATOM     11  S   UNL     1      -0.437   9.987  23.102  0.00  0.00    +0.000 S 
ATOM     12  C   UNL     1       0.372   9.370  21.685  0.00  0.00    +0.000 A 
ATOM     13  N   UNL     1       0.892   8.191  21.560  0.00  0.00    +0.000 NA
ATOM     14  C   UNL     1       1.534   7.922  20.323  0.00  0.00    +0.000 A 
ATOM     15  C   UNL     1       2.175   6.690  20.122  0.00  0.00    +0.000 A 
ATOM     16  H   UNL     1      -1.592  12.356  23.846  0.00  0.00    +0.000 HD
ENDROOT
BRANCH  10  17
ATOM     17  C   UNL     1      -1.623  13.807  22.379  0.00  0.00    +0.000 A 
ATOM     18  C   UNL     1      -0.780  14.915  22.561  0.00  0.00    +0.000 A 
ATOM     19  C   UNL     1      -1.103  16.183  22.067  0.00  0.00    +0.000 A 
ATOM     20  C   UNL     1      -2.283  16.372  21.363  0.00  0.00    +0.000 A 
ATOM     21  C   UNL     1      -3.130  15.290  21.147  0.00  0.00    +0.000 A 
ATOM     22  C   UNL     1      -2.803  14.020  21.647  0.00  0.00    +0.000 A 
ENDBRANCH  10  17
BRANCH   1  24
ATOM     23  O   UNL     1       4.419   4.787  19.521  0.00  0.00    +0.000 OA
ATOM     24  C   UNL     1       3.644   5.205  18.666  0.00  0.00    +0.000 C 
ATOM     25  N   UNL     1       3.487   4.614  17.437  0.00  0.00    +0.000 N 
ATOM     26  H   UNL     1       3.026   5.120  16.692  0.00  0.00    +0.000 HD
BRANCH  25  27
ATOM     27  C   UNL     1       4.367   3.529  17.061  0.00  0.00    +0.000 C 
BRANCH  27  28
ATOM     28  C   UNL     1       5.502   4.087  16.273  0.00  0.00    +0.000 A 
ATOM     29  C   UNL     1       6.719   4.538  16.747  0.00  0.00    +0.000 A 
ATOM     30  C   UNL     1       7.558   5.023  15.705  0.00  0.00    +0.000 A 
ATOM     31  C   UNL     1       6.955   4.925  14.471  0.00  0.00    +0.000 A 
ATOM     32  S   UNL     1       5.389   4.248  14.572  0.00  0.00    +0.000 S 
ENDBRANCH  27  28
ENDBRANCH  25  27
ENDBRANCH   1  24
TORSDOF 4
ENDMDL
