MODEL 1
REMARK VINA RESULT:      -8.4      0.000      0.000
REMARK  Name = 
REMARK  8 active torsions:
REMARK  status: ('A' for Active; 'I' for Inactive)
REMARK    1  A    between atoms: C_2  and  O_3
REMARK    2  A    between atoms: C_2  and  C_4
REMARK    3  A    between atoms: N_8  and  C_9
REMARK    4  A    between atoms: C_9  and  C_10
REMARK    5  A    between atoms: C_10  and  O_11
REMARK    6  A    between atoms: O_11  and  N_12
REMARK    7  A    between atoms: C_13  and  C_14
REMARK    8  A    between atoms: C_13  and  C_21
REMARK                            x       y       z     vdW  Elec       q    Type
REMARK                         _______ _______ _______ _____ _____    ______ ____
ROOT
ATOM      1  N   UNL     1       3.287   7.119  17.851  0.00  0.00    +0.000 NA
ATOM      2  C   UNL     1       3.569   5.872  18.047  0.00  0.00    +0.000 C 
ENDROOT
BRANCH   2   3
ATOM      3  C   UNL     1       2.692   5.003  18.918  0.00  0.00    +0.000 A 
ATOM      4  C   UNL     1       2.719   5.051  20.332  0.00  0.00    +0.000 A 
ATOM      5  C   UNL     1       1.937   4.172  21.089  0.00  0.00    +0.000 A 
ATOM      6  C   UNL     1       1.126   3.230  20.458  0.00  0.00    +0.000 A 
ATOM      7  C   UNL     1       1.081   3.170  19.067  0.00  0.00    +0.000 A 
ATOM      8  F   UNL     1       0.299   2.248  18.452  0.00  0.00    +0.000 F 
ATOM      9  C   UNL     1       1.853   4.047  18.305  0.00  0.00    +0.000 A 
ENDBRANCH   2   3
BRANCH   2  10
ATOM     10  C   UNL     1       4.868   5.353  17.508  0.00  0.00    +0.000 A 
ATOM     11  C   UNL     1       4.978   4.966  16.157  0.00  0.00    +0.000 A 
ATOM     12  C   UNL     1       6.182   4.471  15.646  0.00  0.00    +0.000 A 
ATOM     13  C   UNL     1       7.292   4.346  16.477  0.00  0.00    +0.000 A 
ATOM     14  C   UNL     1       7.209   4.732  17.815  0.00  0.00    +0.000 A 
ATOM     15  C   UNL     1       6.014   5.244  18.332  0.00  0.00    +0.000 A 
ATOM     16  F   UNL     1       5.974   5.593  19.642  0.00  0.00    +0.000 F 
ENDBRANCH   2  10
BRANCH   1  17
ATOM     17  O   UNL     1       2.203   7.676  18.345  0.00  0.00    +0.000 OA
BRANCH  17  18
ATOM     18  C   UNL     1       1.735   8.888  17.905  0.00  0.00    +0.000 C 
BRANCH  18  19
ATOM     19  C   UNL     1       1.383   9.748  19.127  0.00  0.00    +0.000 C 
BRANCH  19  24
ATOM     20  C   UNL     1      -2.000  11.456  18.993  0.00  0.00    +0.000 C 
ATOM     21  C   UNL     1      -1.548  12.922  19.179  0.00  0.00    +0.000 C 
ATOM     22  C   UNL     1      -0.168  13.169  18.554  0.00  0.00    +0.000 C 
ATOM     23  C   UNL     1       0.844  12.157  19.098  0.00  0.00    +0.000 C 
ATOM     24  N   UNL     1       0.376  10.782  18.802  0.00  0.00    +0.000 NA
ATOM     25  C   UNL     1      -0.889  10.527  19.528  0.00  0.00    +0.000 C 
BRANCH  20  27
ATOM     26  O   UNL     1      -3.356  11.537  17.021  0.00  0.00    +0.000 OA
ATOM     27  C   UNL     1      -2.352  11.094  17.558  0.00  0.00    +0.000 C 
BRANCH  27  28
ATOM     28  O   UNL     1      -1.571  10.238  16.866  0.00  0.00    +0.000 OA
ATOM     29  H   UNL     1      -1.688   9.279  16.915  0.00  0.00    +0.000 HD
ENDBRANCH  27  28
ENDBRANCH  20  27
ENDBRANCH  19  24
ENDBRANCH  18  19
ENDBRANCH  17  18
ENDBRANCH   1  17
TORSDOF 8
ENDMDL
MODEL 2
REMARK VINA RESULT:      -8.4      1.941      2.261
REMARK  Name = 
REMARK  8 active torsions:
REMARK  status: ('A' for Active; 'I' for Inactive)
REMARK    1  A    between atoms: C_2  and  O_3
REMARK    2  A    between atoms: C_2  and  C_4
REMARK    3  A    between atoms: N_8  and  C_9
REMARK    4  A    between atoms: C_9  and  C_10
REMARK    5  A    between atoms: C_10  and  O_11
REMARK    6  A    between atoms: O_11  and  N_12
REMARK    7  A    between atoms: C_13  and  C_14
REMARK    8  A    between atoms: C_13  and  C_21
REMARK                            x       y       z     vdW  Elec       q    Type
REMARK                         _______ _______ _______ _____ _____    ______ ____
ROOT
ATOM      1  N   UNL     1       3.057   7.073  17.771  0.00  0.00    +0.000 NA
ATOM      2  C   UNL     1       3.420   5.858  18.033  0.00  0.00    +0.000 C 
ENDROOT
BRANCH   2   3
ATOM      3  C   UNL     1       2.574   4.966  18.911  0.00  0.00    +0.000 A 
ATOM      4  C   UNL     1       2.628   5.001  20.325  0.00  0.00    +0.000 A 
ATOM      5  C   UNL     1       1.876   4.101  21.088  0.00  0.00    +0.000 A 
ATOM      6  C   UNL     1       1.069   3.152  20.463  0.00  0.00    +0.000 A 
ATOM      7  C   UNL     1       0.999   3.104  19.073  0.00  0.00    +0.000 A 
ATOM      8  F   UNL     1       0.221   2.174  18.463  0.00  0.00    +0.000 F 
ATOM      9  C   UNL     1       1.740   4.002  18.305  0.00  0.00    +0.000 A 
ENDBRANCH   2   3
BRANCH   2  10
ATOM     10  C   UNL     1       4.771   5.412  17.562  0.00  0.00    +0.000 A 
ATOM     11  C   UNL     1       4.975   5.047  16.215  0.00  0.00    +0.000 A 
ATOM     12  C   UNL     1       6.227   4.619  15.767  0.00  0.00    +0.000 A 
ATOM     13  C   UNL     1       7.296   4.541  16.657  0.00  0.00    +0.000 A 
ATOM     14  C   UNL     1       7.121   4.907  17.992  0.00  0.00    +0.000 A 
ATOM     15  C   UNL     1       5.874   5.352  18.446  0.00  0.00    +0.000 A 
ATOM     16  F   UNL     1       5.745   5.684  19.755  0.00  0.00    +0.000 F 
ENDBRANCH   2  10
BRANCH   1  17
ATOM     17  O   UNL     1       1.920   7.571  18.204  0.00  0.00    +0.000 OA
BRANCH  17  18
ATOM     18  C   UNL     1       1.774   8.897  18.521  0.00  0.00    +0.000 C 
BRANCH  18  19
ATOM     19  C   UNL     1       1.508   9.011  20.028  0.00  0.00    +0.000 C 
BRANCH  19  24
ATOM     20  C   UNL     1      -0.184  12.062  21.515  0.00  0.00    +0.000 C 
ATOM     21  C   UNL     1      -1.092  12.450  20.324  0.00  0.00    +0.000 C 
ATOM     22  C   UNL     1      -1.551  11.214  19.540  0.00  0.00    +0.000 C 
ATOM     23  C   UNL     1      -0.339  10.378  19.121  0.00  0.00    +0.000 C 
ATOM     24  N   UNL     1       0.426   9.977  20.326  0.00  0.00    +0.000 NA
ATOM     25  C   UNL     1       0.970  11.185  20.987  0.00  0.00    +0.000 C 
BRANCH  20  27
ATOM     26  O   UNL     1      -2.069  11.642  22.930  0.00  0.00    +0.000 OA
ATOM     27  C   UNL     1      -0.916  11.357  22.646  0.00  0.00    +0.000 C 
BRANCH  27  28
ATOM     28  O   UNL     1      -0.279  10.423  23.384  0.00  0.00    +0.000 OA
ATOM     29  H   UNL     1       0.424   9.869  23.019  0.00  0.00    +0.000 HD
ENDBRANCH  27  28
ENDBRANCH  20  27
ENDBRANCH  19  24
ENDBRANCH  18  19
ENDBRANCH  17  18
ENDBRANCH   1  17
TORSDOF 8
ENDMDL
MODEL 3
REMARK VINA RESULT:      -8.4      1.286      1.549
REMARK  Name = 
REMARK  8 active torsions:
REMARK  status: ('A' for Active; 'I' for Inactive)
REMARK    1  A    between atoms: C_2  and  O_3
REMARK    2  A    between atoms: C_2  and  C_4
REMARK    3  A    between atoms: N_8  and  C_9
REMARK    4  A    between atoms: C_9  and  C_10
REMARK    5  A    between atoms: C_10  and  O_11
REMARK    6  A    between atoms: O_11  and  N_12
REMARK    7  A    between atoms: C_13  and  C_14
REMARK    8  A    between atoms: C_13  and  C_21
REMARK                            x       y       z     vdW  Elec       q    Type
REMARK                         _______ _______ _______ _____ _____    ______ ____
ROOT
ATOM      1  N   UNL     1       3.098   7.078  17.832  0.00  0.00    +0.000 NA
ATOM      2  C   UNL     1       3.446   5.853  18.058  0.00  0.00    +0.000 C 
ENDROOT
BRANCH   2   3
ATOM      3  C   UNL     1       2.605   4.954  18.935  0.00  0.00    +0.000 A 
ATOM      4  C   UNL     1       2.666   4.980  20.349  0.00  0.00    +0.000 A 
ATOM      5  C   UNL     1       1.918   4.075  21.110  0.00  0.00    +0.000 A 
ATOM      6  C   UNL     1       1.108   3.129  20.483  0.00  0.00    +0.000 A 
ATOM      7  C   UNL     1       1.030   3.091  19.093  0.00  0.00    +0.000 A 
ATOM      8  F   UNL     1       0.250   2.165  18.480  0.00  0.00    +0.000 F 
ATOM      9  C   UNL     1       1.768   3.994  18.326  0.00  0.00    +0.000 A 
ENDBRANCH   2   3
BRANCH   2  10
ATOM     10  C   UNL     1       4.779   5.396  17.548  0.00  0.00    +0.000 A 
ATOM     11  C   UNL     1       4.946   5.052  16.191  0.00  0.00    +0.000 A 
ATOM     12  C   UNL     1       6.181   4.615  15.706  0.00  0.00    +0.000 A 
ATOM     13  C   UNL     1       7.269   4.505  16.569  0.00  0.00    +0.000 A 
ATOM     14  C   UNL     1       7.130   4.849  17.913  0.00  0.00    +0.000 A 
ATOM     15  C   UNL     1       5.901   5.304  18.405  0.00  0.00    +0.000 A 
ATOM     16  F   UNL     1       5.807   5.613  19.722  0.00  0.00    +0.000 F 
ENDBRANCH   2  10
BRANCH   1  17
ATOM     17  O   UNL     1       1.978   7.585  18.300  0.00  0.00    +0.000 OA
BRANCH  17  18
ATOM     18  C   UNL     1       1.767   8.937  18.391  0.00  0.00    +0.000 C 
BRANCH  18  19
ATOM     19  C   UNL     1       1.257   9.257  19.803  0.00  0.00    +0.000 C 
BRANCH  19  24
ATOM     20  C   UNL     1      -1.071  11.945  18.487  0.00  0.00    +0.000 C 
ATOM     21  C   UNL     1      -1.997  12.099  19.716  0.00  0.00    +0.000 C 
ATOM     22  C   UNL     1      -1.239  11.849  21.026  0.00  0.00    +0.000 C 
ATOM     23  C   UNL     1      -0.533  10.492  20.974  0.00  0.00    +0.000 C 
ATOM     24  N   UNL     1       0.397  10.461  19.820  0.00  0.00    +0.000 NA
ATOM     25  C   UNL     1      -0.378  10.569  18.563  0.00  0.00    +0.000 C 
BRANCH  20  27
ATOM     26  O   UNL     1      -0.346  14.228  18.496  0.00  0.00    +0.000 OA
ATOM     27  C   UNL     1      -0.039  13.055  18.347  0.00  0.00    +0.000 C 
BRANCH  27  28
ATOM     28  O   UNL     1       1.234  12.755  18.014  0.00  0.00    +0.000 OA
ATOM     29  H   UNL     1       1.473  11.921  17.587  0.00  0.00    +0.000 HD
ENDBRANCH  27  28
ENDBRANCH  20  27
ENDBRANCH  19  24
ENDBRANCH  18  19
ENDBRANCH  17  18
ENDBRANCH   1  17
TORSDOF 8
ENDMDL
MODEL 4
REMARK VINA RESULT:      -8.3      2.165      2.614
REMARK  Name = 
REMARK  8 active torsions:
REMARK  status: ('A' for Active; 'I' for Inactive)
REMARK    1  A    between atoms: C_2  and  O_3
REMARK    2  A    between atoms: C_2  and  C_4
REMARK    3  A    between atoms: N_8  and  C_9
REMARK    4  A    between atoms: C_9  and  C_10
REMARK    5  A    between atoms: C_10  and  O_11
REMARK    6  A    between atoms: O_11  and  N_12
REMARK    7  A    between atoms: C_13  and  C_14
REMARK    8  A    between atoms: C_13  and  C_21
REMARK                            x       y       z     vdW  Elec       q    Type
REMARK                         _______ _______ _______ _____ _____    ______ ____
ROOT
ATOM      1  N   UNL     1       3.179   6.904  17.951  0.00  0.00    +0.000 NA
ATOM      2  C   UNL     1       3.522   5.658  18.014  0.00  0.00    +0.000 C 
ENDROOT
BRANCH   2   3
ATOM      3  C   UNL     1       2.660   4.649  18.736  0.00  0.00    +0.000 A 
ATOM      4  C   UNL     1       1.688   3.856  18.080  0.00  0.00    +0.000 A 
ATOM      5  C   UNL     1       0.867   2.989  18.811  0.00  0.00    +0.000 A 
ATOM      6  C   UNL     1       0.992   2.902  20.196  0.00  0.00    +0.000 A 
ATOM      7  C   UNL     1       1.946   3.670  20.859  0.00  0.00    +0.000 A 
ATOM      8  F   UNL     1       2.063   3.594  22.208  0.00  0.00    +0.000 F 
ATOM      9  C   UNL     1       2.773   4.532  20.138  0.00  0.00    +0.000 A 
ENDBRANCH   2   3
BRANCH   2  10
ATOM     10  C   UNL     1       4.868   5.273  17.479  0.00  0.00    +0.000 A 
ATOM     11  C   UNL     1       5.027   4.927  16.122  0.00  0.00    +0.000 A 
ATOM     12  C   UNL     1       6.275   4.556  15.615  0.00  0.00    +0.000 A 
ATOM     13  C   UNL     1       7.385   4.517  16.456  0.00  0.00    +0.000 A 
ATOM     14  C   UNL     1       7.254   4.864  17.800  0.00  0.00    +0.000 A 
ATOM     15  C   UNL     1       6.011   5.253  18.313  0.00  0.00    +0.000 A 
ATOM     16  F   UNL     1       5.926   5.569  19.630  0.00  0.00    +0.000 F 
ENDBRANCH   2  10
BRANCH   1  17
ATOM     17  O   UNL     1       2.047   7.344  18.456  0.00  0.00    +0.000 OA
BRANCH  17  18
ATOM     18  C   UNL     1       1.880   8.644  18.860  0.00  0.00    +0.000 C 
BRANCH  18  19
ATOM     19  C   UNL     1       1.320   8.642  20.289  0.00  0.00    +0.000 C 
BRANCH  19  24
ATOM     20  C   UNL     1      -0.134  11.898  21.579  0.00  0.00    +0.000 C 
ATOM     21  C   UNL     1      -0.932  12.329  20.327  0.00  0.00    +0.000 C 
ATOM     22  C   UNL     1      -1.471  11.116  19.557  0.00  0.00    +0.000 C 
ATOM     23  C   UNL     1      -0.328  10.149  19.235  0.00  0.00    +0.000 C 
ATOM     24  N   UNL     1       0.327   9.720  20.494  0.00  0.00    +0.000 NA
ATOM     25  C   UNL     1       0.953  10.892  21.146  0.00  0.00    +0.000 C 
BRANCH  20  27
ATOM     26  O   UNL     1      -2.094  11.771  22.948  0.00  0.00    +0.000 OA
ATOM     27  C   UNL     1      -0.993  11.311  22.688  0.00  0.00    +0.000 C 
BRANCH  27  28
ATOM     28  O   UNL     1      -0.525  10.288  23.434  0.00  0.00    +0.000 OA
ATOM     29  H   UNL     1      -0.908   9.401  23.391  0.00  0.00    +0.000 HD
ENDBRANCH  27  28
ENDBRANCH  20  27
ENDBRANCH  19  24
ENDBRANCH  18  19
ENDBRANCH  17  18
ENDBRANCH   1  17
TORSDOF 8
ENDMDL
MODEL 5
REMARK VINA RESULT:      -8.3      1.928      2.483
REMARK  Name = 
REMARK  8 active torsions:
REMARK  status: ('A' for Active; 'I' for Inactive)
REMARK    1  A    between atoms: C_2  and  O_3
REMARK    2  A    between atoms: C_2  and  C_4
REMARK    3  A    between atoms: N_8  and  C_9
REMARK    4  A    between atoms: C_9  and  C_10
REMARK    5  A    between atoms: C_10  and  O_11
REMARK    6  A    between atoms: O_11  and  N_12
REMARK    7  A    between atoms: C_13  and  C_14
REMARK    8  A    between atoms: C_13  and  C_21
REMARK                            x       y       z     vdW  Elec       q    Type
REMARK                         _______ _______ _______ _____ _____    ______ ____
ROOT
ATOM      1  N   UNL     1       3.290   7.011  17.714  0.00  0.00    +0.000 NA
ATOM      2  C   UNL     1       3.640   5.830  18.110  0.00  0.00    +0.000 C 
ENDROOT
BRANCH   2   3
ATOM      3  C   UNL     1       2.714   4.986  18.954  0.00  0.00    +0.000 A 
ATOM      4  C   UNL     1       2.679   5.058  20.367  0.00  0.00    +0.000 A 
ATOM      5  C   UNL     1       1.853   4.201  21.103  0.00  0.00    +0.000 A 
ATOM      6  C   UNL     1       1.059   3.258  20.452  0.00  0.00    +0.000 A 
ATOM      7  C   UNL     1       1.076   3.175  19.062  0.00  0.00    +0.000 A 
ATOM      8  F   UNL     1       0.311   2.252  18.427  0.00  0.00    +0.000 F 
ATOM      9  C   UNL     1       1.891   4.030  18.320  0.00  0.00    +0.000 A 
ENDBRANCH   2   3
BRANCH   2  10
ATOM     10  C   UNL     1       5.043   5.383  17.831  0.00  0.00    +0.000 A 
ATOM     11  C   UNL     1       6.083   5.685  18.736  0.00  0.00    +0.000 A 
ATOM     12  C   UNL     1       7.397   5.283  18.481  0.00  0.00    +0.000 A 
ATOM     13  C   UNL     1       7.698   4.581  17.316  0.00  0.00    +0.000 A 
ATOM     14  C   UNL     1       6.685   4.264  16.412  0.00  0.00    +0.000 A 
ATOM     15  C   UNL     1       5.363   4.647  16.666  0.00  0.00    +0.000 A 
ATOM     16  F   UNL     1       4.411   4.330  15.752  0.00  0.00    +0.000 F 
ENDBRANCH   2  10
BRANCH   1  17
ATOM     17  O   UNL     1       2.102   7.511  17.974  0.00  0.00    +0.000 OA
BRANCH  17  18
ATOM     18  C   UNL     1       1.923   8.565  18.834  0.00  0.00    +0.000 C 
BRANCH  18  19
ATOM     19  C   UNL     1       1.014   9.599  18.154  0.00  0.00    +0.000 C 
BRANCH  19  24
ATOM     20  C   UNL     1       0.165  11.749  21.160  0.00  0.00    +0.000 C 
ATOM     21  C   UNL     1      -1.031  12.535  20.576  0.00  0.00    +0.000 C 
ATOM     22  C   UNL     1      -1.826  11.689  19.573  0.00  0.00    +0.000 C 
ATOM     23  C   UNL     1      -0.890  11.134  18.496  0.00  0.00    +0.000 C 
ATOM     24  N   UNL     1       0.175  10.325  19.134  0.00  0.00    +0.000 NA
ATOM     25  C   UNL     1       1.009  11.198  19.992  0.00  0.00    +0.000 C 
BRANCH  20  27
ATOM     26  O   UNL     1      -0.494  10.847  23.279  0.00  0.00    +0.000 OA
ATOM     27  C   UNL     1      -0.236  10.626  22.105  0.00  0.00    +0.000 C 
BRANCH  27  28
ATOM     28  O   UNL     1      -0.272   9.352  21.663  0.00  0.00    +0.000 OA
ATOM     29  H   UNL     1       0.264   8.652  22.060  0.00  0.00    +0.000 HD
ENDBRANCH  27  28
ENDBRANCH  20  27
ENDBRANCH  19  24
ENDBRANCH  18  19
ENDBRANCH  17  18
ENDBRANCH   1  17
TORSDOF 8
ENDMDL
MODEL 6
REMARK VINA RESULT:      -8.3      1.182      1.607
REMARK  Name = 
REMARK  8 active torsions:
REMARK  status: ('A' for Active; 'I' for Inactive)
REMARK    1  A    between atoms: C_2  and  O_3
REMARK    2  A    between atoms: C_2  and  C_4
REMARK    3  A    between atoms: N_8  and  C_9
REMARK    4  A    between atoms: C_9  and  C_10
REMARK    5  A    between atoms: C_10  and  O_11
REMARK    6  A    between atoms: O_11  and  N_12
REMARK    7  A    between atoms: C_13  and  C_14
REMARK    8  A    between atoms: C_13  and  C_21
REMARK                            x       y       z     vdW  Elec       q    Type
REMARK                         _______ _______ _______ _____ _____    ______ ____
ROOT
ATOM      1  N   UNL     1       3.326   7.186  18.043  0.00  0.00    +0.000 NA
ATOM      2  C   UNL     1       3.579   5.921  18.146  0.00  0.00    +0.000 C 
ENDROOT
BRANCH   2   3
ATOM      3  C   UNL     1       2.711   5.021  18.994  0.00  0.00    +0.000 A 
ATOM      4  C   UNL     1       2.768   5.005  20.408  0.00  0.00    +0.000 A 
ATOM      5  C   UNL     1       1.993   4.098  21.141  0.00  0.00    +0.000 A 
ATOM      6  C   UNL     1       1.160   3.194  20.484  0.00  0.00    +0.000 A 
ATOM      7  C   UNL     1       1.087   3.198  19.093  0.00  0.00    +0.000 A 
ATOM      8  F   UNL     1       0.284   2.311  18.453  0.00  0.00    +0.000 F 
ATOM      9  C   UNL     1       1.851   4.102  18.356  0.00  0.00    +0.000 A 
ENDBRANCH   2   3
BRANCH   2  10
ATOM     10  C   UNL     1       4.840   5.404  17.521  0.00  0.00    +0.000 A 
ATOM     11  C   UNL     1       4.875   5.070  16.152  0.00  0.00    +0.000 A 
ATOM     12  C   UNL     1       6.041   4.577  15.561  0.00  0.00    +0.000 A 
ATOM     13  C   UNL     1       7.190   4.401  16.329  0.00  0.00    +0.000 A 
ATOM     14  C   UNL     1       7.182   4.734  17.683  0.00  0.00    +0.000 A 
ATOM     15  C   UNL     1       6.023   5.244  18.280  0.00  0.00    +0.000 A 
ATOM     16  F   UNL     1       6.056   5.541  19.604  0.00  0.00    +0.000 F 
ENDBRANCH   2  10
BRANCH   1  17
ATOM     17  O   UNL     1       2.281   7.739  18.617  0.00  0.00    +0.000 OA
BRANCH  17  18
ATOM     18  C   UNL     1       1.715   8.898  18.150  0.00  0.00    +0.000 C 
BRANCH  18  19
ATOM     19  C   UNL     1       1.061   9.631  19.330  0.00  0.00    +0.000 C 
BRANCH  19  24
ATOM     20  C   UNL     1      -1.489  12.348  18.628  0.00  0.00    +0.000 C 
ATOM     21  C   UNL     1      -2.207  11.711  17.416  0.00  0.00    +0.000 C 
ATOM     22  C   UNL     1      -2.235  10.181  17.519  0.00  0.00    +0.000 C 
ATOM     23  C   UNL     1      -0.817   9.642  17.726  0.00  0.00    +0.000 C 
ATOM     24  N   UNL     1      -0.235  10.237  18.953  0.00  0.00    +0.000 NA
ATOM     25  C   UNL     1      -0.096  11.700  18.771  0.00  0.00    +0.000 C 
BRANCH  20  27
ATOM     26  O   UNL     1      -3.453  12.513  19.988  0.00  0.00    +0.000 OA
ATOM     27  C   UNL     1      -2.264  12.241  19.933  0.00  0.00    +0.000 C 
BRANCH  27  28
ATOM     28  O   UNL     1      -1.629  11.877  21.067  0.00  0.00    +0.000 OA
ATOM     29  H   UNL     1      -1.514  12.483  21.811  0.00  0.00    +0.000 HD
ENDBRANCH  27  28
ENDBRANCH  20  27
ENDBRANCH  19  24
ENDBRANCH  18  19
ENDBRANCH  17  18
ENDBRANCH   1  17
TORSDOF 8
ENDMDL
MODEL 7
REMARK VINA RESULT:      -8.2      1.170      1.492
REMARK  Name = 
REMARK  8 active torsions:
REMARK  status: ('A' for Active; 'I' for Inactive)
REMARK    1  A    between atoms: C_2  and  O_3
REMARK    2  A    between atoms: C_2  and  C_4
REMARK    3  A    between atoms: N_8  and  C_9
REMARK    4  A    between atoms: C_9  and  C_10
REMARK    5  A    between atoms: C_10  and  O_11
REMARK    6  A    between atoms: O_11  and  N_12
REMARK    7  A    between atoms: C_13  and  C_14
REMARK    8  A    between atoms: C_13  and  C_21
REMARK                            x       y       z     vdW  Elec       q    Type
REMARK                         _______ _______ _______ _____ _____    ______ ____
ROOT
ATOM      1  N   UNL     1       3.581   7.288  17.941  0.00  0.00    +0.000 NA
ATOM      2  C   UNL     1       3.779   6.010  17.901  0.00  0.00    +0.000 C 
ENDROOT
BRANCH   2   3
ATOM      3  C   UNL     1       2.846   5.056  18.610  0.00  0.00    +0.000 A 
ATOM      4  C   UNL     1       1.789   4.382  17.954  0.00  0.00    +0.000 A 
ATOM      5  C   UNL     1       0.910   3.565  18.675  0.00  0.00    +0.000 A 
ATOM      6  C   UNL     1       1.062   3.412  20.052  0.00  0.00    +0.000 A 
ATOM      7  C   UNL     1       2.100   4.062  20.715  0.00  0.00    +0.000 A 
ATOM      8  F   UNL     1       2.243   3.922  22.057  0.00  0.00    +0.000 F 
ATOM      9  C   UNL     1       2.984   4.873  20.003  0.00  0.00    +0.000 A 
ENDBRANCH   2   3
BRANCH   2  10
ATOM     10  C   UNL     1       5.039   5.514  17.259  0.00  0.00    +0.000 A 
ATOM     11  C   UNL     1       5.115   5.356  15.859  0.00  0.00    +0.000 A 
ATOM     12  C   UNL     1       6.281   4.884  15.250  0.00  0.00    +0.000 A 
ATOM     13  C   UNL     1       7.389   4.555  16.028  0.00  0.00    +0.000 A 
ATOM     14  C   UNL     1       7.340   4.712  17.413  0.00  0.00    +0.000 A 
ATOM     15  C   UNL     1       6.183   5.199  18.030  0.00  0.00    +0.000 A 
ATOM     16  F   UNL     1       6.175   5.323  19.382  0.00  0.00    +0.000 F 
ENDBRANCH   2  10
BRANCH   1  17
ATOM     17  O   UNL     1       2.539   7.815  18.544  0.00  0.00    +0.000 OA
BRANCH  17  18
ATOM     18  C   UNL     1       1.618   8.584  17.879  0.00  0.00    +0.000 C 
BRANCH  18  19
ATOM     19  C   UNL     1       2.005  10.061  18.047  0.00  0.00    +0.000 C 
BRANCH  19  24
ATOM     20  C   UNL     1      -1.565  10.925  18.993  0.00  0.00    +0.000 C 
ATOM     21  C   UNL     1      -1.289  11.806  20.233  0.00  0.00    +0.000 C 
ATOM     22  C   UNL     1       0.027  12.582  20.091  0.00  0.00    +0.000 C 
ATOM     23  C   UNL     1       1.174  11.618  19.774  0.00  0.00    +0.000 C 
ATOM     24  N   UNL     1       0.867  10.877  18.527  0.00  0.00    +0.000 NA
ATOM     25  C   UNL     1      -0.331  10.034  18.739  0.00  0.00    +0.000 C 
BRANCH  20  27
ATOM     26  O   UNL     1      -2.924  11.456  17.095  0.00  0.00    +0.000 OA
ATOM     27  C   UNL     1      -1.920  11.713  17.742  0.00  0.00    +0.000 C 
BRANCH  27  28
ATOM     28  O   UNL     1      -1.100  12.691  17.304  0.00  0.00    +0.000 OA
ATOM     29  H   UNL     1      -0.177  12.755  17.584  0.00  0.00    +0.000 HD
ENDBRANCH  27  28
ENDBRANCH  20  27
ENDBRANCH  19  24
ENDBRANCH  18  19
ENDBRANCH  17  18
ENDBRANCH   1  17
TORSDOF 8
ENDMDL
MODEL 8
REMARK VINA RESULT:      -8.2      0.920      1.274
REMARK  Name = 
REMARK  8 active torsions:
REMARK  status: ('A' for Active; 'I' for Inactive)
REMARK    1  A    between atoms: C_2  and  O_3
REMARK    2  A    between atoms: C_2  and  C_4
REMARK    3  A    between atoms: N_8  and  C_9
REMARK    4  A    between atoms: C_9  and  C_10
REMARK    5  A    between atoms: C_10  and  O_11
REMARK    6  A    between atoms: O_11  and  N_12
REMARK    7  A    between atoms: C_13  and  C_14
REMARK    8  A    between atoms: C_13  and  C_21
REMARK                            x       y       z     vdW  Elec       q    Type
REMARK                         _______ _______ _______ _____ _____    ______ ____
ROOT
ATOM      1  N   UNL     1       3.300   7.098  18.066  0.00  0.00    +0.000 NA
ATOM      2  C   UNL     1       3.617   5.867  18.306  0.00  0.00    +0.000 C 
ENDROOT
BRANCH   2   3
ATOM      3  C   UNL     1       2.704   4.970  19.108  0.00  0.00    +0.000 A 
ATOM      4  C   UNL     1       2.705   4.936  20.523  0.00  0.00    +0.000 A 
ATOM      5  C   UNL     1       1.889   4.033  21.213  0.00  0.00    +0.000 A 
ATOM      6  C   UNL     1       1.069   3.149  20.514  0.00  0.00    +0.000 A 
ATOM      7  C   UNL     1       1.050   3.171  19.121  0.00  0.00    +0.000 A 
ATOM      8  F   UNL     1       0.260   2.304  18.439  0.00  0.00    +0.000 F 
ATOM      9  C   UNL     1       1.855   4.071  18.425  0.00  0.00    +0.000 A 
ENDBRANCH   2   3
BRANCH   2  10
ATOM     10  C   UNL     1       4.980   5.400  17.892  0.00  0.00    +0.000 A 
ATOM     11  C   UNL     1       6.116   5.747  18.651  0.00  0.00    +0.000 A 
ATOM     12  C   UNL     1       7.393   5.326  18.268  0.00  0.00    +0.000 A 
ATOM     13  C   UNL     1       7.558   4.559  17.117  0.00  0.00    +0.000 A 
ATOM     14  C   UNL     1       6.448   4.196  16.356  0.00  0.00    +0.000 A 
ATOM     15  C   UNL     1       5.163   4.599  16.740  0.00  0.00    +0.000 A 
ATOM     16  F   UNL     1       4.113   4.236  15.961  0.00  0.00    +0.000 F 
ENDBRANCH   2  10
BRANCH   1  17
ATOM     17  O   UNL     1       2.154   7.613  18.454  0.00  0.00    +0.000 OA
BRANCH  17  18
ATOM     18  C   UNL     1       1.536   8.627  17.769  0.00  0.00    +0.000 C 
BRANCH  18  19
ATOM     19  C   UNL     1       1.824   9.951  18.491  0.00  0.00    +0.000 C 
BRANCH  19  24
ATOM     20  C   UNL     1      -1.718  11.204  19.002  0.00  0.00    +0.000 C 
ATOM     21  C   UNL     1      -1.416  12.686  19.322  0.00  0.00    +0.000 C 
ATOM     22  C   UNL     1      -0.174  13.183  18.570  0.00  0.00    +0.000 C 
ATOM     23  C   UNL     1       1.013  12.256  18.847  0.00  0.00    +0.000 C 
ATOM     24  N   UNL     1       0.670  10.875  18.432  0.00  0.00    +0.000 NA
ATOM     25  C   UNL     1      -0.445  10.374  19.268  0.00  0.00    +0.000 C 
BRANCH  20  27
ATOM     26  O   UNL     1      -3.220  11.534  17.166  0.00  0.00    +0.000 OA
ATOM     27  C   UNL     1      -2.222  10.968  17.586  0.00  0.00    +0.000 C 
BRANCH  27  28
ATOM     28  O   UNL     1      -1.588  10.090  16.781  0.00  0.00    +0.000 OA
ATOM     29  H   UNL     1      -2.055   9.376  16.327  0.00  0.00    +0.000 HD
ENDBRANCH  27  28
ENDBRANCH  20  27
ENDBRANCH  19  24
ENDBRANCH  18  19
ENDBRANCH  17  18
ENDBRANCH   1  17
TORSDOF 8
ENDMDL
MODEL 9
REMARK VINA RESULT:      -8.2      2.168      2.756
REMARK  Name = 
REMARK  8 active torsions:
REMARK  status: ('A' for Active; 'I' for Inactive)
REMARK    1  A    between atoms: C_2  and  O_3
REMARK    2  A    between atoms: C_2  and  C_4
REMARK    3  A    between atoms: N_8  and  C_9
REMARK    4  A    between atoms: C_9  and  C_10
REMARK    5  A    between atoms: C_10  and  O_11
REMARK    6  A    between atoms: O_11  and  N_12
REMARK    7  A    between atoms: C_13  and  C_14
REMARK    8  A    between atoms: C_13  and  C_21
REMARK                            x       y       z     vdW  Elec       q    Type
REMARK                         _______ _______ _______ _____ _____    ______ ____
ROOT
ATOM      1  N   UNL     1       3.154   6.912  17.807  0.00  0.00    +0.000 NA
ATOM      2  C   UNL     1       3.526   5.680  17.946  0.00  0.00    +0.000 C 
ENDROOT
BRANCH   2   3
ATOM      3  C   UNL     1       2.668   4.687  18.694  0.00  0.00    +0.000 A 
ATOM      4  C   UNL     1       1.652   3.924  18.071  0.00  0.00    +0.000 A 
ATOM      5  C   UNL     1       0.838   3.072  18.827  0.00  0.00    +0.000 A 
ATOM      6  C   UNL     1       1.014   2.971  20.206  0.00  0.00    +0.000 A 
ATOM      7  C   UNL     1       2.011   3.711  20.836  0.00  0.00    +0.000 A 
ATOM      8  F   UNL     1       2.177   3.621  22.180  0.00  0.00    +0.000 F 
ATOM      9  C   UNL     1       2.831   4.557  20.090  0.00  0.00    +0.000 A 
ENDBRANCH   2   3
BRANCH   2  10
ATOM     10  C   UNL     1       4.898   5.304  17.473  0.00  0.00    +0.000 A 
ATOM     11  C   UNL     1       5.118   4.949  16.126  0.00  0.00    +0.000 A 
ATOM     12  C   UNL     1       6.390   4.586  15.676  0.00  0.00    +0.000 A 
ATOM     13  C   UNL     1       7.463   4.563  16.565  0.00  0.00    +0.000 A 
ATOM     14  C   UNL     1       7.271   4.920  17.899  0.00  0.00    +0.000 A 
ATOM     15  C   UNL     1       6.004   5.301  18.355  0.00  0.00    +0.000 A 
ATOM     16  F   UNL     1       5.860   5.627  19.665  0.00  0.00    +0.000 F 
ENDBRANCH   2  10
BRANCH   1  17
ATOM     17  O   UNL     1       1.997   7.346  18.254  0.00  0.00    +0.000 OA
BRANCH  17  18
ATOM     18  C   UNL     1       1.864   8.552  18.895  0.00  0.00    +0.000 C 
BRANCH  18  19
ATOM     19  C   UNL     1       1.539   8.286  20.371  0.00  0.00    +0.000 C 
BRANCH  19  24
ATOM     20  C   UNL     1      -0.357  11.559  20.642  0.00  0.00    +0.000 C 
ATOM     21  C   UNL     1      -1.198  11.258  21.904  0.00  0.00    +0.000 C 
ATOM     22  C   UNL     1      -0.444  10.343  22.878  0.00  0.00    +0.000 C 
ATOM     23  C   UNL     1       0.024   9.077  22.154  0.00  0.00    +0.000 C 
ATOM     24  N   UNL     1       0.892   9.453  21.013  0.00  0.00    +0.000 NA
ATOM     25  C   UNL     1       0.100  10.221  20.025  0.00  0.00    +0.000 C 
BRANCH  20  27
ATOM     26  O   UNL     1       0.801  13.338  21.751  0.00  0.00    +0.000 OA
ATOM     27  C   UNL     1       0.838  12.465  20.898  0.00  0.00    +0.000 C 
BRANCH  27  28
ATOM     28  O   UNL     1       1.953  12.339  20.147  0.00  0.00    +0.000 OA
ATOM     29  H   UNL     1       2.363  13.092  19.702  0.00  0.00    +0.000 HD
ENDBRANCH  27  28
ENDBRANCH  20  27
ENDBRANCH  19  24
ENDBRANCH  18  19
ENDBRANCH  17  18
ENDBRANCH   1  17
TORSDOF 8
ENDMDL
