MODEL 1
REMARK VINA RESULT:      -6.9      0.000      0.000
REMARK  Name = 
REMARK  6 active torsions:
REMARK  status: ('A' for Active; 'I' for Inactive)
REMARK    1  A    between atoms: C_1  and  O_2
REMARK    2  A    between atoms: O_2  and  C_3
REMARK    3  A    between atoms: C_6  and  C_7
REMARK    4  A    between atoms: C_10  and  C_11
REMARK    5  A    between atoms: C_21  and  O_22
REMARK    6  A    between atoms: O_22  and  C_23
REMARK                            x       y       z     vdW  Elec       q    Type
REMARK                         _______ _______ _______ _____ _____    ______ ____
ROOT
ATOM      1  C   UNL     1       1.860   8.957  18.710  0.00  0.00    +0.000 C 
ATOM      2  N   UNL     1       2.022   9.758  17.702  0.00  0.00    +0.000 NA
ATOM      3  N   UNL     1       1.496  10.951  18.060  0.00  0.00    +0.000 N 
ATOM      4  C   UNL     1       0.775  10.916  19.337  0.00  0.00    +0.000 C 
ATOM      5  C   UNL     1       1.138   9.544  19.893  0.00  0.00    +0.000 C 
ATOM      6  H   UNL     1       0.981  11.402  17.306  0.00  0.00    +0.000 HD
ENDROOT
BRANCH   4   7
ATOM      7  C   UNL     1      -0.710  11.225  19.230  0.00  0.00    +0.000 A 
ATOM      8  C   UNL     1      -1.558  10.671  18.245  0.00  0.00    +0.000 A 
ATOM      9 CL   UNL     1      -1.052   9.498  17.078  0.00  0.00    +0.000 Cl
ATOM     10  C   UNL     1      -2.909  11.040  18.151  0.00  0.00    +0.000 A 
ATOM     11  C   UNL     1      -3.455  11.959  19.035  0.00  0.00    +0.000 A 
ATOM     12  C   UNL     1      -2.658  12.496  20.033  0.00  0.00    +0.000 A 
ATOM     13  C   UNL     1      -1.306  12.134  20.137  0.00  0.00    +0.000 A 
ATOM     14 CL   UNL     1      -0.446  12.858  21.456  0.00  0.00    +0.000 Cl
ENDBRANCH   4   7
BRANCH   1  18
ATOM     15  C   UNL     1       3.532   5.021  18.870  0.00  0.00    +0.000 A 
ATOM     16  C   UNL     1       3.675   5.814  17.719  0.00  0.00    +0.000 A 
ATOM     17  C   UNL     1       3.109   7.088  17.655  0.00  0.00    +0.000 A 
ATOM     18  C   UNL     1       2.361   7.565  18.729  0.00  0.00    +0.000 A 
ATOM     19  C   UNL     1       2.124   6.734  19.826  0.00  0.00    +0.000 A 
ATOM     20  C   UNL     1       2.697   5.459  19.907  0.00  0.00    +0.000 A 
BRANCH  15  22
ATOM     21  C   UNL     1       3.849   2.876  17.941  0.00  0.00    +0.000 C 
ATOM     22  O   UNL     1       4.177   3.817  18.966  0.00  0.00    +0.000 OA
ENDBRANCH  15  22
BRANCH  20  23
ATOM     23  O   UNL     1       2.351   4.826  21.071  0.00  0.00    +0.000 OA
ATOM     24  C   UNL     1       1.527   3.674  21.012  0.00  0.00    +0.000 C 
ENDBRANCH  20  23
ENDBRANCH   1  18
TORSDOF 4
ENDMDL
MODEL 2
REMARK VINA RESULT:      -6.8      0.852      2.009
REMARK  Name = 
REMARK  6 active torsions:
REMARK  status: ('A' for Active; 'I' for Inactive)
REMARK    1  A    between atoms: C_1  and  O_2
REMARK    2  A    between atoms: O_2  and  C_3
REMARK    3  A    between atoms: C_6  and  C_7
REMARK    4  A    between atoms: C_10  and  C_11
REMARK    5  A    between atoms: C_21  and  O_22
REMARK    6  A    between atoms: O_22  and  C_23
REMARK                            x       y       z     vdW  Elec       q    Type
REMARK                         _______ _______ _______ _____ _____    ______ ____
ROOT
ATOM      1  C   UNL     1       1.795   8.981  18.785  0.00  0.00    +0.000 C 
ATOM      2  N   UNL     1       1.926   9.717  17.724  0.00  0.00    +0.000 NA
ATOM      3  N   UNL     1       1.407  10.929  18.023  0.00  0.00    +0.000 N 
ATOM      4  C   UNL     1       0.724  10.974  19.320  0.00  0.00    +0.000 C 
ATOM      5  C   UNL     1       1.105   9.640  19.949  0.00  0.00    +0.000 C 
ATOM      6  H   UNL     1       0.870  11.332  17.257  0.00  0.00    +0.000 HD
ENDROOT
BRANCH   4   7
ATOM      7  C   UNL     1      -0.765  11.275  19.236  0.00  0.00    +0.000 A 
ATOM      8  C   UNL     1      -1.625  10.718  18.264  0.00  0.00    +0.000 A 
ATOM      9 CL   UNL     1      -1.131   9.550  17.087  0.00  0.00    +0.000 Cl
ATOM     10  C   UNL     1      -2.979  11.080  18.191  0.00  0.00    +0.000 A 
ATOM     11  C   UNL     1      -3.517  11.993  19.086  0.00  0.00    +0.000 A 
ATOM     12  C   UNL     1      -2.707  12.533  20.073  0.00  0.00    +0.000 A 
ATOM     13  C   UNL     1      -1.352  12.178  20.155  0.00  0.00    +0.000 A 
ATOM     14 CL   UNL     1      -0.475  12.904  21.462  0.00  0.00    +0.000 Cl
ENDBRANCH   4   7
BRANCH   1  18
ATOM     15  C   UNL     1       3.030   4.886  18.931  0.00  0.00    +0.000 A 
ATOM     16  C   UNL     1       2.319   5.458  19.999  0.00  0.00    +0.000 A 
ATOM     17  C   UNL     1       1.937   6.800  19.964  0.00  0.00    +0.000 A 
ATOM     18  C   UNL     1       2.299   7.592  18.877  0.00  0.00    +0.000 A 
ATOM     19  C   UNL     1       3.101   7.054  17.870  0.00  0.00    +0.000 A 
ATOM     20  C   UNL     1       3.480   5.706  17.887  0.00  0.00    +0.000 A 
BRANCH  15  22
ATOM     21  C   UNL     1       4.553   3.188  19.532  0.00  0.00    +0.000 C 
ATOM     22  O   UNL     1       3.310   3.546  18.924  0.00  0.00    +0.000 OA
ENDBRANCH  15  22
BRANCH  20  23
ATOM     23  O   UNL     1       4.247   5.386  16.799  0.00  0.00    +0.000 OA
ATOM     24  C   UNL     1       5.120   6.363  16.257  0.00  0.00    +0.000 C 
ENDBRANCH  20  23
ENDBRANCH   1  18
TORSDOF 4
ENDMDL
MODEL 3
REMARK VINA RESULT:      -6.5      3.754      7.579
REMARK  Name = 
REMARK  6 active torsions:
REMARK  status: ('A' for Active; 'I' for Inactive)
REMARK    1  A    between atoms: C_1  and  O_2
REMARK    2  A    between atoms: O_2  and  C_3
REMARK    3  A    between atoms: C_6  and  C_7
REMARK    4  A    between atoms: C_10  and  C_11
REMARK    5  A    between atoms: C_21  and  O_22
REMARK    6  A    between atoms: O_22  and  C_23
REMARK                            x       y       z     vdW  Elec       q    Type
REMARK                         _______ _______ _______ _____ _____    ______ ____
ROOT
ATOM      1  C   UNL     1       1.452   8.297  19.607  0.00  0.00    +0.000 C 
ATOM      2  N   UNL     1       1.613   7.693  20.744  0.00  0.00    +0.000 NA
ATOM      3  N   UNL     1       2.603   6.789  20.571  0.00  0.00    +0.000 N 
ATOM      4  C   UNL     1       3.035   6.650  19.176  0.00  0.00    +0.000 C 
ATOM      5  C   UNL     1       2.332   7.811  18.486  0.00  0.00    +0.000 C 
ATOM      6  H   UNL     1       2.421   5.904  21.040  0.00  0.00    +0.000 HD
ENDROOT
BRANCH   4   7
ATOM      7  C   UNL     1       2.797   5.271  18.580  0.00  0.00    +0.000 A 
ATOM      8  C   UNL     1       1.869   4.340  19.100  0.00  0.00    +0.000 A 
ATOM      9 CL   UNL     1       0.812   4.665  20.430  0.00  0.00    +0.000 Cl
ATOM     10  C   UNL     1       1.734   3.057  18.550  0.00  0.00    +0.000 A 
ATOM     11  C   UNL     1       2.506   2.666  17.466  0.00  0.00    +0.000 A 
ATOM     12  C   UNL     1       3.402   3.567  16.912  0.00  0.00    +0.000 A 
ATOM     13  C   UNL     1       3.545   4.853  17.453  0.00  0.00    +0.000 A 
ATOM     14 CL   UNL     1       4.675   5.880  16.633  0.00  0.00    +0.000 Cl
ENDBRANCH   4   7
BRANCH   1  18
ATOM     15  C   UNL     1      -1.523  11.322  19.048  0.00  0.00    +0.000 A 
ATOM     16  C   UNL     1      -0.983  10.637  17.948  0.00  0.00    +0.000 A 
ATOM     17  C   UNL     1       0.005   9.668  18.125  0.00  0.00    +0.000 A 
ATOM     18  C   UNL     1       0.491   9.404  19.404  0.00  0.00    +0.000 A 
ATOM     19  C   UNL     1       0.036  10.163  20.483  0.00  0.00    +0.000 A 
ATOM     20  C   UNL     1      -0.965  11.129  20.320  0.00  0.00    +0.000 A 
BRANCH  15  22
ATOM     21  C   UNL     1      -3.762  11.609  18.364  0.00  0.00    +0.000 C 
ATOM     22  O   UNL     1      -2.564  12.195  18.878  0.00  0.00    +0.000 OA
ENDBRANCH  15  22
BRANCH  20  23
ATOM     23  O   UNL     1      -1.272  11.740  21.506  0.00  0.00    +0.000 OA
ATOM     24  C   UNL     1      -0.416  12.755  22.003  0.00  0.00    +0.000 C 
ENDBRANCH  20  23
ENDBRANCH   1  18
TORSDOF 4
ENDMDL
MODEL 4
REMARK VINA RESULT:      -6.5      3.928      7.825
REMARK  Name = 
REMARK  6 active torsions:
REMARK  status: ('A' for Active; 'I' for Inactive)
REMARK    1  A    between atoms: C_1  and  O_2
REMARK    2  A    between atoms: O_2  and  C_3
REMARK    3  A    between atoms: C_6  and  C_7
REMARK    4  A    between atoms: C_10  and  C_11
REMARK    5  A    between atoms: C_21  and  O_22
REMARK    6  A    between atoms: O_22  and  C_23
REMARK                            x       y       z     vdW  Elec       q    Type
REMARK                         _______ _______ _______ _____ _____    ______ ____
ROOT
ATOM      1  C   UNL     1       2.822   6.345  19.578  0.00  0.00    +0.000 C 
ATOM      2  N   UNL     1       2.352   5.135  19.607  0.00  0.00    +0.000 NA
ATOM      3  N   UNL     1       3.406   4.301  19.464  0.00  0.00    +0.000 N 
ATOM      4  C   UNL     1       4.662   4.990  19.148  0.00  0.00    +0.000 C 
ATOM      5  C   UNL     1       4.308   6.456  19.362  0.00  0.00    +0.000 C 
ATOM      6  H   UNL     1       3.205   3.506  18.860  0.00  0.00    +0.000 HD
ENDROOT
BRANCH   4   7
ATOM      7  C   UNL     1       5.250   4.632  17.792  0.00  0.00    +0.000 A 
ATOM      8  C   UNL     1       4.519   4.000  16.760  0.00  0.00    +0.000 A 
ATOM      9 CL   UNL     1       2.834   3.622  16.858  0.00  0.00    +0.000 Cl
ATOM     10  C   UNL     1       5.128   3.634  15.551  0.00  0.00    +0.000 A 
ATOM     11  C   UNL     1       6.472   3.894  15.327  0.00  0.00    +0.000 A 
ATOM     12  C   UNL     1       7.209   4.543  16.305  0.00  0.00    +0.000 A 
ATOM     13  C   UNL     1       6.611   4.914  17.519  0.00  0.00    +0.000 A 
ATOM     14 CL   UNL     1       7.646   5.750  18.630  0.00  0.00    +0.000 Cl
ENDBRANCH   4   7
BRANCH   1  18
ATOM     15  C   UNL     1       0.196   9.699  19.984  0.00  0.00    +0.000 A 
ATOM     16  C   UNL     1       1.073   9.604  18.891  0.00  0.00    +0.000 A 
ATOM     17  C   UNL     1       1.948   8.524  18.770  0.00  0.00    +0.000 A 
ATOM     18  C   UNL     1       1.980   7.548  19.763  0.00  0.00    +0.000 A 
ATOM     19  C   UNL     1       1.190   7.699  20.903  0.00  0.00    +0.000 A 
ATOM     20  C   UNL     1       0.298   8.772  21.030  0.00  0.00    +0.000 A 
BRANCH  15  22
ATOM     21  C   UNL     1      -1.366  11.010  18.799  0.00  0.00    +0.000 C 
ATOM     22  O   UNL     1      -0.731  10.705  20.042  0.00  0.00    +0.000 OA
ENDBRANCH  15  22
BRANCH  20  23
ATOM     23  O   UNL     1      -0.388   8.717  22.214  0.00  0.00    +0.000 OA
ATOM     24  C   UNL     1       0.002   9.567  23.279  0.00  0.00    +0.000 C 
ENDBRANCH  20  23
ENDBRANCH   1  18
TORSDOF 4
ENDMDL
MODEL 5
REMARK VINA RESULT:      -6.5      3.566      7.514
REMARK  Name = 
REMARK  6 active torsions:
REMARK  status: ('A' for Active; 'I' for Inactive)
REMARK    1  A    between atoms: C_1  and  O_2
REMARK    2  A    between atoms: O_2  and  C_3
REMARK    3  A    between atoms: C_6  and  C_7
REMARK    4  A    between atoms: C_10  and  C_11
REMARK    5  A    between atoms: C_21  and  O_22
REMARK    6  A    between atoms: O_22  and  C_23
REMARK                            x       y       z     vdW  Elec       q    Type
REMARK                         _______ _______ _______ _____ _____    ______ ____
ROOT
ATOM      1  C   UNL     1       2.023   7.722  19.448  0.00  0.00    +0.000 C 
ATOM      2  N   UNL     1       2.593   7.249  20.514  0.00  0.00    +0.000 NA
ATOM      3  N   UNL     1       3.407   6.248  20.112  0.00  0.00    +0.000 N 
ATOM      4  C   UNL     1       3.258   5.902  18.694  0.00  0.00    +0.000 C 
ATOM      5  C   UNL     1       2.382   7.028  18.161  0.00  0.00    +0.000 C 
ATOM      6  H   UNL     1       3.391   5.445  20.739  0.00  0.00    +0.000 HD
ENDROOT
BRANCH   4   7
ATOM      7  C   UNL     1       2.760   4.487  18.442  0.00  0.00    +0.000 A 
ATOM      8  C   UNL     1       1.723   3.876  19.182  0.00  0.00    +0.000 A 
ATOM      9 CL   UNL     1       0.812   4.675  20.417  0.00  0.00    +0.000 Cl
ATOM     10  C   UNL     1       1.345   2.544  18.950  0.00  0.00    +0.000 A 
ATOM     11  C   UNL     1       1.978   1.788  17.974  0.00  0.00    +0.000 A 
ATOM     12  C   UNL     1       2.977   2.369  17.209  0.00  0.00    +0.000 A 
ATOM     13  C   UNL     1       3.363   3.699  17.432  0.00  0.00    +0.000 A 
ATOM     14 CL   UNL     1       4.598   4.298  16.374  0.00  0.00    +0.000 Cl
ENDBRANCH   4   7
BRANCH   1  18
ATOM     15  C   UNL     1      -0.855  10.889  19.464  0.00  0.00    +0.000 A 
ATOM     16  C   UNL     1      -0.225  10.499  18.270  0.00  0.00    +0.000 A 
ATOM     17  C   UNL     1       0.732   9.484  18.267  0.00  0.00    +0.000 A 
ATOM     18  C   UNL     1       1.097   8.876  19.466  0.00  0.00    +0.000 A 
ATOM     19  C   UNL     1       0.555   9.340  20.666  0.00  0.00    +0.000 A 
ATOM     20  C   UNL     1      -0.416  10.349  20.681  0.00  0.00    +0.000 A 
BRANCH  15  22
ATOM     21  C   UNL     1      -2.781  11.677  18.355  0.00  0.00    +0.000 C 
ATOM     22  O   UNL     1      -1.866  11.811  19.445  0.00  0.00    +0.000 OA
ENDBRANCH  15  22
BRANCH  20  23
ATOM     23  O   UNL     1      -0.822  10.637  21.957  0.00  0.00    +0.000 OA
ATOM     24  C   UNL     1      -0.360   9.830  23.027  0.00  0.00    +0.000 C 
ENDBRANCH  20  23
ENDBRANCH   1  18
TORSDOF 4
ENDMDL
MODEL 6
REMARK VINA RESULT:      -6.5      1.069      1.345
REMARK  Name = 
REMARK  6 active torsions:
REMARK  status: ('A' for Active; 'I' for Inactive)
REMARK    1  A    between atoms: C_1  and  O_2
REMARK    2  A    between atoms: O_2  and  C_3
REMARK    3  A    between atoms: C_6  and  C_7
REMARK    4  A    between atoms: C_10  and  C_11
REMARK    5  A    between atoms: C_21  and  O_22
REMARK    6  A    between atoms: O_22  and  C_23
REMARK                            x       y       z     vdW  Elec       q    Type
REMARK                         _______ _______ _______ _____ _____    ______ ____
ROOT
ATOM      1  C   UNL     1       1.121   9.942  19.265  0.00  0.00    +0.000 C 
ATOM      2  N   UNL     1       1.388  11.043  18.631  0.00  0.00    +0.000 NA
ATOM      3  N   UNL     1       0.614  12.007  19.178  0.00  0.00    +0.000 N 
ATOM      4  C   UNL     1      -0.371  11.497  20.138  0.00  0.00    +0.000 C 
ATOM      5  C   UNL     1       0.060  10.048  20.327  0.00  0.00    +0.000 C 
ATOM      6  H   UNL     1       0.227  12.647  18.486  0.00  0.00    +0.000 HD
ENDROOT
BRANCH   4   7
ATOM      7  C   UNL     1      -1.819  11.719  19.731  0.00  0.00    +0.000 A 
ATOM      8  C   UNL     1      -2.396  11.182  18.558  0.00  0.00    +0.000 A 
ATOM      9 CL   UNL     1      -1.568  10.126  17.466  0.00  0.00    +0.000 Cl
ATOM     10  C   UNL     1      -3.720  11.471  18.196  0.00  0.00    +0.000 A 
ATOM     11  C   UNL     1      -4.510  12.290  18.990  0.00  0.00    +0.000 A 
ATOM     12  C   UNL     1      -3.983  12.806  20.164  0.00  0.00    +0.000 A 
ATOM     13  C   UNL     1      -2.661  12.524  20.536  0.00  0.00    +0.000 A 
ATOM     14 CL   UNL     1      -2.155  13.207  22.046  0.00  0.00    +0.000 Cl
ENDBRANCH   4   7
BRANCH   1  18
ATOM     15  C   UNL     1       3.335   6.339  18.606  0.00  0.00    +0.000 A 
ATOM     16  C   UNL     1       3.334   7.365  17.646  0.00  0.00    +0.000 A 
ATOM     17  C   UNL     1       2.593   8.530  17.847  0.00  0.00    +0.000 A 
ATOM     18  C   UNL     1       1.813   8.662  18.995  0.00  0.00    +0.000 A 
ATOM     19  C   UNL     1       1.725   7.598  19.893  0.00  0.00    +0.000 A 
ATOM     20  C   UNL     1       2.474   6.429  19.709  0.00  0.00    +0.000 A 
BRANCH  15  22
ATOM     21  C   UNL     1       3.789   4.383  17.369  0.00  0.00    +0.000 C 
ATOM     22  O   UNL     1       4.144   5.247  18.451  0.00  0.00    +0.000 OA
ENDBRANCH  15  22
BRANCH  20  23
ATOM     23  O   UNL     1       2.251   5.526  20.713  0.00  0.00    +0.000 OA
ATOM     24  C   UNL     1       1.307   4.487  20.512  0.00  0.00    +0.000 C 
ENDBRANCH  20  23
ENDBRANCH   1  18
TORSDOF 4
ENDMDL
MODEL 7
REMARK VINA RESULT:      -6.5      3.957      7.555
REMARK  Name = 
REMARK  6 active torsions:
REMARK  status: ('A' for Active; 'I' for Inactive)
REMARK    1  A    between atoms: C_1  and  O_2
REMARK    2  A    between atoms: O_2  and  C_3
REMARK    3  A    between atoms: C_6  and  C_7
REMARK    4  A    between atoms: C_10  and  C_11
REMARK    5  A    between atoms: C_21  and  O_22
REMARK    6  A    between atoms: O_22  and  C_23
REMARK                            x       y       z     vdW  Elec       q    Type
REMARK                         _______ _______ _______ _____ _____    ______ ____
ROOT
ATOM      1  C   UNL     1       1.722   7.728  20.090  0.00  0.00    +0.000 C 
ATOM      2  N   UNL     1       1.483   6.942  21.095  0.00  0.00    +0.000 NA
ATOM      3  N   UNL     1       2.344   5.905  20.995  0.00  0.00    +0.000 N 
ATOM      4  C   UNL     1       3.111   5.895  19.745  0.00  0.00    +0.000 C 
ATOM      5  C   UNL     1       2.793   7.257  19.142  0.00  0.00    +0.000 C 
ATOM      6  H   UNL     1       1.918   5.009  21.228  0.00  0.00    +0.000 HD
ENDROOT
BRANCH   4   7
ATOM      7  C   UNL     1       2.848   4.690  18.856  0.00  0.00    +0.000 A 
ATOM      8  C   UNL     1       1.835   3.737  19.104  0.00  0.00    +0.000 A 
ATOM      9 CL   UNL     1       0.694   3.850  20.400  0.00  0.00    +0.000 Cl
ATOM     10  C   UNL     1       1.676   2.608  18.287  0.00  0.00    +0.000 A 
ATOM     11  C   UNL     1       2.509   2.399  17.198  0.00  0.00    +0.000 A 
ATOM     12  C   UNL     1       3.493   3.332  16.908  0.00  0.00    +0.000 A 
ATOM     13  C   UNL     1       3.660   4.465  17.718  0.00  0.00    +0.000 A 
ATOM     14 CL   UNL     1       4.904   5.560  17.210  0.00  0.00    +0.000 Cl
ENDBRANCH   4   7
BRANCH   1  18
ATOM     15  C   UNL     1      -0.527  11.306  19.418  0.00  0.00    +0.000 A 
ATOM     16  C   UNL     1       0.212  10.718  18.378  0.00  0.00    +0.000 A 
ATOM     17  C   UNL     1       0.966   9.566  18.601  0.00  0.00    +0.000 A 
ATOM     18  C   UNL     1       1.019   9.013  19.879  0.00  0.00    +0.000 A 
ATOM     19  C   UNL     1       0.377   9.660  20.936  0.00  0.00    +0.000 A 
ATOM     20  C   UNL     1      -0.393  10.809  20.722  0.00  0.00    +0.000 A 
BRANCH  15  22
ATOM     21  C   UNL     1      -0.668  13.599  18.884  0.00  0.00    +0.000 C 
ATOM     22  O   UNL     1      -1.347  12.373  19.168  0.00  0.00    +0.000 OA
ENDBRANCH  15  22
BRANCH  20  23
ATOM     23  O   UNL     1      -0.947  11.267  21.888  0.00  0.00    +0.000 OA
ATOM     24  C   UNL     1      -0.898  10.449  23.044  0.00  0.00    +0.000 C 
ENDBRANCH  20  23
ENDBRANCH   1  18
TORSDOF 4
ENDMDL
MODEL 8
REMARK VINA RESULT:      -6.4      5.399      7.738
REMARK  Name = 
REMARK  6 active torsions:
REMARK  status: ('A' for Active; 'I' for Inactive)
REMARK    1  A    between atoms: C_1  and  O_2
REMARK    2  A    between atoms: O_2  and  C_3
REMARK    3  A    between atoms: C_6  and  C_7
REMARK    4  A    between atoms: C_10  and  C_11
REMARK    5  A    between atoms: C_21  and  O_22
REMARK    6  A    between atoms: O_22  and  C_23
REMARK                            x       y       z     vdW  Elec       q    Type
REMARK                         _______ _______ _______ _____ _____    ______ ____
ROOT
ATOM      1  C   UNL     1       5.623   4.105  16.777  0.00  0.00    +0.000 C 
ATOM      2  N   UNL     1       6.396   4.297  17.802  0.00  0.00    +0.000 NA
ATOM      3  N   UNL     1       5.684   3.958  18.899  0.00  0.00    +0.000 N 
ATOM      4  C   UNL     1       4.272   3.674  18.621  0.00  0.00    +0.000 C 
ATOM      5  C   UNL     1       4.230   3.633  17.099  0.00  0.00    +0.000 C 
ATOM      6  H   UNL     1       5.833   4.592  19.683  0.00  0.00    +0.000 HD
ENDROOT
BRANCH   4   7
ATOM      7  C   UNL     1       3.295   4.625  19.294  0.00  0.00    +0.000 A 
ATOM      8  C   UNL     1       3.204   6.002  18.990  0.00  0.00    +0.000 A 
ATOM      9 CL   UNL     1       4.125   6.785  17.753  0.00  0.00    +0.000 Cl
ATOM     10  C   UNL     1       2.329   6.849  19.687  0.00  0.00    +0.000 A 
ATOM     11  C   UNL     1       1.515   6.352  20.694  0.00  0.00    +0.000 A 
ATOM     12  C   UNL     1       1.557   4.999  20.994  0.00  0.00    +0.000 A 
ATOM     13  C   UNL     1       2.427   4.143  20.304  0.00  0.00    +0.000 A 
ATOM     14 CL   UNL     1       2.342   2.474  20.761  0.00  0.00    +0.000 Cl
ENDBRANCH   4   7
BRANCH   1  18
ATOM     15  C   UNL     1       7.085   4.521  12.777  0.00  0.00    +0.000 A 
ATOM     16  C   UNL     1       7.541   5.370  13.798  0.00  0.00    +0.000 A 
ATOM     17  C   UNL     1       7.047   5.253  15.098  0.00  0.00    +0.000 A 
ATOM     18  C   UNL     1       6.061   4.309  15.379  0.00  0.00    +0.000 A 
ATOM     19  C   UNL     1       5.527   3.543  14.342  0.00  0.00    +0.000 A 
ATOM     20  C   UNL     1       6.024   3.642  13.036  0.00  0.00    +0.000 A 
BRANCH  15  22
ATOM     21  C   UNL     1       7.769   5.884  10.978  0.00  0.00    +0.000 C 
ATOM     22  O   UNL     1       7.648   4.571  11.530  0.00  0.00    +0.000 OA
ENDBRANCH  15  22
BRANCH  20  23
ATOM     23  O   UNL     1       5.371   2.791  12.185  0.00  0.00    +0.000 OA
ATOM     24  C   UNL     1       4.289   3.281  11.413  0.00  0.00    +0.000 C 
ENDBRANCH  20  23
ENDBRANCH   1  18
TORSDOF 4
ENDMDL
MODEL 9
REMARK VINA RESULT:      -6.4      4.100      8.000
REMARK  Name = 
REMARK  6 active torsions:
REMARK  status: ('A' for Active; 'I' for Inactive)
REMARK    1  A    between atoms: C_1  and  O_2
REMARK    2  A    between atoms: O_2  and  C_3
REMARK    3  A    between atoms: C_6  and  C_7
REMARK    4  A    between atoms: C_10  and  C_11
REMARK    5  A    between atoms: C_21  and  O_22
REMARK    6  A    between atoms: O_22  and  C_23
REMARK                            x       y       z     vdW  Elec       q    Type
REMARK                         _______ _______ _______ _____ _____    ______ ____
ROOT
ATOM      1  C   UNL     1       2.787   6.264  19.506  0.00  0.00    +0.000 C 
ATOM      2  N   UNL     1       2.252   5.088  19.384  0.00  0.00    +0.000 NA
ATOM      3  N   UNL     1       3.269   4.204  19.275  0.00  0.00    +0.000 N 
ATOM      4  C   UNL     1       4.587   4.836  19.147  0.00  0.00    +0.000 C 
ATOM      5  C   UNL     1       4.291   6.299  19.449  0.00  0.00    +0.000 C 
ATOM      6  H   UNL     1       3.090   3.473  18.589  0.00  0.00    +0.000 HD
ENDROOT
BRANCH   4   7
ATOM      7  C   UNL     1       5.293   4.552  17.831  0.00  0.00    +0.000 A 
ATOM      8  C   UNL     1       6.654   4.850  17.589  0.00  0.00    +0.000 A 
ATOM      9 CL   UNL     1       7.730   5.497  18.779  0.00  0.00    +0.000 Cl
ATOM     10  C   UNL     1       7.240   4.626  16.335  0.00  0.00    +0.000 A 
ATOM     11  C   UNL     1       6.499   4.092  15.291  0.00  0.00    +0.000 A 
ATOM     12  C   UNL     1       5.171   3.758  15.505  0.00  0.00    +0.000 A 
ATOM     13  C   UNL     1       4.574   3.977  16.755  0.00  0.00    +0.000 A 
ATOM     14 CL   UNL     1       2.919   3.476  16.884  0.00  0.00    +0.000 Cl
ENDBRANCH   4   7
BRANCH   1  18
ATOM     15  C   UNL     1       0.304   9.720  19.959  0.00  0.00    +0.000 A 
ATOM     16  C   UNL     1       1.183   9.607  18.869  0.00  0.00    +0.000 A 
ATOM     17  C   UNL     1       2.012   8.493  18.732  0.00  0.00    +0.000 A 
ATOM     18  C   UNL     1       1.997   7.499  19.708  0.00  0.00    +0.000 A 
ATOM     19  C   UNL     1       1.207   7.664  20.847  0.00  0.00    +0.000 A 
ATOM     20  C   UNL     1       0.362   8.772  20.990  0.00  0.00    +0.000 A 
BRANCH  15  22
ATOM     21  C   UNL     1       0.016  12.040  20.271  0.00  0.00    +0.000 C 
ATOM     22  O   UNL     1      -0.579  10.763  20.031  0.00  0.00    +0.000 OA
ENDBRANCH  15  22
BRANCH  20  23
ATOM     23  O   UNL     1      -0.332   8.726  22.169  0.00  0.00    +0.000 OA
ATOM     24  C   UNL     1       0.083   9.546  23.248  0.00  0.00    +0.000 C 
ENDBRANCH  20  23
ENDBRANCH   1  18
TORSDOF 4
ENDMDL
