MODEL 1
REMARK VINA RESULT:      -7.6      0.000      0.000
REMARK  Name = 
REMARK  11 active torsions:
REMARK  status: ('A' for Active; 'I' for Inactive)
REMARK    1  A    between atoms: C_1  and  C_2
REMARK    2  A    between atoms: C_2  and  O_3
REMARK    3  A    between atoms: O_3  and  C_4
REMARK    4  A    between atoms: C_7  and  C_8
REMARK    5  A    between atoms: C_7  and  C_10
REMARK    6  A    between atoms: C_8  and  S_9
REMARK    7  A    between atoms: N_12  and  C_13
REMARK    8  A    between atoms: C_13  and  C_14
REMARK    9  A    between atoms: C_13  and  C_21
REMARK   10  A    between atoms: C_14  and  C_15
REMARK   11  A    between atoms: N_23  and  C_24
REMARK                            x       y       z     vdW  Elec       q    Type
REMARK                         _______ _______ _______ _____ _____    ______ ____
ROOT
ATOM      1  C   UNL     1       2.499   6.795  18.592  0.00  0.00    +0.000 C 
ENDROOT
BRANCH   1   4
ATOM      2  C   UNL     1       4.466   5.512  17.672  0.00  0.00    +0.000 C 
ATOM      3  O   UNL     1       3.846   4.453  17.651  0.00  0.00    +0.000 OA
ATOM      4  N   UNL     1       3.888   6.671  18.127  0.00  0.00    +0.000 N 
ATOM      5  H   UNL     1       4.352   7.564  17.978  0.00  0.00    +0.000 HD
BRANCH   2   9
ATOM      6  C   UNL     1       5.982   4.462  14.374  0.00  0.00    +0.000 C 
ATOM      7  C   UNL     1       5.340   5.828  14.638  0.00  0.00    +0.000 C 
ATOM      8  C   UNL     1       5.938   6.523  15.857  0.00  0.00    +0.000 C 
ATOM      9  C   UNL     1       5.923   5.663  17.146  0.00  0.00    +0.000 C 
ATOM     10  C   UNL     1       6.532   4.270  16.836  0.00  0.00    +0.000 C 
ATOM     11  C   UNL     1       5.878   3.593  15.630  0.00  0.00    +0.000 C 
BRANCH   6  12
ATOM     12  O   UNL     1       5.325   3.775  13.302  0.00  0.00    +0.000 OA
BRANCH  12  14
ATOM     13  C   UNL     1       5.696   2.171  11.553  0.00  0.00    +0.000 C 
ATOM     14  C   UNL     1       6.206   3.424  12.235  0.00  0.00    +0.000 C 
ENDBRANCH  12  14
ENDBRANCH   6  12
BRANCH   9  15
ATOM     15  C   UNL     1       6.695   6.410  18.272  0.00  0.00    +0.000 C 
BRANCH  15  16
ATOM     16  S   UNL     1       7.683   7.869  17.778  0.00  0.00    +0.000 S 
ATOM     17  H   UNL     1       8.632   7.755  18.718  0.00  0.00    +0.000 HD
ENDBRANCH  15  16
ENDBRANCH   9  15
ENDBRANCH   2   9
ENDBRANCH   1   4
BRANCH   1  18
ATOM     18  C   UNL     1       2.062   8.226  18.189  0.00  0.00    +0.000 C 
ATOM     19  O   UNL     1       2.477   8.694  17.125  0.00  0.00    +0.000 OA
ATOM     20  N   UNL     1       1.205   8.878  19.060  0.00  0.00    +0.000 N 
ATOM     21  H   UNL     1       1.055   8.483  19.978  0.00  0.00    +0.000 HD
BRANCH  20  22
ATOM     22  C   UNL     1       0.654  10.164  18.851  0.00  0.00    +0.000 A 
ATOM     23  C   UNL     1      -0.697  10.384  18.570  0.00  0.00    +0.000 A 
ATOM     24  C   UNL     1      -1.190  11.675  18.368  0.00  0.00    +0.000 A 
ATOM     25  C   UNL     1      -0.332  12.769  18.442  0.00  0.00    +0.000 A 
ATOM     26  C   UNL     1       1.012  12.569  18.728  0.00  0.00    +0.000 A 
ATOM     27  C   UNL     1       1.506  11.276  18.943  0.00  0.00    +0.000 A 
ENDBRANCH  20  22
ENDBRANCH   1  18
BRANCH   1  28
ATOM     28  C   UNL     1       2.324   6.439  20.077  0.00  0.00    +0.000 C 
BRANCH  28  29
ATOM     29  C   UNL     1       2.033   5.005  20.447  0.00  0.00    +0.000 A 
ATOM     30  C   UNL     1       1.089   4.269  19.721  0.00  0.00    +0.000 A 
ATOM     31  C   UNL     1       0.714   2.997  20.145  0.00  0.00    +0.000 A 
ATOM     32  C   UNL     1       1.297   2.492  21.291  0.00  0.00    +0.000 A 
ATOM     33  N   UNL     1       2.228   3.154  22.007  0.00  0.00    +0.000 NA
ATOM     34  C   UNL     1       2.576   4.386  21.570  0.00  0.00    +0.000 A 
ENDBRANCH  28  29
ENDBRANCH   1  28
TORSDOF 10
ENDMDL
MODEL 2
REMARK VINA RESULT:      -7.3      1.851      3.579
REMARK  Name = 
REMARK  11 active torsions:
REMARK  status: ('A' for Active; 'I' for Inactive)
REMARK    1  A    between atoms: C_1  and  C_2
REMARK    2  A    between atoms: C_2  and  O_3
REMARK    3  A    between atoms: O_3  and  C_4
REMARK    4  A    between atoms: C_7  and  C_8
REMARK    5  A    between atoms: C_7  and  C_10
REMARK    6  A    between atoms: C_8  and  S_9
REMARK    7  A    between atoms: N_12  and  C_13
REMARK    8  A    between atoms: C_13  and  C_14
REMARK    9  A    between atoms: C_13  and  C_21
REMARK   10  A    between atoms: C_14  and  C_15
REMARK   11  A    between atoms: N_23  and  C_24
REMARK                            x       y       z     vdW  Elec       q    Type
REMARK                         _______ _______ _______ _____ _____    ______ ____
ROOT
ATOM      1  C   UNL     1       2.652   6.563  18.414  0.00  0.00    +0.000 C 
ENDROOT
BRANCH   1   4
ATOM      2  C   UNL     1       4.440   5.133  17.356  0.00  0.00    +0.000 C 
ATOM      3  O   UNL     1       4.024   4.108  17.889  0.00  0.00    +0.000 OA
ATOM      4  N   UNL     1       3.841   6.348  17.576  0.00  0.00    +0.000 N 
ATOM      5  H   UNL     1       4.087   7.148  17.000  0.00  0.00    +0.000 HD
BRANCH   2   9
ATOM      6  C   UNL     1       7.756   6.935  17.557  0.00  0.00    +0.000 C 
ATOM      7  C   UNL     1       7.504   5.520  18.090  0.00  0.00    +0.000 C 
ATOM      8  C   UNL     1       6.909   4.599  17.030  0.00  0.00    +0.000 C 
ATOM      9  C   UNL     1       5.630   5.155  16.353  0.00  0.00    +0.000 C 
ATOM     10  C   UNL     1       5.900   6.605  15.869  0.00  0.00    +0.000 C 
ATOM     11  C   UNL     1       6.460   7.503  16.974  0.00  0.00    +0.000 C 
BRANCH   6  12
ATOM     12  O   UNL     1       8.199   7.814  18.598  0.00  0.00    +0.000 OA
BRANCH  12  14
ATOM     13  C   UNL     1       9.201   9.927  19.143  0.00  0.00    +0.000 C 
ATOM     14  C   UNL     1       8.309   9.173  18.177  0.00  0.00    +0.000 C 
ENDBRANCH  12  14
ENDBRANCH   6  12
BRANCH   9  15
ATOM     15  C   UNL     1       5.210   4.210  15.190  0.00  0.00    +0.000 C 
BRANCH  15  16
ATOM     16  S   UNL     1       6.391   4.018  13.806  0.00  0.00    +0.000 S 
ATOM     17  H   UNL     1       7.515   4.161  14.523  0.00  0.00    +0.000 HD
ENDBRANCH  15  16
ENDBRANCH   9  15
ENDBRANCH   2   9
ENDBRANCH   1   4
BRANCH   1  18
ATOM     18  C   UNL     1       2.239   8.035  18.162  0.00  0.00    +0.000 C 
ATOM     19  O   UNL     1       2.574   8.572  17.102  0.00  0.00    +0.000 OA
ATOM     20  N   UNL     1       1.495   8.646  19.157  0.00  0.00    +0.000 N 
ATOM     21  H   UNL     1       1.414   8.186  20.054  0.00  0.00    +0.000 HD
BRANCH  20  22
ATOM     22  C   UNL     1       0.981   9.963  19.099  0.00  0.00    +0.000 A 
ATOM     23  C   UNL     1       1.737  11.065  18.689  0.00  0.00    +0.000 A 
ATOM     24  C   UNL     1       1.182  12.346  18.654  0.00  0.00    +0.000 A 
ATOM     25  C   UNL     1      -0.143  12.543  19.033  0.00  0.00    +0.000 A 
ATOM     26  C   UNL     1      -0.911  11.457  19.435  0.00  0.00    +0.000 A 
ATOM     27  C   UNL     1      -0.359  10.170  19.459  0.00  0.00    +0.000 A 
ENDBRANCH  20  22
ENDBRANCH   1  18
BRANCH   1  28
ATOM     28  C   UNL     1       2.869   6.174  19.884  0.00  0.00    +0.000 C 
BRANCH  28  29
ATOM     29  C   UNL     1       2.331   4.849  20.368  0.00  0.00    +0.000 A 
ATOM     30  C   UNL     1       1.276   4.228  19.689  0.00  0.00    +0.000 A 
ATOM     31  C   UNL     1       0.685   3.081  20.211  0.00  0.00    +0.000 A 
ATOM     32  C   UNL     1       1.166   2.584  21.407  0.00  0.00    +0.000 A 
ATOM     33  N   UNL     1       2.196   3.134  22.082  0.00  0.00    +0.000 NA
ATOM     34  C   UNL     1       2.753   4.245  21.549  0.00  0.00    +0.000 A 
ENDBRANCH  28  29
ENDBRANCH   1  28
TORSDOF 10
ENDMDL
MODEL 3
REMARK VINA RESULT:      -7.3      0.666      1.282
REMARK  Name = 
REMARK  11 active torsions:
REMARK  status: ('A' for Active; 'I' for Inactive)
REMARK    1  A    between atoms: C_1  and  C_2
REMARK    2  A    between atoms: C_2  and  O_3
REMARK    3  A    between atoms: O_3  and  C_4
REMARK    4  A    between atoms: C_7  and  C_8
REMARK    5  A    between atoms: C_7  and  C_10
REMARK    6  A    between atoms: C_8  and  S_9
REMARK    7  A    between atoms: N_12  and  C_13
REMARK    8  A    between atoms: C_13  and  C_14
REMARK    9  A    between atoms: C_13  and  C_21
REMARK   10  A    between atoms: C_14  and  C_15
REMARK   11  A    between atoms: N_23  and  C_24
REMARK                            x       y       z     vdW  Elec       q    Type
REMARK                         _______ _______ _______ _____ _____    ______ ____
ROOT
ATOM      1  C   UNL     1       2.533   6.874  18.528  0.00  0.00    +0.000 C 
ENDROOT
BRANCH   1   4
ATOM      2  C   UNL     1       4.506   5.608  17.598  0.00  0.00    +0.000 C 
ATOM      3  O   UNL     1       3.872   4.561  17.507  0.00  0.00    +0.000 OA
ATOM      4  N   UNL     1       3.932   6.752  18.094  0.00  0.00    +0.000 N 
ATOM      5  H   UNL     1       4.413   7.644  18.002  0.00  0.00    +0.000 HD
BRANCH   2   9
ATOM      6  C   UNL     1       6.259   4.115  14.601  0.00  0.00    +0.000 C 
ATOM      7  C   UNL     1       5.527   5.460  14.596  0.00  0.00    +0.000 C 
ATOM      8  C   UNL     1       6.016   6.391  15.701  0.00  0.00    +0.000 C 
ATOM      9  C   UNL     1       5.979   5.763  17.118  0.00  0.00    +0.000 C 
ATOM     10  C   UNL     1       6.683   4.381  17.081  0.00  0.00    +0.000 C 
ATOM     11  C   UNL     1       6.136   3.467  15.982  0.00  0.00    +0.000 C 
BRANCH   6  12
ATOM     12  O   UNL     1       5.702   3.213  13.636  0.00  0.00    +0.000 OA
BRANCH  12  14
ATOM     13  C   UNL     1       4.709   3.261  11.450  0.00  0.00    +0.000 C 
ATOM     14  C   UNL     1       5.916   3.631  12.288  0.00  0.00    +0.000 C 
ENDBRANCH  12  14
ENDBRANCH   6  12
BRANCH   9  15
ATOM     15  C   UNL     1       6.644   6.740  18.131  0.00  0.00    +0.000 C 
BRANCH  15  16
ATOM     16  S   UNL     1       7.791   7.992  17.450  0.00  0.00    +0.000 S 
ATOM     17  H   UNL     1       7.067   8.313  16.369  0.00  0.00    +0.000 HD
ENDBRANCH  15  16
ENDBRANCH   9  15
ENDBRANCH   2   9
ENDBRANCH   1   4
BRANCH   1  18
ATOM     18  C   UNL     1       2.122   8.324  18.171  0.00  0.00    +0.000 C 
ATOM     19  O   UNL     1       2.562   8.826  17.132  0.00  0.00    +0.000 OA
ATOM     20  N   UNL     1       1.259   8.956  19.051  0.00  0.00    +0.000 N 
ATOM     21  H   UNL     1       1.087   8.529  19.952  0.00  0.00    +0.000 HD
BRANCH  20  22
ATOM     22  C   UNL     1       0.729  10.256  18.881  0.00  0.00    +0.000 A 
ATOM     23  C   UNL     1       1.458  11.422  19.130  0.00  0.00    +0.000 A 
ATOM     24  C   UNL     1       0.885  12.683  18.950  0.00  0.00    +0.000 A 
ATOM     25  C   UNL     1      -0.434  12.794  18.519  0.00  0.00    +0.000 A 
ATOM     26  C   UNL     1      -1.170  11.645  18.258  0.00  0.00    +0.000 A 
ATOM     27  C   UNL     1      -0.593  10.381  18.426  0.00  0.00    +0.000 A 
ENDBRANCH  20  22
ENDBRANCH   1  18
BRANCH   1  28
ATOM     28  C   UNL     1       2.316   6.461  19.992  0.00  0.00    +0.000 C 
BRANCH  28  29
ATOM     29  C   UNL     1       1.916   5.037  20.291  0.00  0.00    +0.000 A 
ATOM     30  C   UNL     1       2.480   4.362  21.380  0.00  0.00    +0.000 A 
ATOM     31  C   UNL     1       2.223   3.007  21.575  0.00  0.00    +0.000 A 
ATOM     32  C   UNL     1       1.405   2.360  20.670  0.00  0.00    +0.000 A 
ATOM     33  N   UNL     1       0.821   2.975  19.621  0.00  0.00    +0.000 NA
ATOM     34  C   UNL     1       1.085   4.292  19.459  0.00  0.00    +0.000 A 
ENDBRANCH  28  29
ENDBRANCH   1  28
TORSDOF 10
ENDMDL
MODEL 4
REMARK VINA RESULT:      -7.2      0.809      1.057
REMARK  Name = 
REMARK  11 active torsions:
REMARK  status: ('A' for Active; 'I' for Inactive)
REMARK    1  A    between atoms: C_1  and  C_2
REMARK    2  A    between atoms: C_2  and  O_3
REMARK    3  A    between atoms: O_3  and  C_4
REMARK    4  A    between atoms: C_7  and  C_8
REMARK    5  A    between atoms: C_7  and  C_10
REMARK    6  A    between atoms: C_8  and  S_9
REMARK    7  A    between atoms: N_12  and  C_13
REMARK    8  A    between atoms: C_13  and  C_14
REMARK    9  A    between atoms: C_13  and  C_21
REMARK   10  A    between atoms: C_14  and  C_15
REMARK   11  A    between atoms: N_23  and  C_24
REMARK                            x       y       z     vdW  Elec       q    Type
REMARK                         _______ _______ _______ _____ _____    ______ ____
ROOT
ATOM      1  C   UNL     1       2.544   6.798  18.620  0.00  0.00    +0.000 C 
ENDROOT
BRANCH   1   4
ATOM      2  C   UNL     1       4.585   5.604  17.742  0.00  0.00    +0.000 C 
ATOM      3  O   UNL     1       4.056   4.500  17.834  0.00  0.00    +0.000 OA
ATOM      4  N   UNL     1       3.924   6.747  18.117  0.00  0.00    +0.000 N 
ATOM      5  H   UNL     1       4.307   7.658  17.876  0.00  0.00    +0.000 HD
BRANCH   2   9
ATOM      6  C   UNL     1       6.004   4.635  14.376  0.00  0.00    +0.000 C 
ATOM      7  C   UNL     1       5.308   5.968  14.673  0.00  0.00    +0.000 C 
ATOM      8  C   UNL     1       5.925   6.689  15.868  0.00  0.00    +0.000 C 
ATOM      9  C   UNL     1       6.009   5.827  17.153  0.00  0.00    +0.000 C 
ATOM     10  C   UNL     1       6.670   4.466  16.811  0.00  0.00    +0.000 C 
ATOM     11  C   UNL     1       5.998   3.760  15.632  0.00  0.00    +0.000 C 
BRANCH   6  12
ATOM     12  O   UNL     1       5.334   3.919  13.331  0.00  0.00    +0.000 OA
BRANCH  12  14
ATOM     13  C   UNL     1       5.420   2.400  11.473  0.00  0.00    +0.000 C 
ATOM     14  C   UNL     1       6.219   3.139  12.527  0.00  0.00    +0.000 C 
ENDBRANCH  12  14
ENDBRANCH   6  12
BRANCH   9  15
ATOM     15  C   UNL     1       6.792   6.609  18.247  0.00  0.00    +0.000 C 
BRANCH  15  16
ATOM     16  S   UNL     1       7.876   5.633  19.353  0.00  0.00    +0.000 S 
ATOM     17  H   UNL     1       7.453   6.161  20.510  0.00  0.00    +0.000 HD
ENDBRANCH  15  16
ENDBRANCH   9  15
ENDBRANCH   2   9
ENDBRANCH   1   4
BRANCH   1  18
ATOM     18  C   UNL     1       2.049   8.231  18.302  0.00  0.00    +0.000 C 
ATOM     19  O   UNL     1       2.400   8.758  17.242  0.00  0.00    +0.000 OA
ATOM     20  N   UNL     1       1.216   8.818  19.240  0.00  0.00    +0.000 N 
ATOM     21  H   UNL     1       1.119   8.379  20.146  0.00  0.00    +0.000 HD
BRANCH  20  22
ATOM     22  C   UNL     1       0.619  10.095  19.115  0.00  0.00    +0.000 A 
ATOM     23  C   UNL     1      -0.469  10.356  18.277  0.00  0.00    +0.000 A 
ATOM     24  C   UNL     1      -1.018  11.637  18.188  0.00  0.00    +0.000 A 
ATOM     25  C   UNL     1      -0.481  12.680  18.937  0.00  0.00    +0.000 A 
ATOM     26  C   UNL     1       0.595  12.436  19.781  0.00  0.00    +0.000 A 
ATOM     27  C   UNL     1       1.139  11.149  19.881  0.00  0.00    +0.000 A 
ENDBRANCH  20  22
ENDBRANCH   1  18
BRANCH   1  28
ATOM     28  C   UNL     1       2.418   6.360  20.087  0.00  0.00    +0.000 C 
BRANCH  28  29
ATOM     29  C   UNL     1       1.939   4.960  20.385  0.00  0.00    +0.000 A 
ATOM     30  C   UNL     1       2.395   4.288  21.525  0.00  0.00    +0.000 A 
ATOM     31  C   UNL     1       2.067   2.950  21.729  0.00  0.00    +0.000 A 
ATOM     32  C   UNL     1       1.288   2.316  20.781  0.00  0.00    +0.000 A 
ATOM     33  N   UNL     1       0.806   2.930  19.681  0.00  0.00    +0.000 NA
ATOM     34  C   UNL     1       1.136   4.230  19.511  0.00  0.00    +0.000 A 
ENDBRANCH  28  29
ENDBRANCH   1  28
TORSDOF 10
ENDMDL
MODEL 5
REMARK VINA RESULT:      -7.2      2.125      3.667
REMARK  Name = 
REMARK  11 active torsions:
REMARK  status: ('A' for Active; 'I' for Inactive)
REMARK    1  A    between atoms: C_1  and  C_2
REMARK    2  A    between atoms: C_2  and  O_3
REMARK    3  A    between atoms: O_3  and  C_4
REMARK    4  A    between atoms: C_7  and  C_8
REMARK    5  A    between atoms: C_7  and  C_10
REMARK    6  A    between atoms: C_8  and  S_9
REMARK    7  A    between atoms: N_12  and  C_13
REMARK    8  A    between atoms: C_13  and  C_14
REMARK    9  A    between atoms: C_13  and  C_21
REMARK   10  A    between atoms: C_14  and  C_15
REMARK   11  A    between atoms: N_23  and  C_24
REMARK                            x       y       z     vdW  Elec       q    Type
REMARK                         _______ _______ _______ _____ _____    ______ ____
ROOT
ATOM      1  C   UNL     1       2.358   6.716  18.424  0.00  0.00    +0.000 C 
ENDROOT
BRANCH   1   4
ATOM      2  C   UNL     1       4.711   5.812  18.334  0.00  0.00    +0.000 C 
ATOM      3  O   UNL     1       4.727   5.560  19.535  0.00  0.00    +0.000 OA
ATOM      4  N   UNL     1       3.613   6.382  17.737  0.00  0.00    +0.000 N 
ATOM      5  H   UNL     1       3.551   6.424  16.723  0.00  0.00    +0.000 HD
BRANCH   2   9
ATOM      6  C   UNL     1       8.168   7.316  18.077  0.00  0.00    +0.000 C 
ATOM      7  C   UNL     1       7.806   6.119  18.962  0.00  0.00    +0.000 C 
ATOM      8  C   UNL     1       7.121   5.005  18.179  0.00  0.00    +0.000 C 
ATOM      9  C   UNL     1       5.883   5.469  17.369  0.00  0.00    +0.000 C 
ATOM     10  C   UNL     1       6.266   6.712  16.522  0.00  0.00    +0.000 C 
ATOM     11  C   UNL     1       6.916   7.819  17.354  0.00  0.00    +0.000 C 
BRANCH   6  12
ATOM     12  O   UNL     1       8.698   8.398  18.853  0.00  0.00    +0.000 OA
BRANCH  12  14
ATOM     13  C   UNL     1       9.355  10.705  18.974  0.00  0.00    +0.000 C 
ATOM     14  C   UNL     1       8.540   9.670  18.225  0.00  0.00    +0.000 C 
ENDBRANCH  12  14
ENDBRANCH   6  12
BRANCH   9  15
ATOM     15  C   UNL     1       5.368   4.290  16.494  0.00  0.00    +0.000 C 
BRANCH  15  16
ATOM     16  S   UNL     1       6.114   4.098  14.834  0.00  0.00    +0.000 S 
ATOM     17  H   UNL     1       5.968   2.769  14.737  0.00  0.00    +0.000 HD
ENDBRANCH  15  16
ENDBRANCH   9  15
ENDBRANCH   2   9
ENDBRANCH   1   4
BRANCH   1  18
ATOM     18  C   UNL     1       2.104   8.210  18.101  0.00  0.00    +0.000 C 
ATOM     19  O   UNL     1       2.653   8.705  17.112  0.00  0.00    +0.000 OA
ATOM     20  N   UNL     1       1.248   8.889  18.953  0.00  0.00    +0.000 N 
ATOM     21  H   UNL     1       0.981   8.449  19.824  0.00  0.00    +0.000 HD
BRANCH  20  22
ATOM     22  C   UNL     1       0.850  10.238  18.805  0.00  0.00    +0.000 A 
ATOM     23  C   UNL     1      -0.485  10.639  18.710  0.00  0.00    +0.000 A 
ATOM     24  C   UNL     1      -0.823  11.986  18.560  0.00  0.00    +0.000 A 
ATOM     25  C   UNL     1       0.175  12.953  18.500  0.00  0.00    +0.000 A 
ATOM     26  C   UNL     1       1.507  12.573  18.601  0.00  0.00    +0.000 A 
ATOM     27  C   UNL     1       1.848  11.224  18.763  0.00  0.00    +0.000 A 
ENDBRANCH  20  22
ENDBRANCH   1  18
BRANCH   1  28
ATOM     28  C   UNL     1       2.367   6.348  19.915  0.00  0.00    +0.000 C 
BRANCH  28  29
ATOM     29  C   UNL     1       2.047   4.928  20.312  0.00  0.00    +0.000 A 
ATOM     30  C   UNL     1       1.266   4.123  19.474  0.00  0.00    +0.000 A 
ATOM     31  C   UNL     1       0.851   2.863  19.900  0.00  0.00    +0.000 A 
ATOM     32  C   UNL     1       1.230   2.441  21.159  0.00  0.00    +0.000 A 
ATOM     33  N   UNL     1       2.001   3.172  21.990  0.00  0.00    +0.000 NA
ATOM     34  C   UNL     1       2.393   4.389  21.548  0.00  0.00    +0.000 A 
ENDBRANCH  28  29
ENDBRANCH   1  28
TORSDOF 10
ENDMDL
MODEL 6
REMARK VINA RESULT:      -6.9      0.907      1.240
REMARK  Name = 
REMARK  11 active torsions:
REMARK  status: ('A' for Active; 'I' for Inactive)
REMARK    1  A    between atoms: C_1  and  C_2
REMARK    2  A    between atoms: C_2  and  O_3
REMARK    3  A    between atoms: O_3  and  C_4
REMARK    4  A    between atoms: C_7  and  C_8
REMARK    5  A    between atoms: C_7  and  C_10
REMARK    6  A    between atoms: C_8  and  S_9
REMARK    7  A    between atoms: N_12  and  C_13
REMARK    8  A    between atoms: C_13  and  C_14
REMARK    9  A    between atoms: C_13  and  C_21
REMARK   10  A    between atoms: C_14  and  C_15
REMARK   11  A    between atoms: N_23  and  C_24
REMARK                            x       y       z     vdW  Elec       q    Type
REMARK                         _______ _______ _______ _____ _____    ______ ____
ROOT
ATOM      1  C   UNL     1       2.280   6.706  18.654  0.00  0.00    +0.000 C 
ENDROOT
BRANCH   1   4
ATOM      2  C   UNL     1       4.247   5.366  17.821  0.00  0.00    +0.000 C 
ATOM      3  O   UNL     1       3.531   4.565  17.228  0.00  0.00    +0.000 OA
ATOM      4  N   UNL     1       3.715   6.408  18.538  0.00  0.00    +0.000 N 
ATOM      5  H   UNL     1       4.318   7.154  18.876  0.00  0.00    +0.000 HD
BRANCH   2   9
ATOM      6  C   UNL     1       6.592   5.071  14.871  0.00  0.00    +0.000 C 
ATOM      7  C   UNL     1       6.088   6.397  15.449  0.00  0.00    +0.000 C 
ATOM      8  C   UNL     1       6.348   6.512  16.948  0.00  0.00    +0.000 C 
ATOM      9  C   UNL     1       5.803   5.322  17.778  0.00  0.00    +0.000 C 
ATOM     10  C   UNL     1       6.287   3.992  17.140  0.00  0.00    +0.000 C 
ATOM     11  C   UNL     1       5.973   3.904  15.645  0.00  0.00    +0.000 C 
BRANCH   6  12
ATOM     12  O   UNL     1       6.229   4.931  13.492  0.00  0.00    +0.000 OA
BRANCH  12  14
ATOM     13  C   UNL     1       4.957   3.445  12.100  0.00  0.00    +0.000 C 
ATOM     14  C   UNL     1       6.108   3.571  13.077  0.00  0.00    +0.000 C 
ENDBRANCH  12  14
ENDBRANCH   6  12
BRANCH   9  15
ATOM     15  C   UNL     1       6.263   5.471  19.257  0.00  0.00    +0.000 C 
BRANCH  15  16
ATOM     16  S   UNL     1       8.065   5.565  19.563  0.00  0.00    +0.000 S 
ATOM     17  H   UNL     1       8.057   6.712  20.257  0.00  0.00    +0.000 HD
ENDBRANCH  15  16
ENDBRANCH   9  15
ENDBRANCH   2   9
ENDBRANCH   1   4
BRANCH   1  18
ATOM     18  C   UNL     1       2.149   8.210  18.305  0.00  0.00    +0.000 C 
ATOM     19  O   UNL     1       2.720   8.637  17.297  0.00  0.00    +0.000 OA
ATOM     20  N   UNL     1       1.368   8.975  19.156  0.00  0.00    +0.000 N 
ATOM     21  H   UNL     1       1.080   8.577  20.039  0.00  0.00    +0.000 HD
BRANCH  20  22
ATOM     22  C   UNL     1       1.084  10.351  18.985  0.00  0.00    +0.000 A 
ATOM     23  C   UNL     1       2.042  11.291  18.596  0.00  0.00    +0.000 A 
ATOM     24  C   UNL     1       1.709  12.639  18.446  0.00  0.00    +0.000 A 
ATOM     25  C   UNL     1       0.407  13.067  18.687  0.00  0.00    +0.000 A 
ATOM     26  C   UNL     1      -0.560  12.144  19.066  0.00  0.00    +0.000 A 
ATOM     27  C   UNL     1      -0.231  10.790  19.205  0.00  0.00    +0.000 A 
ENDBRANCH  20  22
ENDBRANCH   1  18
BRANCH   1  28
ATOM     28  C   UNL     1       1.680   6.281  20.003  0.00  0.00    +0.000 C 
BRANCH  28  29
ATOM     29  C   UNL     1       1.736   4.823  20.392  0.00  0.00    +0.000 A 
ATOM     30  C   UNL     1       1.090   3.861  19.606  0.00  0.00    +0.000 A 
ATOM     31  C   UNL     1       1.019   2.538  20.035  0.00  0.00    +0.000 A 
ATOM     32  C   UNL     1       1.598   2.212  21.246  0.00  0.00    +0.000 A 
ATOM     33  N   UNL     1       2.252   3.100  22.023  0.00  0.00    +0.000 NA
ATOM     34  C   UNL     1       2.309   4.376  21.579  0.00  0.00    +0.000 A 
ENDBRANCH  28  29
ENDBRANCH   1  28
TORSDOF 10
ENDMDL
MODEL 7
REMARK VINA RESULT:      -6.9      3.419      7.200
REMARK  Name = 
REMARK  11 active torsions:
REMARK  status: ('A' for Active; 'I' for Inactive)
REMARK    1  A    between atoms: C_1  and  C_2
REMARK    2  A    between atoms: C_2  and  O_3
REMARK    3  A    between atoms: O_3  and  C_4
REMARK    4  A    between atoms: C_7  and  C_8
REMARK    5  A    between atoms: C_7  and  C_10
REMARK    6  A    between atoms: C_8  and  S_9
REMARK    7  A    between atoms: N_12  and  C_13
REMARK    8  A    between atoms: C_13  and  C_14
REMARK    9  A    between atoms: C_13  and  C_21
REMARK   10  A    between atoms: C_14  and  C_15
REMARK   11  A    between atoms: N_23  and  C_24
REMARK                            x       y       z     vdW  Elec       q    Type
REMARK                         _______ _______ _______ _____ _____    ______ ____
ROOT
ATOM      1  C   UNL     1       6.970   6.364  18.309  0.00  0.00    +0.000 C 
ENDROOT
BRANCH   1   4
ATOM      2  C   UNL     1       4.535   5.994  18.849  0.00  0.00    +0.000 C 
ATOM      3  O   UNL     1       4.792   5.247  19.789  0.00  0.00    +0.000 OA
ATOM      4  N   UNL     1       5.530   6.552  18.086  0.00  0.00    +0.000 N 
ATOM      5  H   UNL     1       5.310   7.295  17.428  0.00  0.00    +0.000 HD
BRANCH   2   9
ATOM      6  C   UNL     1       1.212   4.451  19.777  0.00  0.00    +0.000 C 
ATOM      7  C   UNL     1       1.919   5.540  20.589  0.00  0.00    +0.000 C 
ATOM      8  C   UNL     1       2.275   6.757  19.741  0.00  0.00    +0.000 C 
ATOM      9  C   UNL     1       3.089   6.423  18.465  0.00  0.00    +0.000 C 
ATOM     10  C   UNL     1       2.376   5.283  17.690  0.00  0.00    +0.000 C 
ATOM     11  C   UNL     1       2.072   4.069  18.570  0.00  0.00    +0.000 C 
BRANCH   6  12
ATOM     12  O   UNL     1       0.997   3.271  20.561  0.00  0.00    +0.000 OA
BRANCH  12  14
ATOM     13  C   UNL     1       2.940   2.303  21.588  0.00  0.00    +0.000 C 
ATOM     14  C   UNL     1       2.017   2.287  20.387  0.00  0.00    +0.000 C 
ENDBRANCH  12  14
ENDBRANCH   6  12
BRANCH   9  15
ATOM     15  C   UNL     1       3.253   7.711  17.607  0.00  0.00    +0.000 C 
BRANCH  15  16
ATOM     16  S   UNL     1       2.026   9.044  17.862  0.00  0.00    +0.000 S 
ATOM     17  H   UNL     1       1.781   8.801  19.157  0.00  0.00    +0.000 HD
ENDBRANCH  15  16
ENDBRANCH   9  15
ENDBRANCH   2   9
ENDBRANCH   1   4
BRANCH   1  18
ATOM     18  C   UNL     1       7.610   7.744  18.016  0.00  0.00    +0.000 C 
ATOM     19  O   UNL     1       7.365   8.295  16.939  0.00  0.00    +0.000 OA
ATOM     20  N   UNL     1       8.410   8.277  19.013  0.00  0.00    +0.000 N 
ATOM     21  H   UNL     1       8.685   7.683  19.784  0.00  0.00    +0.000 HD
BRANCH  20  22
ATOM     22  C   UNL     1       9.043   9.542  18.962  0.00  0.00    +0.000 A 
ATOM     23  C   UNL     1       9.452  10.149  17.771  0.00  0.00    +0.000 A 
ATOM     24  C   UNL     1      10.076  11.398  17.776  0.00  0.00    +0.000 A 
ATOM     25  C   UNL     1      10.304  12.058  18.980  0.00  0.00    +0.000 A 
ATOM     26  C   UNL     1       9.896  11.474  20.172  0.00  0.00    +0.000 A 
ATOM     27  C   UNL     1       9.259  10.227  20.168  0.00  0.00    +0.000 A 
ENDBRANCH  20  22
ENDBRANCH   1  18
BRANCH   1  28
ATOM     28  C   UNL     1       7.555   5.179  17.525  0.00  0.00    +0.000 C 
BRANCH  28  29
ATOM     29  C   UNL     1       6.979   4.854  16.169  0.00  0.00    +0.000 A 
ATOM     30  C   UNL     1       5.948   3.914  16.050  0.00  0.00    +0.000 A 
ATOM     31  C   UNL     1       5.512   3.508  14.791  0.00  0.00    +0.000 A 
ATOM     32  C   UNL     1       6.121   4.056  13.680  0.00  0.00    +0.000 A 
ATOM     33  N   UNL     1       7.099   4.982  13.746  0.00  0.00    +0.000 NA
ATOM     34  C   UNL     1       7.500   5.361  14.981  0.00  0.00    +0.000 A 
ENDBRANCH  28  29
ENDBRANCH   1  28
TORSDOF 10
ENDMDL
MODEL 8
REMARK VINA RESULT:      -6.9      2.588      7.341
REMARK  Name = 
REMARK  11 active torsions:
REMARK  status: ('A' for Active; 'I' for Inactive)
REMARK    1  A    between atoms: C_1  and  C_2
REMARK    2  A    between atoms: C_2  and  O_3
REMARK    3  A    between atoms: O_3  and  C_4
REMARK    4  A    between atoms: C_7  and  C_8
REMARK    5  A    between atoms: C_7  and  C_10
REMARK    6  A    between atoms: C_8  and  S_9
REMARK    7  A    between atoms: N_12  and  C_13
REMARK    8  A    between atoms: C_13  and  C_14
REMARK    9  A    between atoms: C_13  and  C_21
REMARK   10  A    between atoms: C_14  and  C_15
REMARK   11  A    between atoms: N_23  and  C_24
REMARK                            x       y       z     vdW  Elec       q    Type
REMARK                         _______ _______ _______ _____ _____    ______ ____
ROOT
ATOM      1  C   UNL     1       2.178   7.141  20.060  0.00  0.00    +0.000 C 
ENDROOT
BRANCH   1   4
ATOM      2  C   UNL     1       1.003   9.280  20.697  0.00  0.00    +0.000 C 
ATOM      3  O   UNL     1       0.773   8.888  21.837  0.00  0.00    +0.000 OA
ATOM      4  N   UNL     1       1.659   8.489  19.787  0.00  0.00    +0.000 N 
ATOM      5  H   UNL     1       1.991   8.888  18.913  0.00  0.00    +0.000 HD
BRANCH   2   9
ATOM      6  C   UNL     1      -1.209  10.343  17.824  0.00  0.00    +0.000 C 
ATOM      7  C   UNL     1      -1.698  10.120  19.259  0.00  0.00    +0.000 C 
ATOM      8  C   UNL     1      -0.896  10.924  20.277  0.00  0.00    +0.000 C 
ATOM      9  C   UNL     1       0.636  10.705  20.190  0.00  0.00    +0.000 C 
ATOM     10  C   UNL     1       1.094  10.888  18.718  0.00  0.00    +0.000 C 
ATOM     11  C   UNL     1       0.287  10.036  17.737  0.00  0.00    +0.000 C 
BRANCH   6  12
ATOM     12  O   UNL     1      -1.894   9.488  16.900  0.00  0.00    +0.000 OA
BRANCH  12  14
ATOM     13  C   UNL     1      -2.977  10.227  14.889  0.00  0.00    +0.000 C 
ATOM     14  C   UNL     1      -3.097  10.062  16.390  0.00  0.00    +0.000 C 
ENDBRANCH  12  14
ENDBRANCH   6  12
BRANCH   9  15
ATOM     15  C   UNL     1       1.353  11.688  21.160  0.00  0.00    +0.000 C 
BRANCH  15  16
ATOM     16  S   UNL     1       1.886  13.297  20.472  0.00  0.00    +0.000 S 
ATOM     17  H   UNL     1       1.339  14.074  21.417  0.00  0.00    +0.000 HD
ENDBRANCH  15  16
ENDBRANCH   9  15
ENDBRANCH   2   9
ENDBRANCH   1   4
BRANCH   1  18
ATOM     18  C   UNL     1       3.006   6.763  18.806  0.00  0.00    +0.000 C 
ATOM     19  O   UNL     1       2.699   7.264  17.720  0.00  0.00    +0.000 OA
ATOM     20  N   UNL     1       4.062   5.889  19.003  0.00  0.00    +0.000 N 
ATOM     21  H   UNL     1       4.132   5.406  19.889  0.00  0.00    +0.000 HD
BRANCH  20  22
ATOM     22  C   UNL     1       4.964   5.460  18.001  0.00  0.00    +0.000 A 
ATOM     23  C   UNL     1       6.187   6.089  17.749  0.00  0.00    +0.000 A 
ATOM     24  C   UNL     1       7.039   5.627  16.744  0.00  0.00    +0.000 A 
ATOM     25  C   UNL     1       6.677   4.527  15.973  0.00  0.00    +0.000 A 
ATOM     26  C   UNL     1       5.469   3.885  16.216  0.00  0.00    +0.000 A 
ATOM     27  C   UNL     1       4.618   4.339  17.232  0.00  0.00    +0.000 A 
ENDBRANCH  20  22
ENDBRANCH   1  18
BRANCH   1  28
ATOM     28  C   UNL     1       1.084   6.141  20.463  0.00  0.00    +0.000 C 
BRANCH  28  29
ATOM     29  C   UNL     1       1.390   4.665  20.384  0.00  0.00    +0.000 A 
ATOM     30  C   UNL     1       2.121   4.042  21.403  0.00  0.00    +0.000 A 
ATOM     31  C   UNL     1       2.525   2.717  21.266  0.00  0.00    +0.000 A 
ATOM     32  C   UNL     1       2.186   2.046  20.107  0.00  0.00    +0.000 A 
ATOM     33  N   UNL     1       1.463   2.597  19.111  0.00  0.00    +0.000 NA
ATOM     34  C   UNL     1       1.080   3.884  19.273  0.00  0.00    +0.000 A 
ENDBRANCH  28  29
ENDBRANCH   1  28
TORSDOF 10
ENDMDL
MODEL 9
REMARK VINA RESULT:      -6.9      2.351      3.914
REMARK  Name = 
REMARK  11 active torsions:
REMARK  status: ('A' for Active; 'I' for Inactive)
REMARK    1  A    between atoms: C_1  and  C_2
REMARK    2  A    between atoms: C_2  and  O_3
REMARK    3  A    between atoms: O_3  and  C_4
REMARK    4  A    between atoms: C_7  and  C_8
REMARK    5  A    between atoms: C_7  and  C_10
REMARK    6  A    between atoms: C_8  and  S_9
REMARK    7  A    between atoms: N_12  and  C_13
REMARK    8  A    between atoms: C_13  and  C_14
REMARK    9  A    between atoms: C_13  and  C_21
REMARK   10  A    between atoms: C_14  and  C_15
REMARK   11  A    between atoms: N_23  and  C_24
REMARK                            x       y       z     vdW  Elec       q    Type
REMARK                         _______ _______ _______ _____ _____    ______ ____
ROOT
ATOM      1  C   UNL     1       2.374   6.634  18.271  0.00  0.00    +0.000 C 
ENDROOT
BRANCH   1   4
ATOM      2  C   UNL     1       4.743   5.768  18.261  0.00  0.00    +0.000 C 
ATOM      3  O   UNL     1       4.725   5.526  19.465  0.00  0.00    +0.000 OA
ATOM      4  N   UNL     1       3.656   6.315  17.626  0.00  0.00    +0.000 N 
ATOM      5  H   UNL     1       3.624   6.349  16.610  0.00  0.00    +0.000 HD
BRANCH   2   9
ATOM      6  C   UNL     1       8.178   7.334  18.091  0.00  0.00    +0.000 C 
ATOM      7  C   UNL     1       7.812   6.140  18.979  0.00  0.00    +0.000 C 
ATOM      8  C   UNL     1       7.171   5.004  18.188  0.00  0.00    +0.000 C 
ATOM      9  C   UNL     1       5.950   5.437  17.336  0.00  0.00    +0.000 C 
ATOM     10  C   UNL     1       6.335   6.677  16.487  0.00  0.00    +0.000 C 
ATOM     11  C   UNL     1       6.939   7.805  17.326  0.00  0.00    +0.000 C 
BRANCH   6  12
ATOM     12  O   UNL     1       8.664   8.434  18.870  0.00  0.00    +0.000 OA
BRANCH  12  14
ATOM     13  C   UNL     1       9.400  10.720  18.856  0.00  0.00    +0.000 C 
ATOM     14  C   UNL     1       8.463   9.700  18.242  0.00  0.00    +0.000 C 
ENDBRANCH  12  14
ENDBRANCH   6  12
BRANCH   9  15
ATOM     15  C   UNL     1       5.484   4.239  16.459  0.00  0.00    +0.000 C 
BRANCH  15  16
ATOM     16  S   UNL     1       5.693   4.401  14.649  0.00  0.00    +0.000 S 
ATOM     17  H   UNL     1       6.457   5.503  14.666  0.00  0.00    +0.000 HD
ENDBRANCH  15  16
ENDBRANCH   9  15
ENDBRANCH   2   9
ENDBRANCH   1   4
BRANCH   1  18
ATOM     18  C   UNL     1       2.299   8.182  18.282  0.00  0.00    +0.000 C 
ATOM     19  O   UNL     1       2.897   8.811  17.404  0.00  0.00    +0.000 OA
ATOM     20  N   UNL     1       1.537   8.756  19.286  0.00  0.00    +0.000 N 
ATOM     21  H   UNL     1       1.224   8.173  20.051  0.00  0.00    +0.000 HD
BRANCH  20  22
ATOM     22  C   UNL     1       1.303  10.143  19.441  0.00  0.00    +0.000 A 
ATOM     23  C   UNL     1       1.591  11.085  18.450  0.00  0.00    +0.000 A 
ATOM     24  C   UNL     1       1.344  12.444  18.656  0.00  0.00    +0.000 A 
ATOM     25  C   UNL     1       0.806  12.881  19.863  0.00  0.00    +0.000 A 
ATOM     26  C   UNL     1       0.506  11.956  20.855  0.00  0.00    +0.000 A 
ATOM     27  C   UNL     1       0.741  10.591  20.646  0.00  0.00    +0.000 A 
ENDBRANCH  20  22
ENDBRANCH   1  18
BRANCH   1  28
ATOM     28  C   UNL     1       2.195   5.949  19.634  0.00  0.00    +0.000 C 
BRANCH  28  29
ATOM     29  C   UNL     1       1.700   4.523  19.667  0.00  0.00    +0.000 A 
ATOM     30  C   UNL     1       1.737   3.794  20.861  0.00  0.00    +0.000 A 
ATOM     31  C   UNL     1       1.415   2.439  20.866  0.00  0.00    +0.000 A 
ATOM     32  C   UNL     1       1.064   1.847  19.668  0.00  0.00    +0.000 A 
ATOM     33  N   UNL     1       0.991   2.515  18.499  0.00  0.00    +0.000 NA
ATOM     34  C   UNL     1       1.304   3.830  18.526  0.00  0.00    +0.000 A 
ENDBRANCH  28  29
ENDBRANCH   1  28
TORSDOF 10
ENDMDL
