MODEL 1
REMARK VINA RESULT:      -8.8      0.000      0.000
REMARK  Name = 
REMARK  3 active torsions:
REMARK  status: ('A' for Active; 'I' for Inactive)
REMARK    1  A    between atoms: C_2  and  C_11
REMARK    2  A    between atoms: C_15  and  S_16
REMARK    3  A    between atoms: S_16  and  N_19
REMARK                            x       y       z     vdW  Elec       q    Type
REMARK                         _______ _______ _______ _____ _____    ______ ____
ROOT
ATOM      1  C   UNL     1       3.010   5.165  18.702  0.00  0.00    +0.000 A 
ATOM      2  C   UNL     1       2.857   3.774  18.769  0.00  0.00    +0.000 A 
ATOM      3  C   UNL     1       3.506   2.965  17.836  0.00  0.00    +0.000 A 
ATOM      4  C   UNL     1       4.321   3.538  16.858  0.00  0.00    +0.000 A 
ATOM      5  C   UNL     1       4.502   4.928  16.827  0.00  0.00    +0.000 A 
ATOM      6  C   UNL     1       3.807   5.751  17.714  0.00  0.00    +0.000 A 
ENDROOT
BRANCH   1   8
ATOM      7  O   UNL     1       1.684   5.523  20.591  0.00  0.00    +0.000 OA
ATOM      8  C   UNL     1       2.342   6.039  19.698  0.00  0.00    +0.000 C 
ATOM      9  N   UNL     1       2.448   7.388  19.427  0.00  0.00    +0.000 N 
ATOM     10  C   UNL     1       1.695   8.356  20.093  0.00  0.00    +0.000 A 
ATOM     11  C   UNL     1       1.480   8.322  21.466  0.00  0.00    +0.000 A 
ATOM     12  C   UNL     1       0.660   9.292  22.042  0.00  0.00    +0.000 A 
ATOM     13  C   UNL     1       0.059  10.237  21.222  0.00  0.00    +0.000 A 
ATOM     14 BR   UNL     1      -1.130  11.515  21.932  0.00  0.00    +0.000 Br
ATOM     15  C   UNL     1       0.349  10.210  19.866  0.00  0.00    +0.000 A 
ATOM     16  N   UNL     1       1.189   9.315  19.290  0.00  0.00    +0.000 NA
ATOM     17  H   UNL     1       2.685   7.658  18.481  0.00  0.00    +0.000 HD
ENDBRANCH   1   8
BRANCH   5  18
ATOM     18  S   UNL     1       5.593   5.650  15.617  0.00  0.00    +0.000 S 
ATOM     19  O   UNL     1       5.756   4.686  14.552  0.00  0.00    +0.000 OA
ATOM     20  O   UNL     1       5.112   6.990  15.348  0.00  0.00    +0.000 OA
BRANCH  18  21
ATOM     21  N   UNL     1       7.066   5.777  16.437  0.00  0.00    +0.000 NA
ATOM     22  C   UNL     1       7.515   4.670  17.299  0.00  0.00    +0.000 C 
ATOM     23  C   UNL     1       7.431   5.235  18.704  0.00  0.00    +0.000 C 
ATOM     24  C   UNL     1       7.777   6.704  18.536  0.00  0.00    +0.000 C 
ATOM     25  C   UNL     1       7.416   7.056  17.093  0.00  0.00    +0.000 C 
ENDBRANCH  18  21
ENDBRANCH   5  18
TORSDOF 3
ENDMDL
MODEL 2
REMARK VINA RESULT:      -8.1      1.773      2.284
REMARK  Name = 
REMARK  3 active torsions:
REMARK  status: ('A' for Active; 'I' for Inactive)
REMARK    1  A    between atoms: C_2  and  C_11
REMARK    2  A    between atoms: C_15  and  S_16
REMARK    3  A    between atoms: S_16  and  N_19
REMARK                            x       y       z     vdW  Elec       q    Type
REMARK                         _______ _______ _______ _____ _____    ______ ____
ROOT
ATOM      1  C   UNL     1       2.904   7.160  18.421  0.00  0.00    +0.000 A 
ATOM      2  C   UNL     1       2.817   6.359  19.566  0.00  0.00    +0.000 A 
ATOM      3  C   UNL     1       3.570   5.187  19.646  0.00  0.00    +0.000 A 
ATOM      4  C   UNL     1       4.422   4.830  18.598  0.00  0.00    +0.000 A 
ATOM      5  C   UNL     1       4.534   5.661  17.475  0.00  0.00    +0.000 A 
ATOM      6  C   UNL     1       3.738   6.801  17.357  0.00  0.00    +0.000 A 
ENDROOT
BRANCH   1   8
ATOM      7  O   UNL     1       2.267   9.133  17.346  0.00  0.00    +0.000 OA
ATOM      8  C   UNL     1       2.125   8.420  18.329  0.00  0.00    +0.000 C 
ATOM      9  N   UNL     1       1.389   8.712  19.460  0.00  0.00    +0.000 N 
ATOM     10  C   UNL     1       0.788   9.953  19.673  0.00  0.00    +0.000 A 
ATOM     11  C   UNL     1       0.119  10.643  18.669  0.00  0.00    +0.000 A 
ATOM     12  C   UNL     1      -0.395  11.907  18.949  0.00  0.00    +0.000 A 
ATOM     13  C   UNL     1      -0.192  12.451  20.211  0.00  0.00    +0.000 A 
ATOM     14 BR   UNL     1      -0.785  14.192  20.619  0.00  0.00    +0.000 Br
ATOM     15  C   UNL     1       0.466  11.682  21.158  0.00  0.00    +0.000 A 
ATOM     16  N   UNL     1       0.924  10.427  20.929  0.00  0.00    +0.000 NA
ATOM     17  H   UNL     1       1.650   8.250  20.321  0.00  0.00    +0.000 HD
ENDBRANCH   1   8
BRANCH   5  18
ATOM     18  S   UNL     1       5.669   5.234  16.170  0.00  0.00    +0.000 S 
ATOM     19  O   UNL     1       5.606   3.800  15.993  0.00  0.00    +0.000 OA
ATOM     20  O   UNL     1       5.416   6.137  15.065  0.00  0.00    +0.000 OA
BRANCH  18  21
ATOM     21  N   UNL     1       7.183   5.615  16.820  0.00  0.00    +0.000 NA
ATOM     22  C   UNL     1       7.766   4.747  17.859  0.00  0.00    +0.000 C 
ATOM     23  C   UNL     1       7.740   5.600  19.112  0.00  0.00    +0.000 C 
ATOM     24  C   UNL     1       7.971   7.013  18.607  0.00  0.00    +0.000 C 
ATOM     25  C   UNL     1       7.487   7.022  17.157  0.00  0.00    +0.000 C 
ENDBRANCH  18  21
ENDBRANCH   5  18
TORSDOF 3
ENDMDL
MODEL 3
REMARK VINA RESULT:      -8.0      3.131      4.943
REMARK  Name = 
REMARK  3 active torsions:
REMARK  status: ('A' for Active; 'I' for Inactive)
REMARK    1  A    between atoms: C_2  and  C_11
REMARK    2  A    between atoms: C_15  and  S_16
REMARK    3  A    between atoms: S_16  and  N_19
REMARK                            x       y       z     vdW  Elec       q    Type
REMARK                         _______ _______ _______ _____ _____    ______ ____
ROOT
ATOM      1  C   UNL     1       1.141   8.765  19.955  0.00  0.00    +0.000 A 
ATOM      2  C   UNL     1       1.351   9.389  18.718  0.00  0.00    +0.000 A 
ATOM      3  C   UNL     1       2.191   8.790  17.779  0.00  0.00    +0.000 A 
ATOM      4  C   UNL     1       2.800   7.566  18.064  0.00  0.00    +0.000 A 
ATOM      5  C   UNL     1       2.549   6.929  19.287  0.00  0.00    +0.000 A 
ATOM      6  C   UNL     1       1.762   7.550  20.259  0.00  0.00    +0.000 A 
ENDROOT
BRANCH   1   8
ATOM      7  O   UNL     1      -0.252   8.671  21.827  0.00  0.00    +0.000 OA
ATOM      8  C   UNL     1       0.235   9.379  20.957  0.00  0.00    +0.000 C 
ATOM      9  N   UNL     1      -0.059  10.706  20.714  0.00  0.00    +0.000 N 
ATOM     10  C   UNL     1      -1.070  11.393  21.387  0.00  0.00    +0.000 A 
ATOM     11  C   UNL     1      -1.281  11.263  22.755  0.00  0.00    +0.000 A 
ATOM     12  C   UNL     1      -2.356  11.934  23.336  0.00  0.00    +0.000 A 
ATOM     13  C   UNL     1      -3.200  12.681  22.525  0.00  0.00    +0.000 A 
ATOM     14 BR   UNL     1      -4.720  13.535  23.240  0.00  0.00    +0.000 Br
ATOM     15  C   UNL     1      -2.901  12.773  21.174  0.00  0.00    +0.000 A 
ATOM     16  N   UNL     1      -1.828  12.180  20.595  0.00  0.00    +0.000 NA
ATOM     17  H   UNL     1       0.098  11.057  19.779  0.00  0.00    +0.000 HD
ENDBRANCH   1   8
BRANCH   5  18
ATOM     18  S   UNL     1       3.276   5.337  19.620  0.00  0.00    +0.000 S 
ATOM     19  O   UNL     1       4.710   5.486  19.514  0.00  0.00    +0.000 OA
ATOM     20  O   UNL     1       2.663   4.827  20.830  0.00  0.00    +0.000 OA
BRANCH  18  21
ATOM     21  N   UNL     1       2.753   4.383  18.326  0.00  0.00    +0.000 NA
ATOM     22  C   UNL     1       1.369   3.877  18.310  0.00  0.00    +0.000 C 
ATOM     23  C   UNL     1       1.518   2.381  18.503  0.00  0.00    +0.000 C 
ATOM     24  C   UNL     1       2.818   2.041  17.796  0.00  0.00    +0.000 C 
ATOM     25  C   UNL     1       3.646   3.326  17.805  0.00  0.00    +0.000 C 
ENDBRANCH  18  21
ENDBRANCH   5  18
TORSDOF 3
ENDMDL
MODEL 4
REMARK VINA RESULT:      -7.7      2.617      4.058
REMARK  Name = 
REMARK  3 active torsions:
REMARK  status: ('A' for Active; 'I' for Inactive)
REMARK    1  A    between atoms: C_2  and  C_11
REMARK    2  A    between atoms: C_15  and  S_16
REMARK    3  A    between atoms: S_16  and  N_19
REMARK                            x       y       z     vdW  Elec       q    Type
REMARK                         _______ _______ _______ _____ _____    ______ ____
ROOT
ATOM      1  C   UNL     1       3.363   6.794  17.827  0.00  0.00    +0.000 A 
ATOM      2  C   UNL     1       4.642   6.979  17.287  0.00  0.00    +0.000 A 
ATOM      3  C   UNL     1       5.428   5.867  16.983  0.00  0.00    +0.000 A 
ATOM      4  C   UNL     1       4.932   4.579  17.196  0.00  0.00    +0.000 A 
ATOM      5  C   UNL     1       3.634   4.405  17.696  0.00  0.00    +0.000 A 
ATOM      6  C   UNL     1       2.864   5.509  18.063  0.00  0.00    +0.000 A 
ENDROOT
BRANCH   1   8
ATOM      7  O   UNL     1       2.586   8.960  17.431  0.00  0.00    +0.000 OA
ATOM      8  C   UNL     1       2.507   7.965  18.137  0.00  0.00    +0.000 C 
ATOM      9  N   UNL     1       1.776   7.838  19.301  0.00  0.00    +0.000 N 
ATOM     10  C   UNL     1       1.104   8.907  19.895  0.00  0.00    +0.000 A 
ATOM     11  C   UNL     1       0.375   9.834  19.159  0.00  0.00    +0.000 A 
ATOM     12  C   UNL     1      -0.210  10.910  19.825  0.00  0.00    +0.000 A 
ATOM     13  C   UNL     1      -0.017  11.040  21.194  0.00  0.00    +0.000 A 
ATOM     14 BR   UNL     1      -0.707  12.522  22.131  0.00  0.00    +0.000 Br
ATOM     15  C   UNL     1       0.706  10.055  21.851  0.00  0.00    +0.000 A 
ATOM     16  N   UNL     1       1.234   8.968  21.237  0.00  0.00    +0.000 NA
ATOM     17  H   UNL     1       2.080   7.145  19.973  0.00  0.00    +0.000 HD
ENDBRANCH   1   8
BRANCH   5  18
ATOM     18  S   UNL     1       2.981   2.760  17.905  0.00  0.00    +0.000 S 
ATOM     19  O   UNL     1       1.785   2.663  17.098  0.00  0.00    +0.000 OA
ATOM     20  O   UNL     1       4.081   1.834  17.728  0.00  0.00    +0.000 OA
BRANCH  18  21
ATOM     21  N   UNL     1       2.520   2.720  19.531  0.00  0.00    +0.000 NA
ATOM     22  C   UNL     1       1.093   2.825  19.883  0.00  0.00    +0.000 C 
ATOM     23  C   UNL     1       0.976   4.177  20.560  0.00  0.00    +0.000 C 
ATOM     24  C   UNL     1       2.300   4.348  21.283  0.00  0.00    +0.000 C 
ATOM     25  C   UNL     1       3.307   3.488  20.521  0.00  0.00    +0.000 C 
ENDBRANCH  18  21
ENDBRANCH   5  18
TORSDOF 3
ENDMDL
MODEL 5
REMARK VINA RESULT:      -7.7      1.909      2.488
REMARK  Name = 
REMARK  3 active torsions:
REMARK  status: ('A' for Active; 'I' for Inactive)
REMARK    1  A    between atoms: C_2  and  C_11
REMARK    2  A    between atoms: C_15  and  S_16
REMARK    3  A    between atoms: S_16  and  N_19
REMARK                            x       y       z     vdW  Elec       q    Type
REMARK                         _______ _______ _______ _____ _____    ______ ____
ROOT
ATOM      1  C   UNL     1       3.357   5.519  19.303  0.00  0.00    +0.000 A 
ATOM      2  C   UNL     1       3.077   4.154  19.446  0.00  0.00    +0.000 A 
ATOM      3  C   UNL     1       3.996   3.210  18.989  0.00  0.00    +0.000 A 
ATOM      4  C   UNL     1       5.198   3.626  18.412  0.00  0.00    +0.000 A 
ATOM      5  C   UNL     1       5.489   4.994  18.313  0.00  0.00    +0.000 A 
ATOM      6  C   UNL     1       4.548   5.946  18.708  0.00  0.00    +0.000 A 
ENDROOT
BRANCH   1   8
ATOM      7  O   UNL     1       1.592   6.215  20.664  0.00  0.00    +0.000 OA
ATOM      8  C   UNL     1       2.399   6.535  19.802  0.00  0.00    +0.000 C 
ATOM      9  N   UNL     1       2.450   7.739  19.129  0.00  0.00    +0.000 N 
ATOM     10  C   UNL     1       1.480   8.731  19.276  0.00  0.00    +0.000 A 
ATOM     11  C   UNL     1       0.946   9.079  20.511  0.00  0.00    +0.000 A 
ATOM     12  C   UNL     1      -0.067  10.035  20.561  0.00  0.00    +0.000 A 
ATOM     13  C   UNL     1      -0.533  10.583  19.373  0.00  0.00    +0.000 A 
ATOM     14 BR   UNL     1      -1.962  11.811  19.372  0.00  0.00    +0.000 Br
ATOM     15  C   UNL     1       0.074  10.195  18.189  0.00  0.00    +0.000 A 
ATOM     16  N   UNL     1       1.101   9.312  18.119  0.00  0.00    +0.000 NA
ATOM     17  H   UNL     1       2.882   7.746  18.214  0.00  0.00    +0.000 HD
ENDBRANCH   1   8
BRANCH   5  18
ATOM     18  S   UNL     1       7.051   5.518  17.635  0.00  0.00    +0.000 S 
ATOM     19  O   UNL     1       7.337   6.830  18.172  0.00  0.00    +0.000 OA
ATOM     20  O   UNL     1       7.983   4.421  17.800  0.00  0.00    +0.000 OA
BRANCH  18  21
ATOM     21  N   UNL     1       6.730   5.688  15.983  0.00  0.00    +0.000 NA
ATOM     22  C   UNL     1       5.341   5.869  15.529  0.00  0.00    +0.000 C 
ATOM     23  C   UNL     1       5.020   4.583  14.793  0.00  0.00    +0.000 C 
ATOM     24  C   UNL     1       6.338   4.179  14.157  0.00  0.00    +0.000 C 
ATOM     25  C   UNL     1       7.430   4.809  15.021  0.00  0.00    +0.000 C 
ENDBRANCH  18  21
ENDBRANCH   5  18
TORSDOF 3
ENDMDL
MODEL 6
REMARK VINA RESULT:      -7.7      4.614      8.582
REMARK  Name = 
REMARK  3 active torsions:
REMARK  status: ('A' for Active; 'I' for Inactive)
REMARK    1  A    between atoms: C_2  and  C_11
REMARK    2  A    between atoms: C_15  and  S_16
REMARK    3  A    between atoms: S_16  and  N_19
REMARK                            x       y       z     vdW  Elec       q    Type
REMARK                         _______ _______ _______ _____ _____    ______ ____
ROOT
ATOM      1  C   UNL     1       0.879   9.012  20.691  0.00  0.00    +0.000 A 
ATOM      2  C   UNL     1       0.686   9.083  22.077  0.00  0.00    +0.000 A 
ATOM      3  C   UNL     1      -0.130  10.082  22.608  0.00  0.00    +0.000 A 
ATOM      4  C   UNL     1      -0.768  10.990  21.760  0.00  0.00    +0.000 A 
ATOM      5  C   UNL     1      -0.604  10.883  20.372  0.00  0.00    +0.000 A 
ATOM      6  C   UNL     1       0.261   9.928  19.834  0.00  0.00    +0.000 A 
ENDROOT
BRANCH   1   8
ATOM      7  O   UNL     1       2.269   8.139  19.030  0.00  0.00    +0.000 OA
ATOM      8  C   UNL     1       1.728   7.943  20.109  0.00  0.00    +0.000 C 
ATOM      9  N   UNL     1       1.715   6.762  20.822  0.00  0.00    +0.000 N 
ATOM     10  C   UNL     1       2.243   5.570  20.322  0.00  0.00    +0.000 A 
ATOM     11  C   UNL     1       3.451   5.517  19.635  0.00  0.00    +0.000 A 
ATOM     12  C   UNL     1       3.873   4.296  19.112  0.00  0.00    +0.000 A 
ATOM     13  C   UNL     1       3.059   3.181  19.263  0.00  0.00    +0.000 A 
ATOM     14 BR   UNL     1       3.534   1.526  18.499  0.00  0.00    +0.000 Br
ATOM     15  C   UNL     1       1.882   3.322  19.984  0.00  0.00    +0.000 A 
ATOM     16  N   UNL     1       1.478   4.484  20.554  0.00  0.00    +0.000 NA
ATOM     17  H   UNL     1       0.951   6.611  21.466  0.00  0.00    +0.000 HD
ENDBRANCH   1   8
BRANCH   5  18
ATOM     18  S   UNL     1      -1.470  12.003  19.290  0.00  0.00    +0.000 S 
ATOM     19  O   UNL     1      -2.264  12.880  20.122  0.00  0.00    +0.000 OA
ATOM     20  O   UNL     1      -0.501  12.533  18.353  0.00  0.00    +0.000 OA
BRANCH  18  21
ATOM     21  N   UNL     1      -2.526  10.993  18.438  0.00  0.00    +0.000 NA
ATOM     22  C   UNL     1      -2.053  10.310  17.222  0.00  0.00    +0.000 C 
ATOM     23  C   UNL     1      -2.823  10.976  16.098  0.00  0.00    +0.000 C 
ATOM     24  C   UNL     1      -4.170  11.309  16.716  0.00  0.00    +0.000 C 
ATOM     25  C   UNL     1      -3.921  11.434  18.218  0.00  0.00    +0.000 C 
ENDBRANCH  18  21
ENDBRANCH   5  18
TORSDOF 3
ENDMDL
MODEL 7
REMARK VINA RESULT:      -7.7      2.686      4.060
REMARK  Name = 
REMARK  3 active torsions:
REMARK  status: ('A' for Active; 'I' for Inactive)
REMARK    1  A    between atoms: C_2  and  C_11
REMARK    2  A    between atoms: C_15  and  S_16
REMARK    3  A    between atoms: S_16  and  N_19
REMARK                            x       y       z     vdW  Elec       q    Type
REMARK                         _______ _______ _______ _____ _____    ______ ____
ROOT
ATOM      1  C   UNL     1       2.386   7.279  19.414  0.00  0.00    +0.000 A 
ATOM      2  C   UNL     1       2.588   7.992  18.225  0.00  0.00    +0.000 A 
ATOM      3  C   UNL     1       3.361   7.430  17.209  0.00  0.00    +0.000 A 
ATOM      4  C   UNL     1       3.910   6.156  17.370  0.00  0.00    +0.000 A 
ATOM      5  C   UNL     1       3.666   5.433  18.546  0.00  0.00    +0.000 A 
ATOM      6  C   UNL     1       2.948   6.011  19.594  0.00  0.00    +0.000 A 
ENDROOT
BRANCH   1   8
ATOM      7  O   UNL     1       0.958   7.097  21.254  0.00  0.00    +0.000 OA
ATOM      8  C   UNL     1       1.549   7.854  20.497  0.00  0.00    +0.000 C 
ATOM      9  N   UNL     1       1.436   9.229  20.453  0.00  0.00    +0.000 N 
ATOM     10  C   UNL     1       0.511   9.937  21.220  0.00  0.00    +0.000 A 
ATOM     11  C   UNL     1       0.260   9.638  22.555  0.00  0.00    +0.000 A 
ATOM     12  C   UNL     1      -0.729  10.353  23.229  0.00  0.00    +0.000 A 
ATOM     13  C   UNL     1      -1.453  11.315  22.538  0.00  0.00    +0.000 A 
ATOM     14 BR   UNL     1      -2.861  12.248  23.373  0.00  0.00    +0.000 Br
ATOM     15  C   UNL     1      -1.119  11.563  21.216  0.00  0.00    +0.000 A 
ATOM     16  N   UNL     1      -0.123  10.924  20.554  0.00  0.00    +0.000 NA
ATOM     17  H   UNL     1       1.654   9.689  19.579  0.00  0.00    +0.000 HD
ENDBRANCH   1   8
BRANCH   5  18
ATOM     18  S   UNL     1       4.314   3.783  18.720  0.00  0.00    +0.000 S 
ATOM     19  O   UNL     1       4.616   3.294  17.393  0.00  0.00    +0.000 OA
ATOM     20  O   UNL     1       5.331   3.826  19.752  0.00  0.00    +0.000 OA
BRANCH  18  21
ATOM     21  N   UNL     1       3.000   2.901  19.316  0.00  0.00    +0.000 NA
ATOM     22  C   UNL     1       1.659   3.125  18.749  0.00  0.00    +0.000 C 
ATOM     23  C   UNL     1       0.887   3.787  19.873  0.00  0.00    +0.000 C 
ATOM     24  C   UNL     1       1.454   3.161  21.135  0.00  0.00    +0.000 C 
ATOM     25  C   UNL     1       2.868   2.706  20.776  0.00  0.00    +0.000 C 
ENDBRANCH  18  21
ENDBRANCH   5  18
TORSDOF 3
ENDMDL
MODEL 8
REMARK VINA RESULT:      -7.6      2.124      2.828
REMARK  Name = 
REMARK  3 active torsions:
REMARK  status: ('A' for Active; 'I' for Inactive)
REMARK    1  A    between atoms: C_2  and  C_11
REMARK    2  A    between atoms: C_15  and  S_16
REMARK    3  A    between atoms: S_16  and  N_19
REMARK                            x       y       z     vdW  Elec       q    Type
REMARK                         _______ _______ _______ _____ _____    ______ ____
ROOT
ATOM      1  C   UNL     1       3.538   6.360  18.249  0.00  0.00    +0.000 A 
ATOM      2  C   UNL     1       3.184   5.137  18.833  0.00  0.00    +0.000 A 
ATOM      3  C   UNL     1       3.988   4.017  18.626  0.00  0.00    +0.000 A 
ATOM      4  C   UNL     1       5.150   4.121  17.859  0.00  0.00    +0.000 A 
ATOM      5  C   UNL     1       5.519   5.359  17.315  0.00  0.00    +0.000 A 
ATOM      6  C   UNL     1       4.689   6.471  17.463  0.00  0.00    +0.000 A 
ENDROOT
BRANCH   1   8
ATOM      7  O   UNL     1       2.858   8.538  17.750  0.00  0.00    +0.000 OA
ATOM      8  C   UNL     1       2.704   7.566  18.477  0.00  0.00    +0.000 C 
ATOM      9  N   UNL     1       1.901   7.494  19.597  0.00  0.00    +0.000 N 
ATOM     10  C   UNL     1       1.232   8.600  20.121  0.00  0.00    +0.000 A 
ATOM     11  C   UNL     1       0.579   9.529  19.320  0.00  0.00    +0.000 A 
ATOM     12  C   UNL     1      -0.009  10.641  19.920  0.00  0.00    +0.000 A 
ATOM     13  C   UNL     1       0.107  10.803  21.295  0.00  0.00    +0.000 A 
ATOM     14 BR   UNL     1      -0.588  12.331  22.149  0.00  0.00    +0.000 Br
ATOM     15  C   UNL     1       0.756   9.815  22.019  0.00  0.00    +0.000 A 
ATOM     16  N   UNL     1       1.284   8.694  21.466  0.00  0.00    +0.000 NA
ATOM     17  H   UNL     1       2.142   6.812  20.304  0.00  0.00    +0.000 HD
ENDBRANCH   1   8
BRANCH   5  18
ATOM     18  S   UNL     1       7.036   5.502  16.392  0.00  0.00    +0.000 S 
ATOM     19  O   UNL     1       7.590   6.809  16.668  0.00  0.00    +0.000 OA
ATOM     20  O   UNL     1       7.803   4.297  16.633  0.00  0.00    +0.000 OA
BRANCH  18  21
ATOM     21  N   UNL     1       6.523   5.483  14.780  0.00  0.00    +0.000 NA
ATOM     22  C   UNL     1       5.309   4.733  14.414  0.00  0.00    +0.000 C 
ATOM     23  C   UNL     1       5.824   3.575  13.582  0.00  0.00    +0.000 C 
ATOM     24  C   UNL     1       7.022   4.149  12.846  0.00  0.00    +0.000 C 
ATOM     25  C   UNL     1       7.527   5.306  13.709  0.00  0.00    +0.000 C 
ENDBRANCH  18  21
ENDBRANCH   5  18
TORSDOF 3
ENDMDL
MODEL 9
REMARK VINA RESULT:      -7.6      4.783      8.668
REMARK  Name = 
REMARK  3 active torsions:
REMARK  status: ('A' for Active; 'I' for Inactive)
REMARK    1  A    between atoms: C_2  and  C_11
REMARK    2  A    between atoms: C_15  and  S_16
REMARK    3  A    between atoms: S_16  and  N_19
REMARK                            x       y       z     vdW  Elec       q    Type
REMARK                         _______ _______ _______ _____ _____    ______ ____
ROOT
ATOM      1  C   UNL     1       1.349   8.978  19.181  0.00  0.00    +0.000 A 
ATOM      2  C   UNL     1       1.246   8.428  20.465  0.00  0.00    +0.000 A 
ATOM      3  C   UNL     1       0.276   8.909  21.344  0.00  0.00    +0.000 A 
ATOM      4  C   UNL     1      -0.601   9.917  20.936  0.00  0.00    +0.000 A 
ATOM      5  C   UNL     1      -0.517  10.430  19.634  0.00  0.00    +0.000 A 
ATOM      6  C   UNL     1       0.491  10.001  18.769  0.00  0.00    +0.000 A 
ENDROOT
BRANCH   1   8
ATOM      7  O   UNL     1       2.507   9.031  17.154  0.00  0.00    +0.000 OA
ATOM      8  C   UNL     1       2.363   8.464  18.227  0.00  0.00    +0.000 C 
ATOM      9  N   UNL     1       2.969   7.290  18.626  0.00  0.00    +0.000 N 
ATOM     10  C   UNL     1       3.762   6.519  17.775  0.00  0.00    +0.000 A 
ATOM     11  C   UNL     1       4.692   7.080  16.906  0.00  0.00    +0.000 A 
ATOM     12  C   UNL     1       5.395   6.242  16.043  0.00  0.00    +0.000 A 
ATOM     13  C   UNL     1       5.120   4.881  16.053  0.00  0.00    +0.000 A 
ATOM     14 BR   UNL     1       5.974   3.714  14.845  0.00  0.00    +0.000 Br
ATOM     15  C   UNL     1       4.194   4.406  16.969  0.00  0.00    +0.000 A 
ATOM     16  N   UNL     1       3.540   5.191  17.861  0.00  0.00    +0.000 NA
ATOM     17  H   UNL     1       2.502   6.737  19.332  0.00  0.00    +0.000 HD
ENDBRANCH   1   8
BRANCH   5  18
ATOM     18  S   UNL     1      -1.678  11.670  19.097  0.00  0.00    +0.000 S 
ATOM     19  O   UNL     1      -2.346  12.177  20.276  0.00  0.00    +0.000 OA
ATOM     20  O   UNL     1      -0.975  12.558  18.194  0.00  0.00    +0.000 OA
BRANCH  18  21
ATOM     21  N   UNL     1      -2.807  10.792  18.194  0.00  0.00    +0.000 NA
ATOM     22  C   UNL     1      -2.358  10.022  17.022  0.00  0.00    +0.000 C 
ATOM     23  C   UNL     1      -2.960  10.758  15.841  0.00  0.00    +0.000 C 
ATOM     24  C   UNL     1      -4.284  11.284  16.366  0.00  0.00    +0.000 C 
ATOM     25  C   UNL     1      -4.113  11.411  17.879  0.00  0.00    +0.000 C 
ENDBRANCH  18  21
ENDBRANCH   5  18
TORSDOF 3
ENDMDL
