MODEL 1
REMARK VINA RESULT:      -7.1      0.000      0.000
REMARK  Name = 
REMARK  7 active torsions:
REMARK  status: ('A' for Active; 'I' for Inactive)
REMARK    1  A    between atoms: C_1  and  N_2
REMARK    2  A    between atoms: C_4  and  C_5
REMARK    3  A    between atoms: C_10  and  C_12
REMARK    4  A    between atoms: C_12  and  C_13
REMARK    5  A    between atoms: C_13  and  C_14
REMARK    6  A    between atoms: C_14  and  O_15
REMARK    7  A    between atoms: O_15  and  C_16
REMARK                            x       y       z     vdW  Elec       q    Type
REMARK                         _______ _______ _______ _____ _____    ______ ____
ROOT
ATOM      1  C   UNL     1       7.279   5.440  16.295  0.00  0.00    +0.000 C 
ATOM      2  C   UNL     1       7.708   4.382  17.323  0.00  0.00    +0.000 C 
ATOM      3  C   UNL     1       7.476   5.067  18.651  0.00  0.00    +0.000 C 
ATOM      4  C   UNL     1       6.291   5.961  18.389  0.00  0.00    +0.000 C 
ATOM      5  N   UNL     1       6.124   6.057  16.961  0.00  0.00    +0.000 N 
ATOM      6  C   UNL     1       5.123   6.853  16.398  0.00  0.00    +0.000 C 
ATOM      7  O   UNL     1       4.915   6.940  15.209  0.00  0.00    +0.000 OA
ENDROOT
BRANCH   1  11
ATOM      8  C   UNL     1       5.205   3.142  12.381  0.00  0.00    +0.000 C 
ATOM      9  N   UNL     1       6.150   3.824  13.231  0.00  0.00    +0.000 N 
ATOM     10  C   UNL     1       6.131   3.864  14.593  0.00  0.00    +0.000 A 
ATOM     11  C   UNL     1       7.025   4.850  14.958  0.00  0.00    +0.000 A 
ATOM     12  C   UNL     1       7.639   5.219  13.734  0.00  0.00    +0.000 A 
ATOM     13  N   UNL     1       7.108   4.593  12.683  0.00  0.00    +0.000 NA
ENDBRANCH   1  11
BRANCH   6  14
ATOM     14  C   UNL     1       4.246   7.639  17.397  0.00  0.00    +0.000 C 
BRANCH  14  15
ATOM     15  C   UNL     1       2.846   7.096  17.644  0.00  0.00    +0.000 C 
BRANCH  15  16
ATOM     16  C   UNL     1       2.592   6.852  19.114  0.00  0.00    +0.000 C 
BRANCH  16  17
ATOM     17  O   UNL     1       3.254   5.647  19.495  0.00  0.00    +0.000 OA
BRANCH  17  18
ATOM     18  C   UNL     1       2.585   4.490  19.181  0.00  0.00    +0.000 A 
ATOM     19  C   UNL     1       1.481   4.206  19.993  0.00  0.00    +0.000 A 
ATOM     20  C   UNL     1       0.747   3.030  19.807  0.00  0.00    +0.000 A 
ATOM     21  C   UNL     1       1.108   2.129  18.807  0.00  0.00    +0.000 A 
ATOM     22  C   UNL     1       2.206   2.405  17.993  0.00  0.00    +0.000 A 
ATOM     23  C   UNL     1       2.933   3.577  18.181  0.00  0.00    +0.000 A 
ATOM     24  F   UNL     1       4.003   3.771  17.398  0.00  0.00    +0.000 F 
ENDBRANCH  17  18
ENDBRANCH  16  17
ENDBRANCH  15  16
ENDBRANCH  14  15
ENDBRANCH   6  14
TORSDOF 6
ENDMDL
MODEL 2
REMARK VINA RESULT:      -7.0      3.784      5.373
REMARK  Name = 
REMARK  7 active torsions:
REMARK  status: ('A' for Active; 'I' for Inactive)
REMARK    1  A    between atoms: C_1  and  N_2
REMARK    2  A    between atoms: C_4  and  C_5
REMARK    3  A    between atoms: C_10  and  C_12
REMARK    4  A    between atoms: C_12  and  C_13
REMARK    5  A    between atoms: C_13  and  C_14
REMARK    6  A    between atoms: C_14  and  O_15
REMARK    7  A    between atoms: O_15  and  C_16
REMARK                            x       y       z     vdW  Elec       q    Type
REMARK                         _______ _______ _______ _____ _____    ______ ____
ROOT
ATOM      1  C   UNL     1       4.320   3.936  18.058  0.00  0.00    +0.000 C 
ATOM      2  C   UNL     1       3.473   2.714  17.670  0.00  0.00    +0.000 C 
ATOM      3  C   UNL     1       2.184   2.922  18.432  0.00  0.00    +0.000 C 
ATOM      4  C   UNL     1       2.034   4.420  18.477  0.00  0.00    +0.000 C 
ATOM      5  N   UNL     1       3.305   4.997  18.119  0.00  0.00    +0.000 N 
ATOM      6  C   UNL     1       3.497   6.382  18.109  0.00  0.00    +0.000 C 
ATOM      7  O   UNL     1       4.531   6.919  17.780  0.00  0.00    +0.000 OA
ENDROOT
BRANCH   1  11
ATOM      8  C   UNL     1       7.062   4.963  14.017  0.00  0.00    +0.000 C 
ATOM      9  N   UNL     1       6.673   4.581  15.352  0.00  0.00    +0.000 N 
ATOM     10  C   UNL     1       5.452   4.113  15.738  0.00  0.00    +0.000 A 
ATOM     11  C   UNL     1       5.444   4.160  17.117  0.00  0.00    +0.000 A 
ATOM     12  C   UNL     1       6.774   4.522  17.451  0.00  0.00    +0.000 A 
ATOM     13  N   UNL     1       7.523   4.776  16.377  0.00  0.00    +0.000 NA
ENDBRANCH   1  11
BRANCH   6  14
ATOM     14  C   UNL     1       2.283   7.235  18.535  0.00  0.00    +0.000 C 
BRANCH  14  15
ATOM     15  C   UNL     1       1.969   8.447  17.671  0.00  0.00    +0.000 C 
BRANCH  15  16
ATOM     16  C   UNL     1       1.759   9.690  18.506  0.00  0.00    +0.000 C 
BRANCH  16  17
ATOM     17  O   UNL     1       0.362   9.829  18.766  0.00  0.00    +0.000 OA
BRANCH  17  18
ATOM     18  C   UNL     1       0.038  10.122  20.067  0.00  0.00    +0.000 A 
ATOM     19  C   UNL     1       0.471   9.184  21.011  0.00  0.00    +0.000 A 
ATOM     20  C   UNL     1       0.160   9.342  22.365  0.00  0.00    +0.000 A 
ATOM     21  C   UNL     1      -0.588  10.440  22.788  0.00  0.00    +0.000 A 
ATOM     22  C   UNL     1      -1.023  11.379  21.854  0.00  0.00    +0.000 A 
ATOM     23  C   UNL     1      -0.710  11.218  20.508  0.00  0.00    +0.000 A 
ATOM     24  F   UNL     1      -1.190  12.129  19.650  0.00  0.00    +0.000 F 
ENDBRANCH  17  18
ENDBRANCH  16  17
ENDBRANCH  15  16
ENDBRANCH  14  15
ENDBRANCH   6  14
TORSDOF 6
ENDMDL
MODEL 3
REMARK VINA RESULT:      -6.9      3.727      5.389
REMARK  Name = 
REMARK  7 active torsions:
REMARK  status: ('A' for Active; 'I' for Inactive)
REMARK    1  A    between atoms: C_1  and  N_2
REMARK    2  A    between atoms: C_4  and  C_5
REMARK    3  A    between atoms: C_10  and  C_12
REMARK    4  A    between atoms: C_12  and  C_13
REMARK    5  A    between atoms: C_13  and  C_14
REMARK    6  A    between atoms: C_14  and  O_15
REMARK    7  A    between atoms: O_15  and  C_16
REMARK                            x       y       z     vdW  Elec       q    Type
REMARK                         _______ _______ _______ _____ _____    ______ ____
ROOT
ATOM      1  C   UNL     1       4.809   4.548  18.963  0.00  0.00    +0.000 C 
ATOM      2  C   UNL     1       4.231   3.197  19.412  0.00  0.00    +0.000 C 
ATOM      3  C   UNL     1       3.081   3.588  20.313  0.00  0.00    +0.000 C 
ATOM      4  C   UNL     1       2.582   4.878  19.715  0.00  0.00    +0.000 C 
ATOM      5  N   UNL     1       3.593   5.359  18.808  0.00  0.00    +0.000 N 
ATOM      6  C   UNL     1       3.439   6.566  18.121  0.00  0.00    +0.000 C 
ATOM      7  O   UNL     1       4.239   6.997  17.321  0.00  0.00    +0.000 OA
ENDROOT
BRANCH   1  11
ATOM      8  C   UNL     1       6.462   4.128  14.273  0.00  0.00    +0.000 C 
ATOM      9  N   UNL     1       6.420   4.207  15.713  0.00  0.00    +0.000 N 
ATOM     10  C   UNL     1       5.347   3.933  16.508  0.00  0.00    +0.000 A 
ATOM     11  C   UNL     1       5.666   4.417  17.759  0.00  0.00    +0.000 A 
ATOM     12  C   UNL     1       7.021   4.815  17.632  0.00  0.00    +0.000 A 
ATOM     13  N   UNL     1       7.481   4.685  16.387  0.00  0.00    +0.000 NA
ENDBRANCH   1  11
BRANCH   6  14
ATOM     14  C   UNL     1       2.146   7.354  18.424  0.00  0.00    +0.000 C 
BRANCH  14  15
ATOM     15  C   UNL     1       1.995   8.700  17.732  0.00  0.00    +0.000 C 
BRANCH  15  16
ATOM     16  C   UNL     1       1.491   9.764  18.682  0.00  0.00    +0.000 C 
BRANCH  16  17
ATOM     17  O   UNL     1       1.004   9.124  19.861  0.00  0.00    +0.000 OA
BRANCH  17  18
ATOM     18  C   UNL     1       0.388   9.954  20.763  0.00  0.00    +0.000 A 
ATOM     19  C   UNL     1       0.544  11.322  20.512  0.00  0.00    +0.000 A 
ATOM     20  C   UNL     1       0.007  12.272  21.387  0.00  0.00    +0.000 A 
ATOM     21  C   UNL     1      -0.693  11.862  22.520  0.00  0.00    +0.000 A 
ATOM     22  C   UNL     1      -0.854  10.501  22.778  0.00  0.00    +0.000 A 
ATOM     23  C   UNL     1      -0.319   9.560  21.904  0.00  0.00    +0.000 A 
ATOM     24  F   UNL     1      -0.468   8.267  22.222  0.00  0.00    +0.000 F 
ENDBRANCH  17  18
ENDBRANCH  16  17
ENDBRANCH  15  16
ENDBRANCH  14  15
ENDBRANCH   6  14
TORSDOF 6
ENDMDL
MODEL 4
REMARK VINA RESULT:      -6.9      3.941      6.112
REMARK  Name = 
REMARK  7 active torsions:
REMARK  status: ('A' for Active; 'I' for Inactive)
REMARK    1  A    between atoms: C_1  and  N_2
REMARK    2  A    between atoms: C_4  and  C_5
REMARK    3  A    between atoms: C_10  and  C_12
REMARK    4  A    between atoms: C_12  and  C_13
REMARK    5  A    between atoms: C_13  and  C_14
REMARK    6  A    between atoms: C_14  and  O_15
REMARK    7  A    between atoms: O_15  and  C_16
REMARK                            x       y       z     vdW  Elec       q    Type
REMARK                         _______ _______ _______ _____ _____    ______ ____
ROOT
ATOM      1  C   UNL     1       3.826   4.513  17.157  0.00  0.00    +0.000 C 
ATOM      2  C   UNL     1       5.309   4.255  16.853  0.00  0.00    +0.000 C 
ATOM      3  C   UNL     1       5.738   5.499  16.107  0.00  0.00    +0.000 C 
ATOM      4  C   UNL     1       4.890   6.588  16.713  0.00  0.00    +0.000 C 
ATOM      5  N   UNL     1       3.824   5.954  17.446  0.00  0.00    +0.000 N 
ATOM      6  C   UNL     1       2.840   6.706  18.093  0.00  0.00    +0.000 C 
ATOM      7  O   UNL     1       1.946   6.227  18.753  0.00  0.00    +0.000 OA
ENDROOT
BRANCH   1  11
ATOM      8  C   UNL     1       2.605   2.552  21.580  0.00  0.00    +0.000 C 
ATOM      9  N   UNL     1       2.787   2.732  20.161  0.00  0.00    +0.000 N 
ATOM     10  C   UNL     1       3.687   3.559  19.558  0.00  0.00    +0.000 A 
ATOM     11  C   UNL     1       3.312   3.630  18.233  0.00  0.00    +0.000 A 
ATOM     12  C   UNL     1       2.269   2.676  18.125  0.00  0.00    +0.000 A 
ATOM     13  N   UNL     1       1.950   2.128  19.298  0.00  0.00    +0.000 NA
ENDBRANCH   1  11
BRANCH   6  14
ATOM     14  C   UNL     1       2.954   8.239  17.941  0.00  0.00    +0.000 C 
BRANCH  14  15
ATOM     15  C   UNL     1       1.667   8.986  17.621  0.00  0.00    +0.000 C 
BRANCH  15  16
ATOM     16  C   UNL     1       1.281   9.936  18.731  0.00  0.00    +0.000 C 
BRANCH  16  17
ATOM     17  O   UNL     1      -0.047   9.624  19.152  0.00  0.00    +0.000 OA
BRANCH  17  18
ATOM     18  C   UNL     1      -0.310   9.865  20.478  0.00  0.00    +0.000 A 
ATOM     19  C   UNL     1      -0.746  11.161  20.769  0.00  0.00    +0.000 A 
ATOM     20  C   UNL     1      -0.999  11.547  22.089  0.00  0.00    +0.000 A 
ATOM     21  C   UNL     1      -0.820  10.638  23.131  0.00  0.00    +0.000 A 
ATOM     22  C   UNL     1      -0.385   9.343  22.849  0.00  0.00    +0.000 A 
ATOM     23  C   UNL     1      -0.136   8.964  21.533  0.00  0.00    +0.000 A 
ATOM     24  F   UNL     1       0.319   7.721  21.325  0.00  0.00    +0.000 F 
ENDBRANCH  17  18
ENDBRANCH  16  17
ENDBRANCH  15  16
ENDBRANCH  14  15
ENDBRANCH   6  14
TORSDOF 6
ENDMDL
MODEL 5
REMARK VINA RESULT:      -6.9      4.847      7.968
REMARK  Name = 
REMARK  7 active torsions:
REMARK  status: ('A' for Active; 'I' for Inactive)
REMARK    1  A    between atoms: C_1  and  N_2
REMARK    2  A    between atoms: C_4  and  C_5
REMARK    3  A    between atoms: C_10  and  C_12
REMARK    4  A    between atoms: C_12  and  C_13
REMARK    5  A    between atoms: C_13  and  C_14
REMARK    6  A    between atoms: C_14  and  O_15
REMARK    7  A    between atoms: O_15  and  C_16
REMARK                            x       y       z     vdW  Elec       q    Type
REMARK                         _______ _______ _______ _____ _____    ______ ____
ROOT
ATOM      1  C   UNL     1       4.676   4.949  16.503  0.00  0.00    +0.000 C 
ATOM      2  C   UNL     1       5.002   3.891  15.439  0.00  0.00    +0.000 C 
ATOM      3  C   UNL     1       6.217   4.458  14.738  0.00  0.00    +0.000 C 
ATOM      4  C   UNL     1       6.935   5.214  15.825  0.00  0.00    +0.000 C 
ATOM      5  N   UNL     1       6.017   5.377  16.924  0.00  0.00    +0.000 N 
ATOM      6  C   UNL     1       6.381   6.078  18.077  0.00  0.00    +0.000 C 
ATOM      7  O   UNL     1       5.663   6.212  19.043  0.00  0.00    +0.000 OA
ENDROOT
BRANCH   1  11
ATOM      8  C   UNL     1       2.916   2.686  20.587  0.00  0.00    +0.000 C 
ATOM      9  N   UNL     1       2.989   3.411  19.343  0.00  0.00    +0.000 N 
ATOM     10  C   UNL     1       4.009   3.368  18.439  0.00  0.00    +0.000 A 
ATOM     11  C   UNL     1       3.794   4.417  17.570  0.00  0.00    +0.000 A 
ATOM     12  C   UNL     1       2.526   4.921  17.956  0.00  0.00    +0.000 A 
ATOM     13  N   UNL     1       2.035   4.307  19.034  0.00  0.00    +0.000 NA
ENDBRANCH   1  11
BRANCH   6  14
ATOM     14  C   UNL     1       7.800   6.686  18.077  0.00  0.00    +0.000 C 
BRANCH  14  15
ATOM     15  C   UNL     1       7.914   8.142  17.653  0.00  0.00    +0.000 C 
BRANCH  15  16
ATOM     16  C   UNL     1       8.584   8.984  18.715  0.00  0.00    +0.000 C 
BRANCH  16  17
ATOM     17  O   UNL     1       8.644  10.333  18.253  0.00  0.00    +0.000 OA
BRANCH  17  18
ATOM     18  C   UNL     1       9.747  11.041  18.660  0.00  0.00    +0.000 A 
ATOM     19  C   UNL     1      10.541  11.548  17.625  0.00  0.00    +0.000 A 
ATOM     20  C   UNL     1      11.720  12.244  17.909  0.00  0.00    +0.000 A 
ATOM     21  C   UNL     1      12.116  12.441  19.231  0.00  0.00    +0.000 A 
ATOM     22  C   UNL     1      11.330  11.940  20.268  0.00  0.00    +0.000 A 
ATOM     23  C   UNL     1      10.157  11.249  19.981  0.00  0.00    +0.000 A 
ATOM     24  F   UNL     1       9.463  10.754  21.015  0.00  0.00    +0.000 F 
ENDBRANCH  17  18
ENDBRANCH  16  17
ENDBRANCH  15  16
ENDBRANCH  14  15
ENDBRANCH   6  14
TORSDOF 6
ENDMDL
MODEL 6
REMARK VINA RESULT:      -6.9      0.979      1.209
REMARK  Name = 
REMARK  7 active torsions:
REMARK  status: ('A' for Active; 'I' for Inactive)
REMARK    1  A    between atoms: C_1  and  N_2
REMARK    2  A    between atoms: C_4  and  C_5
REMARK    3  A    between atoms: C_10  and  C_12
REMARK    4  A    between atoms: C_12  and  C_13
REMARK    5  A    between atoms: C_13  and  C_14
REMARK    6  A    between atoms: C_14  and  O_15
REMARK    7  A    between atoms: O_15  and  C_16
REMARK                            x       y       z     vdW  Elec       q    Type
REMARK                         _______ _______ _______ _____ _____    ______ ____
ROOT
ATOM      1  C   UNL     1       7.223   5.480  16.376  0.00  0.00    +0.000 C 
ATOM      2  C   UNL     1       7.665   4.430  17.406  0.00  0.00    +0.000 C 
ATOM      3  C   UNL     1       7.372   5.092  18.734  0.00  0.00    +0.000 C 
ATOM      4  C   UNL     1       6.161   5.942  18.448  0.00  0.00    +0.000 C 
ATOM      5  N   UNL     1       6.027   6.045  17.017  0.00  0.00    +0.000 N 
ATOM      6  C   UNL     1       5.011   6.808  16.435  0.00  0.00    +0.000 C 
ATOM      7  O   UNL     1       4.831   6.898  15.242  0.00  0.00    +0.000 OA
ENDROOT
BRANCH   1  11
ATOM      8  C   UNL     1       5.335   3.161  12.381  0.00  0.00    +0.000 C 
ATOM      9  N   UNL     1       6.234   3.860  13.266  0.00  0.00    +0.000 N 
ATOM     10  C   UNL     1       6.170   3.890  14.627  0.00  0.00    +0.000 A 
ATOM     11  C   UNL     1       7.027   4.895  15.027  0.00  0.00    +0.000 A 
ATOM     12  C   UNL     1       7.670   5.289  13.827  0.00  0.00    +0.000 A 
ATOM     13  N   UNL     1       7.189   4.657  12.755  0.00  0.00    +0.000 NA
ENDBRANCH   1  11
BRANCH   6  14
ATOM     14  C   UNL     1       4.078   7.549  17.417  0.00  0.00    +0.000 C 
BRANCH  14  15
ATOM     15  C   UNL     1       2.829   6.801  17.861  0.00  0.00    +0.000 C 
BRANCH  15  16
ATOM     16  C   UNL     1       2.799   6.603  19.360  0.00  0.00    +0.000 C 
BRANCH  16  17
ATOM     17  O   UNL     1       1.961   5.486  19.652  0.00  0.00    +0.000 OA
BRANCH  17  18
ATOM     18  C   UNL     1       2.401   4.282  19.159  0.00  0.00    +0.000 A 
ATOM     19  C   UNL     1       3.473   3.713  19.855  0.00  0.00    +0.000 A 
ATOM     20  C   UNL     1       4.045   2.513  19.423  0.00  0.00    +0.000 A 
ATOM     21  C   UNL     1       3.549   1.869  18.290  0.00  0.00    +0.000 A 
ATOM     22  C   UNL     1       2.480   2.429  17.591  0.00  0.00    +0.000 A 
ATOM     23  C   UNL     1       1.914   3.623  18.026  0.00  0.00    +0.000 A 
ATOM     24  F   UNL     1       0.917   4.137  17.292  0.00  0.00    +0.000 F 
ENDBRANCH  17  18
ENDBRANCH  16  17
ENDBRANCH  15  16
ENDBRANCH  14  15
ENDBRANCH   6  14
TORSDOF 6
ENDMDL
MODEL 7
REMARK VINA RESULT:      -6.9      4.826      7.969
REMARK  Name = 
REMARK  7 active torsions:
REMARK  status: ('A' for Active; 'I' for Inactive)
REMARK    1  A    between atoms: C_1  and  N_2
REMARK    2  A    between atoms: C_4  and  C_5
REMARK    3  A    between atoms: C_10  and  C_12
REMARK    4  A    between atoms: C_12  and  C_13
REMARK    5  A    between atoms: C_13  and  C_14
REMARK    6  A    between atoms: C_14  and  O_15
REMARK    7  A    between atoms: O_15  and  C_16
REMARK                            x       y       z     vdW  Elec       q    Type
REMARK                         _______ _______ _______ _____ _____    ______ ____
ROOT
ATOM      1  C   UNL     1       4.471   4.562  17.510  0.00  0.00    +0.000 C 
ATOM      2  C   UNL     1       4.507   3.597  16.316  0.00  0.00    +0.000 C 
ATOM      3  C   UNL     1       5.399   4.302  15.318  0.00  0.00    +0.000 C 
ATOM      4  C   UNL     1       6.378   5.052  16.183  0.00  0.00    +0.000 C 
ATOM      5  N   UNL     1       5.848   5.075  17.523  0.00  0.00    +0.000 N 
ATOM      6  C   UNL     1       6.516   5.737  18.557  0.00  0.00    +0.000 C 
ATOM      7  O   UNL     1       6.136   5.755  19.706  0.00  0.00    +0.000 OA
ENDROOT
BRANCH   1  11
ATOM      8  C   UNL     1       1.744   3.018  21.393  0.00  0.00    +0.000 C 
ATOM      9  N   UNL     1       2.843   3.224  20.482  0.00  0.00    +0.000 N 
ATOM     10  C   UNL     1       2.986   4.260  19.607  0.00  0.00    +0.000 A 
ATOM     11  C   UNL     1       4.008   3.899  18.753  0.00  0.00    +0.000 A 
ATOM     12  C   UNL     1       4.509   2.696  19.314  0.00  0.00    +0.000 A 
ATOM     13  N   UNL     1       3.801   2.287  20.367  0.00  0.00    +0.000 NA
ENDBRANCH   1  11
BRANCH   6  14
ATOM     14  C   UNL     1       7.822   6.460  18.163  0.00  0.00    +0.000 C 
BRANCH  14  15
ATOM     15  C   UNL     1       7.678   7.879  17.634  0.00  0.00    +0.000 C 
BRANCH  15  16
ATOM     16  C   UNL     1       8.535   8.855  18.409  0.00  0.00    +0.000 C 
BRANCH  16  17
ATOM     17  O   UNL     1       8.342  10.159  17.864  0.00  0.00    +0.000 OA
BRANCH  17  18
ATOM     18  C   UNL     1       9.063  11.158  18.470  0.00  0.00    +0.000 A 
ATOM     19  C   UNL     1       9.828  10.752  19.568  0.00  0.00    +0.000 A 
ATOM     20  C   UNL     1      10.568  11.684  20.303  0.00  0.00    +0.000 A 
ATOM     21  C   UNL     1      10.550  13.031  19.944  0.00  0.00    +0.000 A 
ATOM     22  C   UNL     1       9.791  13.444  18.850  0.00  0.00    +0.000 A 
ATOM     23  C   UNL     1       9.057  12.512  18.121  0.00  0.00    +0.000 A 
ATOM     24  F   UNL     1       8.313  12.971  17.106  0.00  0.00    +0.000 F 
ENDBRANCH  17  18
ENDBRANCH  16  17
ENDBRANCH  15  16
ENDBRANCH  14  15
ENDBRANCH   6  14
TORSDOF 6
ENDMDL
MODEL 8
REMARK VINA RESULT:      -6.9      4.085      5.594
REMARK  Name = 
REMARK  7 active torsions:
REMARK  status: ('A' for Active; 'I' for Inactive)
REMARK    1  A    between atoms: C_1  and  N_2
REMARK    2  A    between atoms: C_4  and  C_5
REMARK    3  A    between atoms: C_10  and  C_12
REMARK    4  A    between atoms: C_12  and  C_13
REMARK    5  A    between atoms: C_13  and  C_14
REMARK    6  A    between atoms: C_14  and  O_15
REMARK    7  A    between atoms: O_15  and  C_16
REMARK                            x       y       z     vdW  Elec       q    Type
REMARK                         _______ _______ _______ _____ _____    ______ ____
ROOT
ATOM      1  C   UNL     1       4.572   4.151  18.288  0.00  0.00    +0.000 C 
ATOM      2  C   UNL     1       3.750   2.860  18.159  0.00  0.00    +0.000 C 
ATOM      3  C   UNL     1       2.494   3.161  18.945  0.00  0.00    +0.000 C 
ATOM      4  C   UNL     1       2.295   4.641  18.746  0.00  0.00    +0.000 C 
ATOM      5  N   UNL     1       3.526   5.181  18.226  0.00  0.00    +0.000 N 
ATOM      6  C   UNL     1       3.670   6.548  17.971  0.00  0.00    +0.000 C 
ATOM      7  O   UNL     1       4.667   7.047  17.500  0.00  0.00    +0.000 OA
ENDROOT
BRANCH   1  11
ATOM      8  C   UNL     1       7.085   4.759  14.020  0.00  0.00    +0.000 C 
ATOM      9  N   UNL     1       6.767   4.476  15.398  0.00  0.00    +0.000 N 
ATOM     10  C   UNL     1       5.546   4.123  15.891  0.00  0.00    +0.000 A 
ATOM     11  C   UNL     1       5.640   4.240  17.262  0.00  0.00    +0.000 A 
ATOM     12  C   UNL     1       7.013   4.515  17.485  0.00  0.00    +0.000 A 
ATOM     13  N   UNL     1       7.699   4.656  16.350  0.00  0.00    +0.000 NA
ENDBRANCH   1  11
BRANCH   6  14
ATOM     14  C   UNL     1       2.450   7.430  18.314  0.00  0.00    +0.000 C 
BRANCH  14  15
ATOM     15  C   UNL     1       2.431   8.826  17.709  0.00  0.00    +0.000 C 
BRANCH  15  16
ATOM     16  C   UNL     1       1.389   9.705  18.363  0.00  0.00    +0.000 C 
BRANCH  16  17
ATOM     17  O   UNL     1       0.136   9.478  17.720  0.00  0.00    +0.000 OA
BRANCH  17  18
ATOM     18  C   UNL     1      -0.878  10.320  18.103  0.00  0.00    +0.000 A 
ATOM     19  C   UNL     1      -0.716  10.906  19.363  0.00  0.00    +0.000 A 
ATOM     20  C   UNL     1      -1.704  11.744  19.889  0.00  0.00    +0.000 A 
ATOM     21  C   UNL     1      -2.863  12.005  19.159  0.00  0.00    +0.000 A 
ATOM     22  C   UNL     1      -3.031  11.425  17.902  0.00  0.00    +0.000 A 
ATOM     23  C   UNL     1      -2.045  10.592  17.382  0.00  0.00    +0.000 A 
ATOM     24  F   UNL     1      -2.278  10.030  16.189  0.00  0.00    +0.000 F 
ENDBRANCH  17  18
ENDBRANCH  16  17
ENDBRANCH  15  16
ENDBRANCH  14  15
ENDBRANCH   6  14
TORSDOF 6
ENDMDL
MODEL 9
REMARK VINA RESULT:      -6.9      3.990      5.538
REMARK  Name = 
REMARK  7 active torsions:
REMARK  status: ('A' for Active; 'I' for Inactive)
REMARK    1  A    between atoms: C_1  and  N_2
REMARK    2  A    between atoms: C_4  and  C_5
REMARK    3  A    between atoms: C_10  and  C_12
REMARK    4  A    between atoms: C_12  and  C_13
REMARK    5  A    between atoms: C_13  and  C_14
REMARK    6  A    between atoms: C_14  and  O_15
REMARK    7  A    between atoms: O_15  and  C_16
REMARK                            x       y       z     vdW  Elec       q    Type
REMARK                         _______ _______ _______ _____ _____    ______ ____
ROOT
ATOM      1  C   UNL     1       4.395   4.111  17.951  0.00  0.00    +0.000 C 
ATOM      2  C   UNL     1       3.512   2.896  17.630  0.00  0.00    +0.000 C 
ATOM      3  C   UNL     1       2.239   3.173  18.398  0.00  0.00    +0.000 C 
ATOM      4  C   UNL     1       2.129   4.675  18.378  0.00  0.00    +0.000 C 
ATOM      5  N   UNL     1       3.410   5.201  17.978  0.00  0.00    +0.000 N 
ATOM      6  C   UNL     1       3.639   6.578  17.902  0.00  0.00    +0.000 C 
ATOM      7  O   UNL     1       4.681   7.072  17.536  0.00  0.00    +0.000 OA
ENDROOT
BRANCH   1  11
ATOM      8  C   UNL     1       7.108   4.915  13.841  0.00  0.00    +0.000 C 
ATOM      9  N   UNL     1       6.727   4.584  15.192  0.00  0.00    +0.000 N 
ATOM     10  C   UNL     1       5.494   4.180  15.610  0.00  0.00    +0.000 A 
ATOM     11  C   UNL     1       5.512   4.262  16.987  0.00  0.00    +0.000 A 
ATOM     12  C   UNL     1       6.862   4.574  17.290  0.00  0.00    +0.000 A 
ATOM     13  N   UNL     1       7.602   4.768  16.197  0.00  0.00    +0.000 NA
ENDBRANCH   1  11
BRANCH   6  14
ATOM     14  C   UNL     1       2.453   7.482  18.305  0.00  0.00    +0.000 C 
BRANCH  14  15
ATOM     15  C   UNL     1       2.278   8.766  17.508  0.00  0.00    +0.000 C 
BRANCH  15  16
ATOM     16  C   UNL     1       1.780   9.900  18.375  0.00  0.00    +0.000 C 
BRANCH  16  17
ATOM     17  O   UNL     1       0.627   9.451  19.087  0.00  0.00    +0.000 OA
BRANCH  17  18
ATOM     18  C   UNL     1      -0.507  10.198  18.890  0.00  0.00    +0.000 A 
ATOM     19  C   UNL     1      -1.191   9.932  17.699  0.00  0.00    +0.000 A 
ATOM     20  C   UNL     1      -2.335  10.661  17.357  0.00  0.00    +0.000 A 
ATOM     21  C   UNL     1      -2.805  11.662  18.205  0.00  0.00    +0.000 A 
ATOM     22  C   UNL     1      -2.130  11.934  19.394  0.00  0.00    +0.000 A 
ATOM     23  C   UNL     1      -0.993  11.204  19.730  0.00  0.00    +0.000 A 
ATOM     24  F   UNL     1      -0.361  11.536  20.865  0.00  0.00    +0.000 F 
ENDBRANCH  17  18
ENDBRANCH  16  17
ENDBRANCH  15  16
ENDBRANCH  14  15
ENDBRANCH   6  14
TORSDOF 6
ENDMDL
