MODEL 1
REMARK VINA RESULT:      -6.3      0.000      0.000
REMARK  Name = 
REMARK  16 active torsions:
REMARK  status: ('A' for Active; 'I' for Inactive)
REMARK    1  A    between atoms: C_1  and  C_2
REMARK    2  A    between atoms: C_2  and  C_3
REMARK    3  A    between atoms: C_3  and  C_4
REMARK    4  A    between atoms: C_4  and  C_5
REMARK    5  A    between atoms: C_5  and  C_6
REMARK    6  A    between atoms: C_6  and  C_7
REMARK    7  A    between atoms: C_7  and  C_8
REMARK    8  A    between atoms: C_8  and  O_9
REMARK    9  A    between atoms: C_8  and  C_10
REMARK   10  A    between atoms: C_10  and  C_11
REMARK   11  A    between atoms: C_11  and  C_13
REMARK   12  A    between atoms: C_13  and  C_14
REMARK   13  A    between atoms: C_14  and  C_15
REMARK   14  A    between atoms: C_18  and  O_19
REMARK   15  A    between atoms: C_20  and  O_21
REMARK   16  A    between atoms: O_21  and  C_22
REMARK                            x       y       z     vdW  Elec       q    Type
REMARK                         _______ _______ _______ _____ _____    ______ ____
ROOT
ATOM      1  C   UNL     1       1.532   3.325  19.839  0.00  0.00    +0.000 C 
ATOM      2  O   UNL     1       0.852   2.890  18.910  0.00  0.00    +0.000 OA
ENDROOT
BRANCH   1   3
ATOM      3  C   UNL     1       2.768   2.601  20.343  0.00  0.00    +0.000 C 
BRANCH   3   4
ATOM      4  C   UNL     1       3.717   2.223  19.211  0.00  0.00    +0.000 C 
BRANCH   4   5
ATOM      5  O   UNL     1       3.050   1.438  18.226  0.00  0.00    +0.000 OA
ATOM      6  H   UNL     1       2.615   2.034  17.591  0.00  0.00    +0.000 HD
ENDBRANCH   4   5
BRANCH   4   7
ATOM      7  C   UNL     1       4.304   3.448  18.504  0.00  0.00    +0.000 C 
BRANCH   7   8
ATOM      8  C   UNL     1       4.317   3.337  16.984  0.00  0.00    +0.000 C 
BRANCH   8   9
ATOM      9  C   UNL     1       4.705   4.661  16.334  0.00  0.00    +0.000 C 
BRANCH   9  10
ATOM     10  C   UNL     1       6.168   4.620  15.905  0.00  0.00    +0.000 C 
BRANCH  10  11
ATOM     11  C   UNL     1       7.004   5.592  16.726  0.00  0.00    +0.000 C 
BRANCH  11  13
ATOM     12  C   UNL     1       7.802   5.851  19.086  0.00  0.00    +0.000 C 
ATOM     13  C   UNL     1       7.630   4.887  17.926  0.00  0.00    +0.000 C 
ENDBRANCH  11  13
ENDBRANCH  10  11
ENDBRANCH   9  10
ENDBRANCH   8   9
ENDBRANCH   7   8
ENDBRANCH   4   7
ENDBRANCH   3   4
ENDBRANCH   1   3
BRANCH   1  14
ATOM     14  C   UNL     1       1.174   4.631  20.507  0.00  0.00    +0.000 C 
BRANCH  14  15
ATOM     15  C   UNL     1       2.389   5.544  20.572  0.00  0.00    +0.000 C 
BRANCH  15  16
ATOM     16  C   UNL     1       2.211   6.776  19.729  0.00  0.00    +0.000 A 
ATOM     17  C   UNL     1       2.713   6.817  18.428  0.00  0.00    +0.000 A 
ATOM     18  C   UNL     1       2.591   7.980  17.670  0.00  0.00    +0.000 A 
ATOM     19  C   UNL     1       1.965   9.112  18.205  0.00  0.00    +0.000 A 
ATOM     20  C   UNL     1       1.435   9.083  19.499  0.00  0.00    +0.000 A 
ATOM     21  C   UNL     1       1.556   7.902  20.245  0.00  0.00    +0.000 A 
BRANCH  19  22
ATOM     22  O   UNL     1       1.896  10.234  17.426  0.00  0.00    +0.000 OA
ATOM     23  H   UNL     1       1.016  10.633  17.523  0.00  0.00    +0.000 HD
ENDBRANCH  19  22
BRANCH  20  24
ATOM     24  O   UNL     1       0.796  10.079  20.185  0.00  0.00    +0.000 OA
ATOM     25  C   UNL     1       0.878  10.070  21.601  0.00  0.00    +0.000 C 
ENDBRANCH  20  24
ENDBRANCH  15  16
ENDBRANCH  14  15
ENDBRANCH   1  14
TORSDOF 14
ENDMDL
MODEL 2
REMARK VINA RESULT:      -6.3      3.173      5.749
REMARK  Name = 
REMARK  16 active torsions:
REMARK  status: ('A' for Active; 'I' for Inactive)
REMARK    1  A    between atoms: C_1  and  C_2
REMARK    2  A    between atoms: C_2  and  C_3
REMARK    3  A    between atoms: C_3  and  C_4
REMARK    4  A    between atoms: C_4  and  C_5
REMARK    5  A    between atoms: C_5  and  C_6
REMARK    6  A    between atoms: C_6  and  C_7
REMARK    7  A    between atoms: C_7  and  C_8
REMARK    8  A    between atoms: C_8  and  O_9
REMARK    9  A    between atoms: C_8  and  C_10
REMARK   10  A    between atoms: C_10  and  C_11
REMARK   11  A    between atoms: C_11  and  C_13
REMARK   12  A    between atoms: C_13  and  C_14
REMARK   13  A    between atoms: C_14  and  C_15
REMARK   14  A    between atoms: C_18  and  O_19
REMARK   15  A    between atoms: C_20  and  O_21
REMARK   16  A    between atoms: O_21  and  C_22
REMARK                            x       y       z     vdW  Elec       q    Type
REMARK                         _______ _______ _______ _____ _____    ______ ____
ROOT
ATOM      1  C   UNL     1       4.954   6.365  17.445  0.00  0.00    +0.000 C 
ATOM      2  O   UNL     1       5.669   6.045  18.395  0.00  0.00    +0.000 OA
ENDROOT
BRANCH   1   3
ATOM      3  C   UNL     1       5.216   5.868  16.034  0.00  0.00    +0.000 C 
BRANCH   3   4
ATOM      4  C   UNL     1       6.510   5.067  15.935  0.00  0.00    +0.000 C 
BRANCH   4   5
ATOM      5  O   UNL     1       6.376   3.800  16.573  0.00  0.00    +0.000 OA
ATOM      6  H   UNL     1       6.394   3.930  17.537  0.00  0.00    +0.000 HD
ENDBRANCH   4   5
BRANCH   4   7
ATOM      7  C   UNL     1       6.932   4.811  14.486  0.00  0.00    +0.000 C 
BRANCH   7   8
ATOM      8  C   UNL     1       6.135   3.712  13.795  0.00  0.00    +0.000 C 
BRANCH   8   9
ATOM      9  C   UNL     1       6.360   3.727  12.287  0.00  0.00    +0.000 C 
BRANCH   9  10
ATOM     10  C   UNL     1       5.693   2.512  11.650  0.00  0.00    +0.000 C 
BRANCH  10  11
ATOM     11  C   UNL     1       4.203   2.751  11.449  0.00  0.00    +0.000 C 
BRANCH  11  13
ATOM     12  C   UNL     1       2.921   3.935   9.652  0.00  0.00    +0.000 C 
ATOM     13  C   UNL     1       3.958   4.085  10.750  0.00  0.00    +0.000 C 
ENDBRANCH  11  13
ENDBRANCH  10  11
ENDBRANCH   9  10
ENDBRANCH   8   9
ENDBRANCH   7   8
ENDBRANCH   4   7
ENDBRANCH   3   4
ENDBRANCH   1   3
BRANCH   1  14
ATOM     14  C   UNL     1       3.752   7.255  17.654  0.00  0.00    +0.000 C 
BRANCH  14  15
ATOM     15  C   UNL     1       3.050   6.900  18.956  0.00  0.00    +0.000 C 
BRANCH  15  16
ATOM     16  C   UNL     1       2.375   5.558  18.881  0.00  0.00    +0.000 A 
ATOM     17  C   UNL     1       2.001   5.027  17.647  0.00  0.00    +0.000 A 
ATOM     18  C   UNL     1       1.329   3.807  17.588  0.00  0.00    +0.000 A 
ATOM     19  C   UNL     1       1.027   3.108  18.762  0.00  0.00    +0.000 A 
ATOM     20  C   UNL     1       1.414   3.613  20.007  0.00  0.00    +0.000 A 
ATOM     21  C   UNL     1       2.098   4.835  20.049  0.00  0.00    +0.000 A 
BRANCH  19  22
ATOM     22  O   UNL     1       0.343   1.928  18.647  0.00  0.00    +0.000 OA
ATOM     23  H   UNL     1       0.899   1.207  18.985  0.00  0.00    +0.000 HD
ENDBRANCH  19  22
BRANCH  20  24
ATOM     24  O   UNL     1       1.208   3.079  21.249  0.00  0.00    +0.000 OA
ATOM     25  C   UNL     1       2.323   2.522  21.928  0.00  0.00    +0.000 C 
ENDBRANCH  20  24
ENDBRANCH  15  16
ENDBRANCH  14  15
ENDBRANCH   1  14
TORSDOF 14
ENDMDL
MODEL 3
REMARK VINA RESULT:      -6.1      2.416      5.760
REMARK  Name = 
REMARK  16 active torsions:
REMARK  status: ('A' for Active; 'I' for Inactive)
REMARK    1  A    between atoms: C_1  and  C_2
REMARK    2  A    between atoms: C_2  and  C_3
REMARK    3  A    between atoms: C_3  and  C_4
REMARK    4  A    between atoms: C_4  and  C_5
REMARK    5  A    between atoms: C_5  and  C_6
REMARK    6  A    between atoms: C_6  and  C_7
REMARK    7  A    between atoms: C_7  and  C_8
REMARK    8  A    between atoms: C_8  and  O_9
REMARK    9  A    between atoms: C_8  and  C_10
REMARK   10  A    between atoms: C_10  and  C_11
REMARK   11  A    between atoms: C_11  and  C_13
REMARK   12  A    between atoms: C_13  and  C_14
REMARK   13  A    between atoms: C_14  and  C_15
REMARK   14  A    between atoms: C_18  and  O_19
REMARK   15  A    between atoms: C_20  and  O_21
REMARK   16  A    between atoms: O_21  and  C_22
REMARK                            x       y       z     vdW  Elec       q    Type
REMARK                         _______ _______ _______ _____ _____    ______ ____
ROOT
ATOM      1  C   UNL     1       2.060   2.894  19.785  0.00  0.00    +0.000 C 
ATOM      2  O   UNL     1       1.778   2.190  20.755  0.00  0.00    +0.000 OA
ENDROOT
BRANCH   1   3
ATOM      3  C   UNL     1       1.320   4.184  19.480  0.00  0.00    +0.000 C 
BRANCH   3   4
ATOM      4  C   UNL     1       1.688   5.304  20.447  0.00  0.00    +0.000 C 
BRANCH   4   5
ATOM      5  O   UNL     1       2.415   4.797  21.562  0.00  0.00    +0.000 OA
ATOM      6  H   UNL     1       1.787   4.586  22.276  0.00  0.00    +0.000 HD
ENDBRANCH   4   5
BRANCH   4   7
ATOM      7  C   UNL     1       2.549   6.386  19.789  0.00  0.00    +0.000 C 
BRANCH   7   8
ATOM      8  C   UNL     1       2.487   6.385  18.267  0.00  0.00    +0.000 C 
BRANCH   8   9
ATOM      9  C   UNL     1       2.437   7.804  17.712  0.00  0.00    +0.000 C 
BRANCH   9  10
ATOM     10  C   UNL     1       1.856   8.750  18.759  0.00  0.00    +0.000 C 
BRANCH  10  11
ATOM     11  C   UNL     1       1.289  10.003  18.106  0.00  0.00    +0.000 C 
BRANCH  11  13
ATOM     12  C   UNL     1      -0.425  10.074  19.932  0.00  0.00    +0.000 C 
ATOM     13  C   UNL     1      -0.193  10.160  18.434  0.00  0.00    +0.000 C 
ENDBRANCH  11  13
ENDBRANCH  10  11
ENDBRANCH   9  10
ENDBRANCH   8   9
ENDBRANCH   7   8
ENDBRANCH   4   7
ENDBRANCH   3   4
ENDBRANCH   1   3
BRANCH   1  14
ATOM     14  C   UNL     1       3.193   2.510  18.863  0.00  0.00    +0.000 C 
BRANCH  14  15
ATOM     15  C   UNL     1       4.461   3.260  19.240  0.00  0.00    +0.000 C 
BRANCH  15  16
ATOM     16  C   UNL     1       5.080   3.946  18.054  0.00  0.00    +0.000 A 
ATOM     17  C   UNL     1       4.602   3.696  16.767  0.00  0.00    +0.000 A 
ATOM     18  C   UNL     1       5.214   4.294  15.667  0.00  0.00    +0.000 A 
ATOM     19  C   UNL     1       6.308   5.149  15.843  0.00  0.00    +0.000 A 
ATOM     20  C   UNL     1       6.788   5.431  17.127  0.00  0.00    +0.000 A 
ATOM     21  C   UNL     1       6.155   4.830  18.224  0.00  0.00    +0.000 A 
BRANCH  19  22
ATOM     22  O   UNL     1       6.886   5.689  14.727  0.00  0.00    +0.000 OA
ATOM     23  H   UNL     1       7.769   6.019  14.957  0.00  0.00    +0.000 HD
ENDBRANCH  19  22
BRANCH  20  24
ATOM     24  O   UNL     1       7.835   6.230  17.493  0.00  0.00    +0.000 OA
ATOM     25  C   UNL     1       7.611   7.630  17.563  0.00  0.00    +0.000 C 
ENDBRANCH  20  24
ENDBRANCH  15  16
ENDBRANCH  14  15
ENDBRANCH   1  14
TORSDOF 14
ENDMDL
MODEL 4
REMARK VINA RESULT:      -6.1      1.950      4.172
REMARK  Name = 
REMARK  16 active torsions:
REMARK  status: ('A' for Active; 'I' for Inactive)
REMARK    1  A    between atoms: C_1  and  C_2
REMARK    2  A    between atoms: C_2  and  C_3
REMARK    3  A    between atoms: C_3  and  C_4
REMARK    4  A    between atoms: C_4  and  C_5
REMARK    5  A    between atoms: C_5  and  C_6
REMARK    6  A    between atoms: C_6  and  C_7
REMARK    7  A    between atoms: C_7  and  C_8
REMARK    8  A    between atoms: C_8  and  O_9
REMARK    9  A    between atoms: C_8  and  C_10
REMARK   10  A    between atoms: C_10  and  C_11
REMARK   11  A    between atoms: C_11  and  C_13
REMARK   12  A    between atoms: C_13  and  C_14
REMARK   13  A    between atoms: C_14  and  C_15
REMARK   14  A    between atoms: C_18  and  O_19
REMARK   15  A    between atoms: C_20  and  O_21
REMARK   16  A    between atoms: O_21  and  C_22
REMARK                            x       y       z     vdW  Elec       q    Type
REMARK                         _______ _______ _______ _____ _____    ______ ____
ROOT
ATOM      1  C   UNL     1       4.963   6.358  18.003  0.00  0.00    +0.000 C 
ATOM      2  O   UNL     1       6.109   6.556  17.599  0.00  0.00    +0.000 OA
ENDROOT
BRANCH   1   3
ATOM      3  C   UNL     1       4.628   5.227  18.960  0.00  0.00    +0.000 C 
BRANCH   3   4
ATOM      4  C   UNL     1       4.942   3.858  18.366  0.00  0.00    +0.000 C 
BRANCH   4   5
ATOM      5  O   UNL     1       5.178   2.899  19.393  0.00  0.00    +0.000 OA
ATOM      6  H   UNL     1       5.311   2.026  18.983  0.00  0.00    +0.000 HD
ENDBRANCH   4   5
BRANCH   4   7
ATOM      7  C   UNL     1       3.805   3.324  17.490  0.00  0.00    +0.000 C 
BRANCH   7   8
ATOM      8  C   UNL     1       3.280   1.960  17.921  0.00  0.00    +0.000 C 
BRANCH   8   9
ATOM      9  C   UNL     1       1.846   2.053  18.430  0.00  0.00    +0.000 C 
BRANCH   9  10
ATOM     10  C   UNL     1       1.381   3.505  18.411  0.00  0.00    +0.000 C 
BRANCH  10  11
ATOM     11  C   UNL     1       0.895   3.940  19.786  0.00  0.00    +0.000 C 
BRANCH  11  13
ATOM     12  C   UNL     1       2.320   3.458  21.789  0.00  0.00    +0.000 C 
ATOM     13  C   UNL     1       1.268   2.906  20.844  0.00  0.00    +0.000 C 
ENDBRANCH  11  13
ENDBRANCH  10  11
ENDBRANCH   9  10
ENDBRANCH   8   9
ENDBRANCH   7   8
ENDBRANCH   4   7
ENDBRANCH   3   4
ENDBRANCH   1   3
BRANCH   1  14
ATOM     14  C   UNL     1       3.832   7.264  17.578  0.00  0.00    +0.000 C 
BRANCH  14  15
ATOM     15  C   UNL     1       2.527   6.820  18.221  0.00  0.00    +0.000 C 
BRANCH  15  16
ATOM     16  C   UNL     1       2.005   7.840  19.194  0.00  0.00    +0.000 A 
ATOM     17  C   UNL     1       1.746   7.483  20.517  0.00  0.00    +0.000 A 
ATOM     18  C   UNL     1       1.213   8.420  21.401  0.00  0.00    +0.000 A 
ATOM     19  C   UNL     1       0.935   9.721  20.970  0.00  0.00    +0.000 A 
ATOM     20  C   UNL     1       1.209  10.106  19.654  0.00  0.00    +0.000 A 
ATOM     21  C   UNL     1       1.755   9.155  18.780  0.00  0.00    +0.000 A 
BRANCH  19  22
ATOM     22  O   UNL     1       0.389  10.592  21.873  0.00  0.00    +0.000 OA
ATOM     23  H   UNL     1       0.041  10.090  22.627  0.00  0.00    +0.000 HD
ENDBRANCH  19  22
BRANCH  20  24
ATOM     24  O   UNL     1       1.007  11.319  19.056  0.00  0.00    +0.000 OA
ATOM     25  C   UNL     1       2.055  11.855  18.265  0.00  0.00    +0.000 C 
ENDBRANCH  20  24
ENDBRANCH  15  16
ENDBRANCH  14  15
ENDBRANCH   1  14
TORSDOF 14
ENDMDL
MODEL 5
REMARK VINA RESULT:      -6.0      1.369      2.231
REMARK  Name = 
REMARK  16 active torsions:
REMARK  status: ('A' for Active; 'I' for Inactive)
REMARK    1  A    between atoms: C_1  and  C_2
REMARK    2  A    between atoms: C_2  and  C_3
REMARK    3  A    between atoms: C_3  and  C_4
REMARK    4  A    between atoms: C_4  and  C_5
REMARK    5  A    between atoms: C_5  and  C_6
REMARK    6  A    between atoms: C_6  and  C_7
REMARK    7  A    between atoms: C_7  and  C_8
REMARK    8  A    between atoms: C_8  and  O_9
REMARK    9  A    between atoms: C_8  and  C_10
REMARK   10  A    between atoms: C_10  and  C_11
REMARK   11  A    between atoms: C_11  and  C_13
REMARK   12  A    between atoms: C_13  and  C_14
REMARK   13  A    between atoms: C_14  and  C_15
REMARK   14  A    between atoms: C_18  and  O_19
REMARK   15  A    between atoms: C_20  and  O_21
REMARK   16  A    between atoms: O_21  and  C_22
REMARK                            x       y       z     vdW  Elec       q    Type
REMARK                         _______ _______ _______ _____ _____    ______ ____
ROOT
ATOM      1  C   UNL     1       1.401   3.353  19.194  0.00  0.00    +0.000 C 
ATOM      2  O   UNL     1       0.814   3.525  18.126  0.00  0.00    +0.000 OA
ENDROOT
BRANCH   1   3
ATOM      3  C   UNL     1       2.330   2.174  19.424  0.00  0.00    +0.000 C 
BRANCH   3   4
ATOM      4  C   UNL     1       3.762   2.475  18.996  0.00  0.00    +0.000 C 
BRANCH   4   5
ATOM      5  O   UNL     1       4.579   1.312  19.095  0.00  0.00    +0.000 OA
ATOM      6  H   UNL     1       4.193   0.608  18.543  0.00  0.00    +0.000 HD
ENDBRANCH   4   5
BRANCH   4   7
ATOM      7  C   UNL     1       3.848   2.977  17.552  0.00  0.00    +0.000 C 
BRANCH   7   8
ATOM      8  C   UNL     1       5.053   3.870  17.279  0.00  0.00    +0.000 C 
BRANCH   8   9
ATOM      9  C   UNL     1       5.045   4.390  15.846  0.00  0.00    +0.000 C 
BRANCH   9  10
ATOM     10  C   UNL     1       6.427   4.218  15.224  0.00  0.00    +0.000 C 
BRANCH  10  11
ATOM     11  C   UNL     1       6.404   4.565  13.742  0.00  0.00    +0.000 C 
BRANCH  11  13
ATOM     12  C   UNL     1       4.950   3.523  11.988  0.00  0.00    +0.000 C 
ATOM     13  C   UNL     1       6.148   3.319  12.898  0.00  0.00    +0.000 C 
ENDBRANCH  11  13
ENDBRANCH  10  11
ENDBRANCH   9  10
ENDBRANCH   8   9
ENDBRANCH   7   8
ENDBRANCH   4   7
ENDBRANCH   3   4
ENDBRANCH   1   3
BRANCH   1  14
ATOM     14  C   UNL     1       1.240   4.340  20.326  0.00  0.00    +0.000 C 
BRANCH  14  15
ATOM     15  C   UNL     1       2.464   5.239  20.424  0.00  0.00    +0.000 C 
BRANCH  15  16
ATOM     16  C   UNL     1       2.294   6.504  19.630  0.00  0.00    +0.000 A 
ATOM     17  C   UNL     1       2.775   6.585  18.323  0.00  0.00    +0.000 A 
ATOM     18  C   UNL     1       2.661   7.778  17.611  0.00  0.00    +0.000 A 
ATOM     19  C   UNL     1       2.065   8.899  18.198  0.00  0.00    +0.000 A 
ATOM     20  C   UNL     1       1.556   8.832  19.499  0.00  0.00    +0.000 A 
ATOM     21  C   UNL     1       1.668   7.622  20.198  0.00  0.00    +0.000 A 
BRANCH  19  22
ATOM     22  O   UNL     1       2.003  10.051  17.462  0.00  0.00    +0.000 OA
ATOM     23  H   UNL     1       1.084  10.202  17.188  0.00  0.00    +0.000 HD
ENDBRANCH  19  22
BRANCH  20  24
ATOM     24  O   UNL     1       0.948   9.813  20.232  0.00  0.00    +0.000 OA
ATOM     25  C   UNL     1       0.812   9.612  21.630  0.00  0.00    +0.000 C 
ENDBRANCH  20  24
ENDBRANCH  15  16
ENDBRANCH  14  15
ENDBRANCH   1  14
TORSDOF 14
ENDMDL
MODEL 6
REMARK VINA RESULT:      -5.9      2.464      5.929
REMARK  Name = 
REMARK  16 active torsions:
REMARK  status: ('A' for Active; 'I' for Inactive)
REMARK    1  A    between atoms: C_1  and  C_2
REMARK    2  A    between atoms: C_2  and  C_3
REMARK    3  A    between atoms: C_3  and  C_4
REMARK    4  A    between atoms: C_4  and  C_5
REMARK    5  A    between atoms: C_5  and  C_6
REMARK    6  A    between atoms: C_6  and  C_7
REMARK    7  A    between atoms: C_7  and  C_8
REMARK    8  A    between atoms: C_8  and  O_9
REMARK    9  A    between atoms: C_8  and  C_10
REMARK   10  A    between atoms: C_10  and  C_11
REMARK   11  A    between atoms: C_11  and  C_13
REMARK   12  A    between atoms: C_13  and  C_14
REMARK   13  A    between atoms: C_14  and  C_15
REMARK   14  A    between atoms: C_18  and  O_19
REMARK   15  A    between atoms: C_20  and  O_21
REMARK   16  A    between atoms: O_21  and  C_22
REMARK                            x       y       z     vdW  Elec       q    Type
REMARK                         _______ _______ _______ _____ _____    ______ ____
ROOT
ATOM      1  C   UNL     1       3.312   2.316  19.276  0.00  0.00    +0.000 C 
ATOM      2  O   UNL     1       4.192   2.378  20.134  0.00  0.00    +0.000 OA
ENDROOT
BRANCH   1   3
ATOM      3  C   UNL     1       1.867   2.001  19.622  0.00  0.00    +0.000 C 
BRANCH   3   4
ATOM      4  C   UNL     1       1.257   3.042  20.554  0.00  0.00    +0.000 C 
BRANCH   4   5
ATOM      5  O   UNL     1       1.956   3.090  21.794  0.00  0.00    +0.000 OA
ATOM      6  H   UNL     1       1.501   3.713  22.388  0.00  0.00    +0.000 HD
ENDBRANCH   4   5
BRANCH   4   7
ATOM      7  C   UNL     1       1.284   4.452  19.956  0.00  0.00    +0.000 C 
BRANCH   7   8
ATOM      8  C   UNL     1       1.710   5.533  20.941  0.00  0.00    +0.000 C 
BRANCH   8   9
ATOM      9  C   UNL     1       1.808   6.895  20.262  0.00  0.00    +0.000 C 
BRANCH   9  10
ATOM     10  C   UNL     1       1.160   7.960  21.141  0.00  0.00    +0.000 C 
BRANCH  10  11
ATOM     11  C   UNL     1       1.016   9.275  20.387  0.00  0.00    +0.000 C 
BRANCH  11  13
ATOM     12  C   UNL     1       1.533  10.493  18.260  0.00  0.00    +0.000 C 
ATOM     13  C   UNL     1       1.594   9.158  18.980  0.00  0.00    +0.000 C 
ENDBRANCH  11  13
ENDBRANCH  10  11
ENDBRANCH   9  10
ENDBRANCH   8   9
ENDBRANCH   7   8
ENDBRANCH   4   7
ENDBRANCH   3   4
ENDBRANCH   1   3
BRANCH   1  14
ATOM     14  C   UNL     1       3.635   2.582  17.825  0.00  0.00    +0.000 C 
BRANCH  14  15
ATOM     15  C   UNL     1       3.635   4.078  17.548  0.00  0.00    +0.000 C 
BRANCH  15  16
ATOM     16  C   UNL     1       4.777   4.483  16.658  0.00  0.00    +0.000 A 
ATOM     17  C   UNL     1       4.932   3.897  15.401  0.00  0.00    +0.000 A 
ATOM     18  C   UNL     1       6.022   4.238  14.602  0.00  0.00    +0.000 A 
ATOM     19  C   UNL     1       6.966   5.168  15.052  0.00  0.00    +0.000 A 
ATOM     20  C   UNL     1       6.816   5.783  16.299  0.00  0.00    +0.000 A 
ATOM     21  C   UNL     1       5.708   5.438  17.086  0.00  0.00    +0.000 A 
BRANCH  19  22
ATOM     22  O   UNL     1       8.030   5.446  14.238  0.00  0.00    +0.000 OA
ATOM     23  H   UNL     1       7.718   5.508  13.320  0.00  0.00    +0.000 HD
ENDBRANCH  19  22
BRANCH  20  24
ATOM     24  O   UNL     1       7.627   6.705  16.902  0.00  0.00    +0.000 OA
ATOM     25  C   UNL     1       7.734   6.673  18.316  0.00  0.00    +0.000 C 
ENDBRANCH  20  24
ENDBRANCH  15  16
ENDBRANCH  14  15
ENDBRANCH   1  14
TORSDOF 14
ENDMDL
MODEL 7
REMARK VINA RESULT:      -5.9      5.373      7.758
REMARK  Name = 
REMARK  16 active torsions:
REMARK  status: ('A' for Active; 'I' for Inactive)
REMARK    1  A    between atoms: C_1  and  C_2
REMARK    2  A    between atoms: C_2  and  C_3
REMARK    3  A    between atoms: C_3  and  C_4
REMARK    4  A    between atoms: C_4  and  C_5
REMARK    5  A    between atoms: C_5  and  C_6
REMARK    6  A    between atoms: C_6  and  C_7
REMARK    7  A    between atoms: C_7  and  C_8
REMARK    8  A    between atoms: C_8  and  O_9
REMARK    9  A    between atoms: C_8  and  C_10
REMARK   10  A    between atoms: C_10  and  C_11
REMARK   11  A    between atoms: C_11  and  C_13
REMARK   12  A    between atoms: C_13  and  C_14
REMARK   13  A    between atoms: C_14  and  C_15
REMARK   14  A    between atoms: C_18  and  O_19
REMARK   15  A    between atoms: C_20  and  O_21
REMARK   16  A    between atoms: O_21  and  C_22
REMARK                            x       y       z     vdW  Elec       q    Type
REMARK                         _______ _______ _______ _____ _____    ______ ____
ROOT
ATOM      1  C   UNL     1       7.832   7.578  17.971  0.00  0.00    +0.000 C 
ATOM      2  O   UNL     1       7.239   7.784  16.912  0.00  0.00    +0.000 OA
ENDROOT
BRANCH   1   3
ATOM      3  C   UNL     1       7.825   6.220  18.651  0.00  0.00    +0.000 C 
BRANCH   3   4
ATOM      4  C   UNL     1       6.673   5.343  18.174  0.00  0.00    +0.000 C 
BRANCH   4   5
ATOM      5  O   UNL     1       7.099   3.996  17.988  0.00  0.00    +0.000 OA
ATOM      6  H   UNL     1       7.048   3.530  18.841  0.00  0.00    +0.000 HD
ENDBRANCH   4   5
BRANCH   4   7
ATOM      7  C   UNL     1       5.503   5.323  19.162  0.00  0.00    +0.000 C 
BRANCH   7   8
ATOM      8  C   UNL     1       4.465   4.246  18.871  0.00  0.00    +0.000 C 
BRANCH   8   9
ATOM      9  C   UNL     1       3.059   4.832  18.810  0.00  0.00    +0.000 C 
BRANCH   9  10
ATOM     10  C   UNL     1       2.590   5.204  20.213  0.00  0.00    +0.000 C 
BRANCH  10  11
ATOM     11  C   UNL     1       1.172   4.711  20.462  0.00  0.00    +0.000 C 
BRANCH  11  13
ATOM     12  C   UNL     1       1.690   2.573  21.661  0.00  0.00    +0.000 C 
ATOM     13  C   UNL     1       1.109   3.187  20.400  0.00  0.00    +0.000 C 
ENDBRANCH  11  13
ENDBRANCH  10  11
ENDBRANCH   9  10
ENDBRANCH   8   9
ENDBRANCH   7   8
ENDBRANCH   4   7
ENDBRANCH   3   4
ENDBRANCH   1   3
BRANCH   1  14
ATOM     14  C   UNL     1       8.624   8.680  18.633  0.00  0.00    +0.000 C 
BRANCH  14  15
ATOM     15  C   UNL     1       8.529   9.963  17.821  0.00  0.00    +0.000 C 
BRANCH  15  16
ATOM     16  C   UNL     1       9.290  11.090  18.462  0.00  0.00    +0.000 A 
ATOM     17  C   UNL     1       9.963  10.889  19.668  0.00  0.00    +0.000 A 
ATOM     18  C   UNL     1      10.622  11.952  20.284  0.00  0.00    +0.000 A 
ATOM     19  C   UNL     1      10.615  13.223  19.701  0.00  0.00    +0.000 A 
ATOM     20  C   UNL     1       9.966  13.440  18.481  0.00  0.00    +0.000 A 
ATOM     21  C   UNL     1       9.317  12.359  17.868  0.00  0.00    +0.000 A 
BRANCH  19  22
ATOM     22  O   UNL     1      11.256  14.235  20.361  0.00  0.00    +0.000 OA
ATOM     23  H   UNL     1      11.141  14.112  21.317  0.00  0.00    +0.000 HD
ENDBRANCH  19  22
BRANCH  20  24
ATOM     24  O   UNL     1       9.851  14.600  17.766  0.00  0.00    +0.000 OA
ATOM     25  C   UNL     1       8.739  15.440  18.032  0.00  0.00    +0.000 C 
ENDBRANCH  20  24
ENDBRANCH  15  16
ENDBRANCH  14  15
ENDBRANCH   1  14
TORSDOF 14
ENDMDL
MODEL 8
REMARK VINA RESULT:      -5.9      2.959      4.605
REMARK  Name = 
REMARK  16 active torsions:
REMARK  status: ('A' for Active; 'I' for Inactive)
REMARK    1  A    between atoms: C_1  and  C_2
REMARK    2  A    between atoms: C_2  and  C_3
REMARK    3  A    between atoms: C_3  and  C_4
REMARK    4  A    between atoms: C_4  and  C_5
REMARK    5  A    between atoms: C_5  and  C_6
REMARK    6  A    between atoms: C_6  and  C_7
REMARK    7  A    between atoms: C_7  and  C_8
REMARK    8  A    between atoms: C_8  and  O_9
REMARK    9  A    between atoms: C_8  and  C_10
REMARK   10  A    between atoms: C_10  and  C_11
REMARK   11  A    between atoms: C_11  and  C_13
REMARK   12  A    between atoms: C_13  and  C_14
REMARK   13  A    between atoms: C_14  and  C_15
REMARK   14  A    between atoms: C_18  and  O_19
REMARK   15  A    between atoms: C_20  and  O_21
REMARK   16  A    between atoms: O_21  and  C_22
REMARK                            x       y       z     vdW  Elec       q    Type
REMARK                         _______ _______ _______ _____ _____    ______ ____
ROOT
ATOM      1  C   UNL     1       4.893   5.053  18.399  0.00  0.00    +0.000 C 
ATOM      2  O   UNL     1       5.800   4.436  18.958  0.00  0.00    +0.000 OA
ENDROOT
BRANCH   1   3
ATOM      3  C   UNL     1       4.740   5.071  16.888  0.00  0.00    +0.000 C 
BRANCH   3   4
ATOM      4  C   UNL     1       5.887   5.804  16.200  0.00  0.00    +0.000 C 
BRANCH   4   5
ATOM      5  O   UNL     1       6.569   6.657  17.115  0.00  0.00    +0.000 OA
ATOM      6  H   UNL     1       7.528   6.533  17.004  0.00  0.00    +0.000 HD
ENDBRANCH   4   5
BRANCH   4   7
ATOM      7  C   UNL     1       6.921   4.845  15.604  0.00  0.00    +0.000 C 
BRANCH   7   8
ATOM      8  C   UNL     1       6.916   4.799  14.081  0.00  0.00    +0.000 C 
BRANCH   8   9
ATOM      9  C   UNL     1       5.943   3.746  13.561  0.00  0.00    +0.000 C 
BRANCH   9  10
ATOM     10  C   UNL     1       6.384   3.271  12.180  0.00  0.00    +0.000 C 
BRANCH  10  11
ATOM     11  C   UNL     1       5.226   2.623  11.432  0.00  0.00    +0.000 C 
BRANCH  11  13
ATOM     12  C   UNL     1       3.222   3.414  10.154  0.00  0.00    +0.000 C 
ATOM     13  C   UNL     1       3.995   3.524  11.456  0.00  0.00    +0.000 C 
ENDBRANCH  11  13
ENDBRANCH  10  11
ENDBRANCH   9  10
ENDBRANCH   8   9
ENDBRANCH   7   8
ENDBRANCH   4   7
ENDBRANCH   3   4
ENDBRANCH   1   3
BRANCH   1  14
ATOM     14  C   UNL     1       3.865   5.807  19.208  0.00  0.00    +0.000 C 
BRANCH  14  15
ATOM     15  C   UNL     1       3.085   6.763  18.317  0.00  0.00    +0.000 C 
BRANCH  15  16
ATOM     16  C   UNL     1       2.221   7.696  19.118  0.00  0.00    +0.000 A 
ATOM     17  C   UNL     1       1.952   7.429  20.461  0.00  0.00    +0.000 A 
ATOM     18  C   UNL     1       1.107   8.270  21.183  0.00  0.00    +0.000 A 
ATOM     19  C   UNL     1       0.524   9.384  20.571  0.00  0.00    +0.000 A 
ATOM     20  C   UNL     1       0.798   9.681  19.232  0.00  0.00    +0.000 A 
ATOM     21  C   UNL     1       1.659   8.833  18.522  0.00  0.00    +0.000 A 
BRANCH  19  22
ATOM     22  O   UNL     1      -0.318  10.160  21.320  0.00  0.00    +0.000 OA
ATOM     23  H   UNL     1      -0.331  11.058  20.952  0.00  0.00    +0.000 HD
ENDBRANCH  19  22
BRANCH  20  24
ATOM     24  O   UNL     1       0.326  10.714  18.470  0.00  0.00    +0.000 OA
ATOM     25  C   UNL     1      -1.019  10.650  18.021  0.00  0.00    +0.000 C 
ENDBRANCH  20  24
ENDBRANCH  15  16
ENDBRANCH  14  15
ENDBRANCH   1  14
TORSDOF 14
ENDMDL
MODEL 9
REMARK VINA RESULT:      -5.9      2.582      6.165
REMARK  Name = 
REMARK  16 active torsions:
REMARK  status: ('A' for Active; 'I' for Inactive)
REMARK    1  A    between atoms: C_1  and  C_2
REMARK    2  A    between atoms: C_2  and  C_3
REMARK    3  A    between atoms: C_3  and  C_4
REMARK    4  A    between atoms: C_4  and  C_5
REMARK    5  A    between atoms: C_5  and  C_6
REMARK    6  A    between atoms: C_6  and  C_7
REMARK    7  A    between atoms: C_7  and  C_8
REMARK    8  A    between atoms: C_8  and  O_9
REMARK    9  A    between atoms: C_8  and  C_10
REMARK   10  A    between atoms: C_10  and  C_11
REMARK   11  A    between atoms: C_11  and  C_13
REMARK   12  A    between atoms: C_13  and  C_14
REMARK   13  A    between atoms: C_14  and  C_15
REMARK   14  A    between atoms: C_18  and  O_19
REMARK   15  A    between atoms: C_20  and  O_21
REMARK   16  A    between atoms: O_21  and  C_22
REMARK                            x       y       z     vdW  Elec       q    Type
REMARK                         _______ _______ _______ _____ _____    ______ ____
ROOT
ATOM      1  C   UNL     1       2.823   2.502  19.243  0.00  0.00    +0.000 C 
ATOM      2  O   UNL     1       3.735   2.072  19.949  0.00  0.00    +0.000 OA
ENDROOT
BRANCH   1   3
ATOM      3  C   UNL     1       1.439   2.788  19.796  0.00  0.00    +0.000 C 
BRANCH   3   4
ATOM      4  C   UNL     1       1.492   3.521  21.133  0.00  0.00    +0.000 C 
BRANCH   4   5
ATOM      5  O   UNL     1       2.086   2.705  22.139  0.00  0.00    +0.000 OA
ATOM      6  H   UNL     1       1.982   1.771  21.887  0.00  0.00    +0.000 HD
ENDBRANCH   4   5
BRANCH   4   7
ATOM      7  C   UNL     1       2.299   4.820  21.057  0.00  0.00    +0.000 C 
BRANCH   7   8
ATOM      8  C   UNL     1       1.668   5.889  20.173  0.00  0.00    +0.000 C 
BRANCH   8   9
ATOM      9  C   UNL     1       2.093   7.288  20.605  0.00  0.00    +0.000 C 
BRANCH   9  10
ATOM     10  C   UNL     1       0.869   8.192  20.713  0.00  0.00    +0.000 C 
BRANCH  10  11
ATOM     11  C   UNL     1       0.878   8.968  22.023  0.00  0.00    +0.000 C 
BRANCH  11  13
ATOM     12  C   UNL     1      -0.891  10.310  23.182  0.00  0.00    +0.000 C 
ATOM     13  C   UNL     1      -0.033  10.189  21.936  0.00  0.00    +0.000 C 
ENDBRANCH  11  13
ENDBRANCH  10  11
ENDBRANCH   9  10
ENDBRANCH   8   9
ENDBRANCH   7   8
ENDBRANCH   4   7
ENDBRANCH   3   4
ENDBRANCH   1   3
BRANCH   1  14
ATOM     14  C   UNL     1       3.058   2.792  17.779  0.00  0.00    +0.000 C 
BRANCH  14  15
ATOM     15  C   UNL     1       3.195   4.290  17.551  0.00  0.00    +0.000 C 
BRANCH  15  16
ATOM     16  C   UNL     1       4.419   4.624  16.744  0.00  0.00    +0.000 A 
ATOM     17  C   UNL     1       4.886   3.736  15.774  0.00  0.00    +0.000 A 
ATOM     18  C   UNL     1       6.051   4.028  15.066  0.00  0.00    +0.000 A 
ATOM     19  C   UNL     1       6.757   5.208  15.319  0.00  0.00    +0.000 A 
ATOM     20  C   UNL     1       6.292   6.122  16.271  0.00  0.00    +0.000 A 
ATOM     21  C   UNL     1       5.114   5.820  16.968  0.00  0.00    +0.000 A 
BRANCH  19  22
ATOM     22  O   UNL     1       7.907   5.431  14.613  0.00  0.00    +0.000 OA
ATOM     23  H   UNL     1       7.686   5.536  13.673  0.00  0.00    +0.000 HD
ENDBRANCH  19  22
BRANCH  20  24
ATOM     24  O   UNL     1       6.841   7.315  16.653  0.00  0.00    +0.000 OA
ATOM     25  C   UNL     1       7.586   7.349  17.860  0.00  0.00    +0.000 C 
ENDBRANCH  20  24
ENDBRANCH  15  16
ENDBRANCH  14  15
ENDBRANCH   1  14
TORSDOF 14
ENDMDL
