MODEL 1
REMARK VINA RESULT:      -8.2      0.000      0.000
REMARK  Name = 
REMARK  9 active torsions:
REMARK  status: ('A' for Active; 'I' for Inactive)
REMARK    1  A    between atoms: C_2  and  O_3
REMARK    2  A    between atoms: C_2  and  C_11
REMARK    3  A    between atoms: O_3  and  C_4
REMARK    4  A    between atoms: C_4  and  C_5
REMARK    5  A    between atoms: C_11  and  C_12
REMARK    6  A    between atoms: C_11  and  N_22
REMARK    7  A    between atoms: C_12  and  O_14
REMARK    8  A    between atoms: O_14  and  C_15
REMARK    9  A    between atoms: C_15  and  C_16
REMARK                            x       y       z     vdW  Elec       q    Type
REMARK                         _______ _______ _______ _____ _____    ______ ____
ROOT
ATOM      1  C   UNL     1       6.463   6.166  17.925  0.00  0.00    +0.000 C 
ENDROOT
BRANCH   1   2
ATOM      2  N   UNL     1       5.095   5.935  18.412  0.00  0.00    +0.000 N 
ATOM      3  C   UNL     1       4.074   6.738  17.933  0.00  0.00    +0.000 A 
ATOM      4  O   UNL     1       4.102   7.441  16.945  0.00  0.00    +0.000 OA
ATOM      5  S   UNL     1       2.644   6.562  18.942  0.00  0.00    +0.000 S 
ATOM      6  C   UNL     1       3.220   4.971  19.443  0.00  0.00    +0.000 A 
ATOM      7  C   UNL     1       2.415   3.972  19.972  0.00  0.00    +0.000 A 
ATOM      8  C   UNL     1       2.948   2.697  20.084  0.00  0.00    +0.000 A 
ATOM      9  C   UNL     1       4.287   2.470  19.721  0.00  0.00    +0.000 A 
ATOM     10  C   UNL     1       5.116   3.518  19.245  0.00  0.00    +0.000 A 
ATOM     11  C   UNL     1       4.565   4.779  19.071  0.00  0.00    +0.000 A 
ENDBRANCH   1   2
BRANCH   1  13
ATOM     12  O   UNL     1       7.612   5.556  19.966  0.00  0.00    +0.000 OA
ATOM     13  C   UNL     1       7.567   6.281  18.977  0.00  0.00    +0.000 C 
BRANCH  13  14
ATOM     14  O   UNL     1       8.453   7.276  18.706  0.00  0.00    +0.000 OA
BRANCH  14  15
ATOM     15  C   UNL     1       7.967   8.374  17.904  0.00  0.00    +0.000 C 
BRANCH  15  16
ATOM     16  C   UNL     1       8.500   9.723  18.339  0.00  0.00    +0.000 A 
ATOM     17  C   UNL     1       9.289   9.869  19.486  0.00  0.00    +0.000 A 
ATOM     18  C   UNL     1       9.837  11.113  19.820  0.00  0.00    +0.000 A 
ATOM     19  C   UNL     1       9.614  12.222  19.005  0.00  0.00    +0.000 A 
ATOM     20  C   UNL     1       8.845  12.090  17.853  0.00  0.00    +0.000 A 
ATOM     21  C   UNL     1       8.297  10.847  17.518  0.00  0.00    +0.000 A 
ENDBRANCH  15  16
ENDBRANCH  14  15
ENDBRANCH  13  14
ENDBRANCH   1  13
BRANCH   1  22
ATOM     22  C   UNL     1       6.994   5.312  16.709  0.00  0.00    +0.000 C 
ATOM     23  O   UNL     1       7.822   4.415  16.848  0.00  0.00    +0.000 OA
BRANCH  22  24
ATOM     24  O   UNL     1       6.540   5.714  15.484  0.00  0.00    +0.000 OA
BRANCH  24  25
ATOM     25  C   UNL     1       5.454   4.956  14.880  0.00  0.00    +0.000 C 
BRANCH  25  26
ATOM     26  C   UNL     1       5.797   4.207  13.600  0.00  0.00    +0.000 A 
ATOM     27  C   UNL     1       7.100   4.161  13.093  0.00  0.00    +0.000 A 
ATOM     28  C   UNL     1       7.410   3.455  11.927  0.00  0.00    +0.000 A 
ATOM     29  C   UNL     1       6.425   2.732  11.266  0.00  0.00    +0.000 A 
ATOM     30  C   UNL     1       5.132   2.711  11.781  0.00  0.00    +0.000 A 
ATOM     31  C   UNL     1       4.818   3.441  12.938  0.00  0.00    +0.000 A 
ENDBRANCH  25  26
ENDBRANCH  24  25
ENDBRANCH  22  24
ENDBRANCH   1  22
TORSDOF 9
ENDMDL
MODEL 2
REMARK VINA RESULT:      -8.0      3.426      4.469
REMARK  Name = 
REMARK  9 active torsions:
REMARK  status: ('A' for Active; 'I' for Inactive)
REMARK    1  A    between atoms: C_2  and  O_3
REMARK    2  A    between atoms: C_2  and  C_11
REMARK    3  A    between atoms: O_3  and  C_4
REMARK    4  A    between atoms: C_4  and  C_5
REMARK    5  A    between atoms: C_11  and  C_12
REMARK    6  A    between atoms: C_11  and  N_22
REMARK    7  A    between atoms: C_12  and  O_14
REMARK    8  A    between atoms: O_14  and  C_15
REMARK    9  A    between atoms: C_15  and  C_16
REMARK                            x       y       z     vdW  Elec       q    Type
REMARK                         _______ _______ _______ _____ _____    ______ ____
ROOT
ATOM      1  C   UNL     1       5.166   4.869  16.677  0.00  0.00    +0.000 C 
ENDROOT
BRANCH   1   2
ATOM      2  N   UNL     1       4.611   4.129  17.820  0.00  0.00    +0.000 N 
ATOM      3  C   UNL     1       5.356   4.049  18.985  0.00  0.00    +0.000 A 
ATOM      4  O   UNL     1       6.298   4.744  19.297  0.00  0.00    +0.000 OA
ATOM      5  S   UNL     1       4.700   2.798  20.034  0.00  0.00    +0.000 S 
ATOM      6  C   UNL     1       3.136   2.980  19.238  0.00  0.00    +0.000 A 
ATOM      7  C   UNL     1       1.923   2.586  19.785  0.00  0.00    +0.000 A 
ATOM      8  C   UNL     1       0.759   3.016  19.165  0.00  0.00    +0.000 A 
ATOM      9  C   UNL     1       0.840   3.776  17.985  0.00  0.00    +0.000 A 
ATOM     10  C   UNL     1       2.089   4.112  17.403  0.00  0.00    +0.000 A 
ATOM     11  C   UNL     1       3.253   3.738  18.057  0.00  0.00    +0.000 A 
ENDBRANCH   1   2
BRANCH   1  13
ATOM     12  O   UNL     1       5.102   7.033  15.594  0.00  0.00    +0.000 OA
ATOM     13  C   UNL     1       4.835   6.360  16.585  0.00  0.00    +0.000 C 
BRANCH  13  14
ATOM     14  O   UNL     1       4.252   6.843  17.714  0.00  0.00    +0.000 OA
BRANCH  14  15
ATOM     15  C   UNL     1       3.151   7.759  17.532  0.00  0.00    +0.000 C 
BRANCH  15  16
ATOM     16  C   UNL     1       2.286   7.917  18.764  0.00  0.00    +0.000 A 
ATOM     17  C   UNL     1       2.240   6.938  19.764  0.00  0.00    +0.000 A 
ATOM     18  C   UNL     1       1.495   7.145  20.931  0.00  0.00    +0.000 A 
ATOM     19  C   UNL     1       0.799   8.338  21.118  0.00  0.00    +0.000 A 
ATOM     20  C   UNL     1       0.847   9.328  20.141  0.00  0.00    +0.000 A 
ATOM     21  C   UNL     1       1.591   9.122  18.975  0.00  0.00    +0.000 A 
ENDBRANCH  15  16
ENDBRANCH  14  15
ENDBRANCH  13  14
ENDBRANCH   1  13
BRANCH   1  22
ATOM     22  C   UNL     1       6.679   4.650  16.288  0.00  0.00    +0.000 C 
ATOM     23  O   UNL     1       7.594   5.255  16.843  0.00  0.00    +0.000 OA
BRANCH  22  24
ATOM     24  O   UNL     1       6.883   3.816  15.226  0.00  0.00    +0.000 OA
BRANCH  24  25
ATOM     25  C   UNL     1       6.921   4.406  13.896  0.00  0.00    +0.000 C 
BRANCH  25  26
ATOM     26  C   UNL     1       6.166   3.650  12.810  0.00  0.00    +0.000 A 
ATOM     27  C   UNL     1       6.735   2.575  12.122  0.00  0.00    +0.000 A 
ATOM     28  C   UNL     1       6.029   1.874  11.139  0.00  0.00    +0.000 A 
ATOM     29  C   UNL     1       4.709   2.205  10.859  0.00  0.00    +0.000 A 
ATOM     30  C   UNL     1       4.098   3.233  11.572  0.00  0.00    +0.000 A 
ATOM     31  C   UNL     1       4.817   3.950  12.540  0.00  0.00    +0.000 A 
ENDBRANCH  25  26
ENDBRANCH  24  25
ENDBRANCH  22  24
ENDBRANCH   1  22
TORSDOF 9
ENDMDL
MODEL 3
REMARK VINA RESULT:      -7.9      3.247      4.516
REMARK  Name = 
REMARK  9 active torsions:
REMARK  status: ('A' for Active; 'I' for Inactive)
REMARK    1  A    between atoms: C_2  and  O_3
REMARK    2  A    between atoms: C_2  and  C_11
REMARK    3  A    between atoms: O_3  and  C_4
REMARK    4  A    between atoms: C_4  and  C_5
REMARK    5  A    between atoms: C_11  and  C_12
REMARK    6  A    between atoms: C_11  and  N_22
REMARK    7  A    between atoms: C_12  and  O_14
REMARK    8  A    between atoms: O_14  and  C_15
REMARK    9  A    between atoms: C_15  and  C_16
REMARK                            x       y       z     vdW  Elec       q    Type
REMARK                         _______ _______ _______ _____ _____    ______ ____
ROOT
ATOM      1  C   UNL     1       4.876   5.143  16.888  0.00  0.00    +0.000 C 
ENDROOT
BRANCH   1   2
ATOM      2  N   UNL     1       4.418   4.176  17.895  0.00  0.00    +0.000 N 
ATOM      3  C   UNL     1       5.202   3.962  19.016  0.00  0.00    +0.000 A 
ATOM      4  O   UNL     1       6.095   4.671  19.428  0.00  0.00    +0.000 OA
ATOM      5  S   UNL     1       4.681   2.500  19.845  0.00  0.00    +0.000 S 
ATOM      6  C   UNL     1       3.084   2.681  19.118  0.00  0.00    +0.000 A 
ATOM      7  C   UNL     1       1.924   2.099  19.609  0.00  0.00    +0.000 A 
ATOM      8  C   UNL     1       0.711   2.528  19.092  0.00  0.00    +0.000 A 
ATOM      9  C   UNL     1       0.695   3.482  18.059  0.00  0.00    +0.000 A 
ATOM     10  C   UNL     1       1.894   4.016  17.522  0.00  0.00    +0.000 A 
ATOM     11  C   UNL     1       3.104   3.637  18.083  0.00  0.00    +0.000 A 
ENDBRANCH   1   2
BRANCH   1  13
ATOM     12  O   UNL     1       5.905   7.266  17.428  0.00  0.00    +0.000 OA
ATOM     13  C   UNL     1       4.872   6.620  17.287  0.00  0.00    +0.000 C 
BRANCH  13  14
ATOM     14  O   UNL     1       3.619   7.109  17.488  0.00  0.00    +0.000 OA
BRANCH  14  15
ATOM     15  C   UNL     1       3.168   7.186  18.857  0.00  0.00    +0.000 C 
BRANCH  15  16
ATOM     16  C   UNL     1       2.026   8.159  19.064  0.00  0.00    +0.000 A 
ATOM     17  C   UNL     1       1.447   8.361  20.322  0.00  0.00    +0.000 A 
ATOM     18  C   UNL     1       0.448   9.325  20.502  0.00  0.00    +0.000 A 
ATOM     19  C   UNL     1       0.025  10.106  19.428  0.00  0.00    +0.000 A 
ATOM     20  C   UNL     1       0.601   9.929  18.173  0.00  0.00    +0.000 A 
ATOM     21  C   UNL     1       1.599   8.966  17.994  0.00  0.00    +0.000 A 
ENDBRANCH  15  16
ENDBRANCH  14  15
ENDBRANCH  13  14
ENDBRANCH   1  13
BRANCH   1  22
ATOM     22  C   UNL     1       6.191   4.832  16.073  0.00  0.00    +0.000 C 
ATOM     23  O   UNL     1       7.135   4.216  16.561  0.00  0.00    +0.000 OA
BRANCH  22  24
ATOM     24  O   UNL     1       6.236   5.385  14.824  0.00  0.00    +0.000 OA
BRANCH  24  25
ATOM     25  C   UNL     1       7.065   4.732  13.821  0.00  0.00    +0.000 C 
BRANCH  25  26
ATOM     26  C   UNL     1       6.336   3.810  12.852  0.00  0.00    +0.000 A 
ATOM     27  C   UNL     1       4.979   3.966  12.558  0.00  0.00    +0.000 A 
ATOM     28  C   UNL     1       4.321   3.127  11.653  0.00  0.00    +0.000 A 
ATOM     29  C   UNL     1       5.027   2.138  10.980  0.00  0.00    +0.000 A 
ATOM     30  C   UNL     1       6.394   1.999  11.209  0.00  0.00    +0.000 A 
ATOM     31  C   UNL     1       7.045   2.827  12.136  0.00  0.00    +0.000 A 
ENDBRANCH  25  26
ENDBRANCH  24  25
ENDBRANCH  22  24
ENDBRANCH   1  22
TORSDOF 9
ENDMDL
MODEL 4
REMARK VINA RESULT:      -7.8      3.187      6.803
REMARK  Name = 
REMARK  9 active torsions:
REMARK  status: ('A' for Active; 'I' for Inactive)
REMARK    1  A    between atoms: C_2  and  O_3
REMARK    2  A    between atoms: C_2  and  C_11
REMARK    3  A    between atoms: O_3  and  C_4
REMARK    4  A    between atoms: C_4  and  C_5
REMARK    5  A    between atoms: C_11  and  C_12
REMARK    6  A    between atoms: C_11  and  N_22
REMARK    7  A    between atoms: C_12  and  O_14
REMARK    8  A    between atoms: O_14  and  C_15
REMARK    9  A    between atoms: C_15  and  C_16
REMARK                            x       y       z     vdW  Elec       q    Type
REMARK                         _______ _______ _______ _____ _____    ______ ____
ROOT
ATOM      1  C   UNL     1       3.983   5.862  17.285  0.00  0.00    +0.000 C 
ENDROOT
BRANCH   1   2
ATOM      2  N   UNL     1       3.189   6.436  18.381  0.00  0.00    +0.000 N 
ATOM      3  C   UNL     1       3.378   5.948  19.663  0.00  0.00    +0.000 A 
ATOM      4  O   UNL     1       4.316   5.294  20.064  0.00  0.00    +0.000 OA
ATOM      5  S   UNL     1       2.059   6.470  20.706  0.00  0.00    +0.000 S 
ATOM      6  C   UNL     1       1.771   7.833  19.624  0.00  0.00    +0.000 A 
ATOM      7  C   UNL     1       1.100   8.994  19.980  0.00  0.00    +0.000 A 
ATOM      8  C   UNL     1       1.167  10.076  19.116  0.00  0.00    +0.000 A 
ATOM      9  C   UNL     1       1.851   9.949  17.895  0.00  0.00    +0.000 A 
ATOM     10  C   UNL     1       2.474   8.733  17.516  0.00  0.00    +0.000 A 
ATOM     11  C   UNL     1       2.464   7.670  18.408  0.00  0.00    +0.000 A 
ENDBRANCH   1   2
BRANCH   1  13
ATOM     12  O   UNL     1       5.997   7.083  17.843  0.00  0.00    +0.000 OA
ATOM     13  C   UNL     1       5.329   6.523  16.979  0.00  0.00    +0.000 C 
BRANCH  13  14
ATOM     14  O   UNL     1       5.671   6.442  15.666  0.00  0.00    +0.000 OA
BRANCH  14  15
ATOM     15  C   UNL     1       6.802   5.605  15.344  0.00  0.00    +0.000 C 
BRANCH  15  16
ATOM     16  C   UNL     1       6.658   4.875  14.025  0.00  0.00    +0.000 A 
ATOM     17  C   UNL     1       7.600   5.014  12.999  0.00  0.00    +0.000 A 
ATOM     18  C   UNL     1       7.487   4.266  11.821  0.00  0.00    +0.000 A 
ATOM     19  C   UNL     1       6.437   3.362  11.660  0.00  0.00    +0.000 A 
ATOM     20  C   UNL     1       5.501   3.201  12.677  0.00  0.00    +0.000 A 
ATOM     21  C   UNL     1       5.614   3.948  13.854  0.00  0.00    +0.000 A 
ENDBRANCH  15  16
ENDBRANCH  14  15
ENDBRANCH  13  14
ENDBRANCH   1  13
BRANCH   1  22
ATOM     22  C   UNL     1       4.145   4.295  17.198  0.00  0.00    +0.000 C 
ATOM     23  O   UNL     1       5.219   3.734  17.400  0.00  0.00    +0.000 OA
BRANCH  22  24
ATOM     24  O   UNL     1       3.028   3.626  16.785  0.00  0.00    +0.000 OA
BRANCH  24  25
ATOM     25  C   UNL     1       2.668   2.404  17.489  0.00  0.00    +0.000 C 
BRANCH  25  26
ATOM     26  C   UNL     1       2.324   2.563  18.964  0.00  0.00    +0.000 A 
ATOM     27  C   UNL     1       1.049   2.946  19.392  0.00  0.00    +0.000 A 
ATOM     28  C   UNL     1       0.735   3.071  20.749  0.00  0.00    +0.000 A 
ATOM     29  C   UNL     1       1.685   2.765  21.715  0.00  0.00    +0.000 A 
ATOM     30  C   UNL     1       2.944   2.324  21.319  0.00  0.00    +0.000 A 
ATOM     31  C   UNL     1       3.264   2.222  19.956  0.00  0.00    +0.000 A 
ENDBRANCH  25  26
ENDBRANCH  24  25
ENDBRANCH  22  24
ENDBRANCH   1  22
TORSDOF 9
ENDMDL
MODEL 5
REMARK VINA RESULT:      -7.6      3.057      4.237
REMARK  Name = 
REMARK  9 active torsions:
REMARK  status: ('A' for Active; 'I' for Inactive)
REMARK    1  A    between atoms: C_2  and  O_3
REMARK    2  A    between atoms: C_2  and  C_11
REMARK    3  A    between atoms: O_3  and  C_4
REMARK    4  A    between atoms: C_4  and  C_5
REMARK    5  A    between atoms: C_11  and  C_12
REMARK    6  A    between atoms: C_11  and  N_22
REMARK    7  A    between atoms: C_12  and  O_14
REMARK    8  A    between atoms: O_14  and  C_15
REMARK    9  A    between atoms: C_15  and  C_16
REMARK                            x       y       z     vdW  Elec       q    Type
REMARK                         _______ _______ _______ _____ _____    ______ ____
ROOT
ATOM      1  C   UNL     1       5.296   5.262  16.828  0.00  0.00    +0.000 C 
ENDROOT
BRANCH   1   2
ATOM      2  N   UNL     1       4.776   4.304  17.814  0.00  0.00    +0.000 N 
ATOM      3  C   UNL     1       5.505   4.077  18.969  0.00  0.00    +0.000 A 
ATOM      4  O   UNL     1       6.391   4.770  19.420  0.00  0.00    +0.000 OA
ATOM      5  S   UNL     1       4.921   2.625  19.774  0.00  0.00    +0.000 S 
ATOM      6  C   UNL     1       3.362   2.834  18.976  0.00  0.00    +0.000 A 
ATOM      7  C   UNL     1       2.171   2.274  19.414  0.00  0.00    +0.000 A 
ATOM      8  C   UNL     1       0.990   2.724  18.843  0.00  0.00    +0.000 A 
ATOM      9  C   UNL     1       1.037   3.677  17.810  0.00  0.00    +0.000 A 
ATOM     10  C   UNL     1       2.268   4.189  17.328  0.00  0.00    +0.000 A 
ATOM     11  C   UNL     1       3.445   3.788  17.943  0.00  0.00    +0.000 A 
ENDBRANCH   1   2
BRANCH   1  13
ATOM     12  O   UNL     1       6.310   7.458  16.923  0.00  0.00    +0.000 OA
ATOM     13  C   UNL     1       5.383   6.728  17.259  0.00  0.00    +0.000 C 
BRANCH  13  14
ATOM     14  O   UNL     1       4.351   7.104  18.061  0.00  0.00    +0.000 OA
BRANCH  14  15
ATOM     15  C   UNL     1       3.197   7.671  17.405  0.00  0.00    +0.000 C 
BRANCH  15  16
ATOM     16  C   UNL     1       2.244   8.368  18.354  0.00  0.00    +0.000 A 
ATOM     17  C   UNL     1       1.990   7.874  19.639  0.00  0.00    +0.000 A 
ATOM     18  C   UNL     1       1.169   8.580  20.525  0.00  0.00    +0.000 A 
ATOM     19  C   UNL     1       0.603   9.795  20.142  0.00  0.00    +0.000 A 
ATOM     20  C   UNL     1       0.858  10.308  18.874  0.00  0.00    +0.000 A 
ATOM     21  C   UNL     1       1.679   9.602  17.988  0.00  0.00    +0.000 A 
ENDBRANCH  15  16
ENDBRANCH  14  15
ENDBRANCH  13  14
ENDBRANCH   1  13
BRANCH   1  22
ATOM     22  C   UNL     1       6.591   4.887  16.008  0.00  0.00    +0.000 C 
ATOM     23  O   UNL     1       7.601   4.439  16.546  0.00  0.00    +0.000 OA
BRANCH  22  24
ATOM     24  O   UNL     1       6.535   5.191  14.677  0.00  0.00    +0.000 OA
BRANCH  24  25
ATOM     25  C   UNL     1       5.478   4.582  13.885  0.00  0.00    +0.000 C 
BRANCH  25  26
ATOM     26  C   UNL     1       5.933   3.621  12.794  0.00  0.00    +0.000 A 
ATOM     27  C   UNL     1       7.271   3.522  12.403  0.00  0.00    +0.000 A 
ATOM     28  C   UNL     1       7.684   2.625  11.414  0.00  0.00    +0.000 A 
ATOM     29  C   UNL     1       6.765   1.764  10.825  0.00  0.00    +0.000 A 
ATOM     30  C   UNL     1       5.436   1.800  11.237  0.00  0.00    +0.000 A 
ATOM     31  C   UNL     1       5.021   2.719  12.214  0.00  0.00    +0.000 A 
ENDBRANCH  25  26
ENDBRANCH  24  25
ENDBRANCH  22  24
ENDBRANCH   1  22
TORSDOF 9
ENDMDL
MODEL 6
REMARK VINA RESULT:      -7.5      0.864      1.261
REMARK  Name = 
REMARK  9 active torsions:
REMARK  status: ('A' for Active; 'I' for Inactive)
REMARK    1  A    between atoms: C_2  and  O_3
REMARK    2  A    between atoms: C_2  and  C_11
REMARK    3  A    between atoms: O_3  and  C_4
REMARK    4  A    between atoms: C_4  and  C_5
REMARK    5  A    between atoms: C_11  and  C_12
REMARK    6  A    between atoms: C_11  and  N_22
REMARK    7  A    between atoms: C_12  and  O_14
REMARK    8  A    between atoms: O_14  and  C_15
REMARK    9  A    between atoms: C_15  and  C_16
REMARK                            x       y       z     vdW  Elec       q    Type
REMARK                         _______ _______ _______ _____ _____    ______ ____
ROOT
ATOM      1  C   UNL     1       5.706   5.996  17.735  0.00  0.00    +0.000 C 
ENDROOT
BRANCH   1   2
ATOM      2  N   UNL     1       4.459   6.024  18.513  0.00  0.00    +0.000 N 
ATOM      3  C   UNL     1       3.503   6.976  18.202  0.00  0.00    +0.000 A 
ATOM      4  O   UNL     1       3.428   7.628  17.183  0.00  0.00    +0.000 OA
ATOM      5  S   UNL     1       2.319   7.086  19.499  0.00  0.00    +0.000 S 
ATOM      6  C   UNL     1       2.723   5.437  19.980  0.00  0.00    +0.000 A 
ATOM      7  C   UNL     1       1.902   4.612  20.735  0.00  0.00    +0.000 A 
ATOM      8  C   UNL     1       2.233   3.269  20.823  0.00  0.00    +0.000 A 
ATOM      9  C   UNL     1       3.405   2.799  20.204  0.00  0.00    +0.000 A 
ATOM     10  C   UNL     1       4.269   3.670  19.493  0.00  0.00    +0.000 A 
ATOM     11  C   UNL     1       3.905   5.001  19.349  0.00  0.00    +0.000 A 
ENDBRANCH   1   2
BRANCH   1  13
ATOM     12  O   UNL     1       7.189   5.261  19.501  0.00  0.00    +0.000 OA
ATOM     13  C   UNL     1       7.018   5.981  18.521  0.00  0.00    +0.000 C 
BRANCH  13  14
ATOM     14  O   UNL     1       7.937   6.857  18.034  0.00  0.00    +0.000 OA
BRANCH  14  15
ATOM     15  C   UNL     1       7.432   8.120  17.552  0.00  0.00    +0.000 C 
BRANCH  15  16
ATOM     16  C   UNL     1       8.218   9.315  18.051  0.00  0.00    +0.000 A 
ATOM     17  C   UNL     1       8.125  10.568  17.435  0.00  0.00    +0.000 A 
ATOM     18  C   UNL     1       8.798  11.676  17.965  0.00  0.00    +0.000 A 
ATOM     19  C   UNL     1       9.561  11.545  19.124  0.00  0.00    +0.000 A 
ATOM     20  C   UNL     1       9.651  10.310  19.758  0.00  0.00    +0.000 A 
ATOM     21  C   UNL     1       8.979   9.203  19.229  0.00  0.00    +0.000 A 
ENDBRANCH  15  16
ENDBRANCH  14  15
ENDBRANCH  13  14
ENDBRANCH   1  13
BRANCH   1  22
ATOM     22  C   UNL     1       5.823   5.003  16.514  0.00  0.00    +0.000 C 
ATOM     23  O   UNL     1       5.885   3.785  16.663  0.00  0.00    +0.000 OA
BRANCH  22  24
ATOM     24  O   UNL     1       5.951   5.606  15.295  0.00  0.00    +0.000 OA
BRANCH  24  25
ATOM     25  C   UNL     1       6.980   5.109  14.395  0.00  0.00    +0.000 C 
BRANCH  25  26
ATOM     26  C   UNL     1       6.499   4.207  13.266  0.00  0.00    +0.000 A 
ATOM     27  C   UNL     1       7.388   3.500  12.450  0.00  0.00    +0.000 A 
ATOM     28  C   UNL     1       6.937   2.659  11.428  0.00  0.00    +0.000 A 
ATOM     29  C   UNL     1       5.576   2.467  11.232  0.00  0.00    +0.000 A 
ATOM     30  C   UNL     1       4.668   3.112  12.068  0.00  0.00    +0.000 A 
ATOM     31  C   UNL     1       5.123   3.974  13.077  0.00  0.00    +0.000 A 
ENDBRANCH  25  26
ENDBRANCH  24  25
ENDBRANCH  22  24
ENDBRANCH   1  22
TORSDOF 9
ENDMDL
MODEL 7
REMARK VINA RESULT:      -7.5      3.118      4.538
REMARK  Name = 
REMARK  9 active torsions:
REMARK  status: ('A' for Active; 'I' for Inactive)
REMARK    1  A    between atoms: C_2  and  O_3
REMARK    2  A    between atoms: C_2  and  C_11
REMARK    3  A    between atoms: O_3  and  C_4
REMARK    4  A    between atoms: C_4  and  C_5
REMARK    5  A    between atoms: C_11  and  C_12
REMARK    6  A    between atoms: C_11  and  N_22
REMARK    7  A    between atoms: C_12  and  O_14
REMARK    8  A    between atoms: O_14  and  C_15
REMARK    9  A    between atoms: C_15  and  C_16
REMARK                            x       y       z     vdW  Elec       q    Type
REMARK                         _______ _______ _______ _____ _____    ______ ____
ROOT
ATOM      1  C   UNL     1       5.193   5.207  17.082  0.00  0.00    +0.000 C 
ENDROOT
BRANCH   1   2
ATOM      2  N   UNL     1       4.640   4.246  18.047  0.00  0.00    +0.000 N 
ATOM      3  C   UNL     1       5.322   4.028  19.233  0.00  0.00    +0.000 A 
ATOM      4  O   UNL     1       6.182   4.731  19.719  0.00  0.00    +0.000 OA
ATOM      5  S   UNL     1       4.720   2.572  20.016  0.00  0.00    +0.000 S 
ATOM      6  C   UNL     1       3.193   2.765  19.153  0.00  0.00    +0.000 A 
ATOM      7  C   UNL     1       1.990   2.194  19.542  0.00  0.00    +0.000 A 
ATOM      8  C   UNL     1       0.830   2.632  18.920  0.00  0.00    +0.000 A 
ATOM      9  C   UNL     1       0.912   3.583  17.888  0.00  0.00    +0.000 A 
ATOM     10  C   UNL     1       2.157   4.106  17.457  0.00  0.00    +0.000 A 
ATOM     11  C   UNL     1       3.311   3.718  18.122  0.00  0.00    +0.000 A 
ENDBRANCH   1   2
BRANCH   1  13
ATOM     12  O   UNL     1       5.964   7.500  17.144  0.00  0.00    +0.000 OA
ATOM     13  C   UNL     1       5.091   6.691  17.440  0.00  0.00    +0.000 C 
BRANCH  13  14
ATOM     14  O   UNL     1       3.959   6.991  18.131  0.00  0.00    +0.000 OA
BRANCH  14  15
ATOM     15  C   UNL     1       3.079   7.968  17.536  0.00  0.00    +0.000 C 
BRANCH  15  16
ATOM     16  C   UNL     1       2.079   8.555  18.511  0.00  0.00    +0.000 A 
ATOM     17  C   UNL     1       1.154   9.530  18.121  0.00  0.00    +0.000 A 
ATOM     18  C   UNL     1       0.188   9.997  19.020  0.00  0.00    +0.000 A 
ATOM     19  C   UNL     1       0.128   9.485  20.315  0.00  0.00    +0.000 A 
ATOM     20  C   UNL     1       1.030   8.503  20.714  0.00  0.00    +0.000 A 
ATOM     21  C   UNL     1       1.996   8.036  19.815  0.00  0.00    +0.000 A 
ENDBRANCH  15  16
ENDBRANCH  14  15
ENDBRANCH  13  14
ENDBRANCH   1  13
BRANCH   1  22
ATOM     22  C   UNL     1       6.610   4.924  16.449  0.00  0.00    +0.000 C 
ATOM     23  O   UNL     1       7.587   4.626  17.132  0.00  0.00    +0.000 OA
BRANCH  22  24
ATOM     24  O   UNL     1       6.688   5.134  15.101  0.00  0.00    +0.000 OA
BRANCH  24  25
ATOM     25  C   UNL     1       5.505   4.854  14.300  0.00  0.00    +0.000 C 
BRANCH  25  26
ATOM     26  C   UNL     1       5.698   3.878  13.146  0.00  0.00    +0.000 A 
ATOM     27  C   UNL     1       4.619   3.360  12.424  0.00  0.00    +0.000 A 
ATOM     28  C   UNL     1       4.806   2.479  11.354  0.00  0.00    +0.000 A 
ATOM     29  C   UNL     1       6.089   2.136  10.949  0.00  0.00    +0.000 A 
ATOM     30  C   UNL     1       7.184   2.684  11.612  0.00  0.00    +0.000 A 
ATOM     31  C   UNL     1       6.993   3.549  12.701  0.00  0.00    +0.000 A 
ENDBRANCH  25  26
ENDBRANCH  24  25
ENDBRANCH  22  24
ENDBRANCH   1  22
TORSDOF 9
ENDMDL
MODEL 8
REMARK VINA RESULT:      -7.5      2.473      7.223
REMARK  Name = 
REMARK  9 active torsions:
REMARK  status: ('A' for Active; 'I' for Inactive)
REMARK    1  A    between atoms: C_2  and  O_3
REMARK    2  A    between atoms: C_2  and  C_11
REMARK    3  A    between atoms: O_3  and  C_4
REMARK    4  A    between atoms: C_4  and  C_5
REMARK    5  A    between atoms: C_11  and  C_12
REMARK    6  A    between atoms: C_11  and  N_22
REMARK    7  A    between atoms: C_12  and  O_14
REMARK    8  A    between atoms: O_14  and  C_15
REMARK    9  A    between atoms: C_15  and  C_16
REMARK                            x       y       z     vdW  Elec       q    Type
REMARK                         _______ _______ _______ _____ _____    ______ ____
ROOT
ATOM      1  C   UNL     1       6.216   6.103  17.997  0.00  0.00    +0.000 C 
ENDROOT
BRANCH   1   2
ATOM      2  N   UNL     1       4.834   6.542  18.238  0.00  0.00    +0.000 N 
ATOM      3  C   UNL     1       4.162   7.205  17.224  0.00  0.00    +0.000 A 
ATOM      4  O   UNL     1       4.460   7.235  16.050  0.00  0.00    +0.000 OA
ATOM      5  S   UNL     1       2.720   7.983  17.866  0.00  0.00    +0.000 S 
ATOM      6  C   UNL     1       2.708   6.820  19.192  0.00  0.00    +0.000 A 
ATOM      7  C   UNL     1       1.595   6.515  19.963  0.00  0.00    +0.000 A 
ATOM      8  C   UNL     1       1.663   5.409  20.797  0.00  0.00    +0.000 A 
ATOM      9  C   UNL     1       2.859   4.675  20.880  0.00  0.00    +0.000 A 
ATOM     10  C   UNL     1       4.009   5.041  20.135  0.00  0.00    +0.000 A 
ATOM     11  C   UNL     1       3.922   6.108  19.253  0.00  0.00    +0.000 A 
ENDBRANCH   1   2
BRANCH   1  13
ATOM     12  O   UNL     1       7.372   3.978  17.908  0.00  0.00    +0.000 OA
ATOM     13  C   UNL     1       6.419   4.658  17.539  0.00  0.00    +0.000 C 
BRANCH  13  14
ATOM     14  O   UNL     1       5.457   4.237  16.676  0.00  0.00    +0.000 OA
BRANCH  14  15
ATOM     15  C   UNL     1       4.954   2.898  16.870  0.00  0.00    +0.000 C 
BRANCH  15  16
ATOM     16  C   UNL     1       3.578   2.855  17.500  0.00  0.00    +0.000 A 
ATOM     17  C   UNL     1       2.567   3.748  17.126  0.00  0.00    +0.000 A 
ATOM     18  C   UNL     1       1.280   3.634  17.665  0.00  0.00    +0.000 A 
ATOM     19  C   UNL     1       0.986   2.620  18.575  0.00  0.00    +0.000 A 
ATOM     20  C   UNL     1       1.975   1.714  18.945  0.00  0.00    +0.000 A 
ATOM     21  C   UNL     1       3.261   1.827  18.407  0.00  0.00    +0.000 A 
ENDBRANCH  15  16
ENDBRANCH  14  15
ENDBRANCH  13  14
ENDBRANCH   1  13
BRANCH   1  22
ATOM     22  C   UNL     1       7.186   7.044  17.183  0.00  0.00    +0.000 C 
ATOM     23  O   UNL     1       7.815   6.649  16.204  0.00  0.00    +0.000 OA
BRANCH  22  24
ATOM     24  O   UNL     1       7.345   8.296  17.708  0.00  0.00    +0.000 OA
BRANCH  24  25
ATOM     25  C   UNL     1       8.504   8.535  18.555  0.00  0.00    +0.000 C 
BRANCH  25  26
ATOM     26  C   UNL     1       8.922   9.991  18.715  0.00  0.00    +0.000 A 
ATOM     27  C   UNL     1       8.617  10.961  17.756  0.00  0.00    +0.000 A 
ATOM     28  C   UNL     1       8.988  12.299  17.919  0.00  0.00    +0.000 A 
ATOM     29  C   UNL     1       9.634  12.707  19.079  0.00  0.00    +0.000 A 
ATOM     30  C   UNL     1       9.898  11.773  20.078  0.00  0.00    +0.000 A 
ATOM     31  C   UNL     1       9.546  10.426  19.900  0.00  0.00    +0.000 A 
ENDBRANCH  25  26
ENDBRANCH  24  25
ENDBRANCH  22  24
ENDBRANCH   1  22
TORSDOF 9
ENDMDL
MODEL 9
REMARK VINA RESULT:      -7.4      1.165      6.932
REMARK  Name = 
REMARK  9 active torsions:
REMARK  status: ('A' for Active; 'I' for Inactive)
REMARK    1  A    between atoms: C_2  and  O_3
REMARK    2  A    between atoms: C_2  and  C_11
REMARK    3  A    between atoms: O_3  and  C_4
REMARK    4  A    between atoms: C_4  and  C_5
REMARK    5  A    between atoms: C_11  and  C_12
REMARK    6  A    between atoms: C_11  and  N_22
REMARK    7  A    between atoms: C_12  and  O_14
REMARK    8  A    between atoms: O_14  and  C_15
REMARK    9  A    between atoms: C_15  and  C_16
REMARK                            x       y       z     vdW  Elec       q    Type
REMARK                         _______ _______ _______ _____ _____    ______ ____
ROOT
ATOM      1  C   UNL     1       6.981   6.138  18.132  0.00  0.00    +0.000 C 
ENDROOT
BRANCH   1   2
ATOM      2  N   UNL     1       5.513   6.186  18.182  0.00  0.00    +0.000 N 
ATOM      3  C   UNL     1       4.838   6.913  17.215  0.00  0.00    +0.000 A 
ATOM      4  O   UNL     1       5.279   7.298  16.154  0.00  0.00    +0.000 OA
ATOM      5  S   UNL     1       3.169   7.168  17.709  0.00  0.00    +0.000 S 
ATOM      6  C   UNL     1       3.277   5.740  18.738  0.00  0.00    +0.000 A 
ATOM      7  C   UNL     1       2.186   5.014  19.197  0.00  0.00    +0.000 A 
ATOM      8  C   UNL     1       2.424   3.780  19.781  0.00  0.00    +0.000 A 
ATOM      9  C   UNL     1       3.747   3.332  19.944  0.00  0.00    +0.000 A 
ATOM     10  C   UNL     1       4.853   4.117  19.531  0.00  0.00    +0.000 A 
ATOM     11  C   UNL     1       4.614   5.322  18.888  0.00  0.00    +0.000 A 
ENDBRANCH   1   2
BRANCH   1  13
ATOM     12  O   UNL     1       8.148   4.022  18.277  0.00  0.00    +0.000 OA
ATOM     13  C   UNL     1       7.618   4.868  17.564  0.00  0.00    +0.000 C 
BRANCH  13  14
ATOM     14  O   UNL     1       7.553   4.806  16.207  0.00  0.00    +0.000 OA
BRANCH  14  15
ATOM     15  C   UNL     1       6.448   4.065  15.646  0.00  0.00    +0.000 C 
BRANCH  15  16
ATOM     16  C   UNL     1       6.422   4.073  14.132  0.00  0.00    +0.000 A 
ATOM     17  C   UNL     1       7.396   4.740  13.381  0.00  0.00    +0.000 A 
ATOM     18  C   UNL     1       7.395   4.665  11.983  0.00  0.00    +0.000 A 
ATOM     19  C   UNL     1       6.427   3.911  11.321  0.00  0.00    +0.000 A 
ATOM     20  C   UNL     1       5.460   3.229  12.054  0.00  0.00    +0.000 A 
ATOM     21  C   UNL     1       5.461   3.305  13.451  0.00  0.00    +0.000 A 
ENDBRANCH  15  16
ENDBRANCH  14  15
ENDBRANCH  13  14
ENDBRANCH   1  13
BRANCH   1  22
ATOM     22  C   UNL     1       7.769   7.396  17.596  0.00  0.00    +0.000 C 
ATOM     23  O   UNL     1       8.201   7.459  16.448  0.00  0.00    +0.000 OA
BRANCH  22  24
ATOM     24  O   UNL     1       8.016   8.359  18.533  0.00  0.00    +0.000 OA
BRANCH  24  25
ATOM     25  C   UNL     1       8.154   9.733  18.075  0.00  0.00    +0.000 C 
BRANCH  25  26
ATOM     26  C   UNL     1       9.312  10.521  18.673  0.00  0.00    +0.000 A 
ATOM     27  C   UNL     1      10.281  11.138  17.876  0.00  0.00    +0.000 A 
ATOM     28  C   UNL     1      11.331  11.876  18.432  0.00  0.00    +0.000 A 
ATOM     29  C   UNL     1      11.405  12.055  19.807  0.00  0.00    +0.000 A 
ATOM     30  C   UNL     1      10.420  11.502  20.622  0.00  0.00    +0.000 A 
ATOM     31  C   UNL     1       9.382  10.742  20.062  0.00  0.00    +0.000 A 
ENDBRANCH  25  26
ENDBRANCH  24  25
ENDBRANCH  22  24
ENDBRANCH   1  22
TORSDOF 9
ENDMDL
