MODEL 1
REMARK VINA RESULT:      -8.5      0.000      0.000
REMARK  Name = 
REMARK  10 active torsions:
REMARK  status: ('A' for Active; 'I' for Inactive)
REMARK    1  A    between atoms: C_1  and  C_2
REMARK    2  A    between atoms: C_2  and  N_3
REMARK    3  A    between atoms: N_3  and  C_4
REMARK    4  A    between atoms: N_3  and  C_6
REMARK    5  A    between atoms: C_4  and  C_5
REMARK    6  A    between atoms: C_9  and  N_10
REMARK    7  A    between atoms: C_11  and  C_13
REMARK    8  A    between atoms: N_16  and  S_17
REMARK    9  A    between atoms: S_17  and  C_20
REMARK   10  A    between atoms: C_27  and  C_28
REMARK                            x       y       z     vdW  Elec       q    Type
REMARK                         _______ _______ _______ _____ _____    ______ ____
ROOT
ATOM      1  N   UNL     1       2.880   5.839  19.781  0.00  0.00    +0.000 N 
ATOM      2  C   UNL     1       2.352   4.647  19.290  0.00  0.00    +0.000 C 
ATOM      3  O   UNL     1       1.171   4.428  19.047  0.00  0.00    +0.000 OA
ATOM      4  H   UNL     1       3.852   5.832  20.055  0.00  0.00    +0.000 HD
ENDROOT
BRANCH   1   8
ATOM      5  C   UNL     1       0.669   9.504  20.129  0.00  0.00    +0.000 A 
ATOM      6  C   UNL     1       0.712   8.562  21.160  0.00  0.00    +0.000 A 
ATOM      7  C   UNL     1       1.450   7.377  21.054  0.00  0.00    +0.000 A 
ATOM      8  C   UNL     1       2.198   7.080  19.914  0.00  0.00    +0.000 A 
ATOM      9  C   UNL     1       2.216   8.031  18.874  0.00  0.00    +0.000 A 
ATOM     10  C   UNL     1       2.976   7.855  17.587  0.00  0.00    +0.000 C 
ATOM     11  C   UNL     1       1.446   9.218  18.998  0.00  0.00    +0.000 A 
BRANCH   5  12
ATOM     12  N   UNL     1      -0.133  10.654  20.193  0.00  0.00    +0.000 N 
BRANCH  12  14
ATOM     13  C   UNL     1      -1.195  11.723  22.184  0.00  0.00    +0.000 C 
ATOM     14  C   UNL     1       0.063  11.540  21.352  0.00  0.00    +0.000 C 
ENDBRANCH  12  14
BRANCH  12  15
ATOM     15  C   UNL     1      -0.556  11.250  18.912  0.00  0.00    +0.000 C 
ATOM     16  C   UNL     1      -1.943  10.803  18.464  0.00  0.00    +0.000 C 
ENDBRANCH  12  15
ENDBRANCH   5  12
ENDBRANCH   1   8
BRANCH   2  17
ATOM     17  C   UNL     1       3.409   3.553  19.085  0.00  0.00    +0.000 C 
ATOM     18  C   UNL     1       4.781   3.973  19.630  0.00  0.00    +0.000 C 
ATOM     19  C   UNL     1       5.527   4.968  18.741  0.00  0.00    +0.000 C 
ATOM     20  N   UNL     1       5.576   4.492  17.336  0.00  0.00    +0.000 NA
ATOM     21  C   UNL     1       4.235   4.188  16.772  0.00  0.00    +0.000 C 
ATOM     22  C   UNL     1       3.528   3.132  17.619  0.00  0.00    +0.000 C 
BRANCH  20  23
ATOM     23  S   UNL     1       6.530   5.506  16.309  0.00  0.00    +0.000 S 
ATOM     24  O   UNL     1       7.569   4.693  15.705  0.00  0.00    +0.000 OA
ATOM     25  O   UNL     1       5.644   6.316  15.500  0.00  0.00    +0.000 OA
BRANCH  23  26
ATOM     26  C   UNL     1       7.394   6.656  17.314  0.00  0.00    +0.000 A 
ATOM     27  C   UNL     1       8.011   6.403  18.523  0.00  0.00    +0.000 A 
ATOM     28  N   UNL     1       8.481   7.615  18.951  0.00  0.00    +0.000 N 
ATOM     29  C   UNL     1       8.147   8.546  18.010  0.00  0.00    +0.000 A 
ATOM     30  N   UNL     1       7.488   8.008  17.008  0.00  0.00    +0.000 NA
ATOM     31  H   UNL     1       8.986   7.796  19.809  0.00  0.00    +0.000 HD
ENDBRANCH  23  26
ENDBRANCH  20  23
ENDBRANCH   2  17
TORSDOF 7
ENDMDL
MODEL 2
REMARK VINA RESULT:      -8.4      0.367      1.223
REMARK  Name = 
REMARK  10 active torsions:
REMARK  status: ('A' for Active; 'I' for Inactive)
REMARK    1  A    between atoms: C_1  and  C_2
REMARK    2  A    between atoms: C_2  and  N_3
REMARK    3  A    between atoms: N_3  and  C_4
REMARK    4  A    between atoms: N_3  and  C_6
REMARK    5  A    between atoms: C_4  and  C_5
REMARK    6  A    between atoms: C_9  and  N_10
REMARK    7  A    between atoms: C_11  and  C_13
REMARK    8  A    between atoms: N_16  and  S_17
REMARK    9  A    between atoms: S_17  and  C_20
REMARK   10  A    between atoms: C_27  and  C_28
REMARK                            x       y       z     vdW  Elec       q    Type
REMARK                         _______ _______ _______ _____ _____    ______ ____
ROOT
ATOM      1  N   UNL     1       2.965   5.867  19.729  0.00  0.00    +0.000 N 
ATOM      2  C   UNL     1       2.408   4.622  19.442  0.00  0.00    +0.000 C 
ATOM      3  O   UNL     1       1.212   4.371  19.360  0.00  0.00    +0.000 OA
ATOM      4  H   UNL     1       3.961   5.897  19.890  0.00  0.00    +0.000 HD
ENDROOT
BRANCH   1   8
ATOM      5  C   UNL     1       0.745   9.539  19.871  0.00  0.00    +0.000 A 
ATOM      6  C   UNL     1       0.758   8.639  20.938  0.00  0.00    +0.000 A 
ATOM      7  C   UNL     1       1.499   7.451  20.900  0.00  0.00    +0.000 A 
ATOM      8  C   UNL     1       2.279   7.111  19.794  0.00  0.00    +0.000 A 
ATOM      9  C   UNL     1       2.327   8.021  18.719  0.00  0.00    +0.000 A 
ATOM     10  C   UNL     1       3.124   7.796  17.462  0.00  0.00    +0.000 C 
ATOM     11  C   UNL     1       1.554   9.211  18.775  0.00  0.00    +0.000 A 
BRANCH   5  12
ATOM     12  N   UNL     1      -0.058  10.690  19.867  0.00  0.00    +0.000 N 
BRANCH  12  14
ATOM     13  C   UNL     1      -1.927  10.205  18.282  0.00  0.00    +0.000 C 
ATOM     14  C   UNL     1      -0.703  11.049  18.592  0.00  0.00    +0.000 C 
ENDBRANCH  12  14
BRANCH  12  15
ATOM     15  C   UNL     1      -0.743  11.036  21.125  0.00  0.00    +0.000 C 
ATOM     16  C   UNL     1      -1.155  12.501  21.210  0.00  0.00    +0.000 C 
ENDBRANCH  12  15
ENDBRANCH   5  12
ENDBRANCH   1   8
BRANCH   2  17
ATOM     17  C   UNL     1       3.455   3.518  19.246  0.00  0.00    +0.000 C 
ATOM     18  C   UNL     1       4.839   3.944  19.758  0.00  0.00    +0.000 C 
ATOM     19  C   UNL     1       5.575   4.912  18.832  0.00  0.00    +0.000 C 
ATOM     20  N   UNL     1       5.598   4.401  17.439  0.00  0.00    +0.000 NA
ATOM     21  C   UNL     1       4.246   4.090  16.905  0.00  0.00    +0.000 C 
ATOM     22  C   UNL     1       3.548   3.060  17.790  0.00  0.00    +0.000 C 
BRANCH  20  23
ATOM     23  S   UNL     1       6.540   5.384  16.371  0.00  0.00    +0.000 S 
ATOM     24  O   UNL     1       7.592   4.561  15.804  0.00  0.00    +0.000 OA
ATOM     25  O   UNL     1       5.645   6.147  15.528  0.00  0.00    +0.000 OA
BRANCH  23  26
ATOM     26  C   UNL     1       7.386   6.587  17.328  0.00  0.00    +0.000 A 
ATOM     27  C   UNL     1       8.067   6.379  18.511  0.00  0.00    +0.000 A 
ATOM     28  N   UNL     1       8.491   7.618  18.908  0.00  0.00    +0.000 N 
ATOM     29  C   UNL     1       8.069   8.521  17.975  0.00  0.00    +0.000 A 
ATOM     30  N   UNL     1       7.396   7.939  17.007  0.00  0.00    +0.000 NA
ATOM     31  H   UNL     1       9.023   7.834  19.741  0.00  0.00    +0.000 HD
ENDBRANCH  23  26
ENDBRANCH  20  23
ENDBRANCH   2  17
TORSDOF 7
ENDMDL
MODEL 3
REMARK VINA RESULT:      -8.3      1.855      2.624
REMARK  Name = 
REMARK  10 active torsions:
REMARK  status: ('A' for Active; 'I' for Inactive)
REMARK    1  A    between atoms: C_1  and  C_2
REMARK    2  A    between atoms: C_2  and  N_3
REMARK    3  A    between atoms: N_3  and  C_4
REMARK    4  A    between atoms: N_3  and  C_6
REMARK    5  A    between atoms: C_4  and  C_5
REMARK    6  A    between atoms: C_9  and  N_10
REMARK    7  A    between atoms: C_11  and  C_13
REMARK    8  A    between atoms: N_16  and  S_17
REMARK    9  A    between atoms: S_17  and  C_20
REMARK   10  A    between atoms: C_27  and  C_28
REMARK                            x       y       z     vdW  Elec       q    Type
REMARK                         _______ _______ _______ _____ _____    ______ ____
ROOT
ATOM      1  N   UNL     1       2.964   6.148  19.845  0.00  0.00    +0.000 N 
ATOM      2  C   UNL     1       2.549   4.889  19.414  0.00  0.00    +0.000 C 
ATOM      3  O   UNL     1       1.390   4.536  19.236  0.00  0.00    +0.000 OA
ATOM      4  H   UNL     1       3.942   6.256  20.071  0.00  0.00    +0.000 HD
ENDROOT
BRANCH   1   8
ATOM      5  C   UNL     1       0.381   9.560  20.194  0.00  0.00    +0.000 A 
ATOM      6  C   UNL     1       0.548   8.646  21.237  0.00  0.00    +0.000 A 
ATOM      7  C   UNL     1       1.406   7.545  21.130  0.00  0.00    +0.000 A 
ATOM      8  C   UNL     1       2.156   7.310  19.977  0.00  0.00    +0.000 A 
ATOM      9  C   UNL     1       2.048   8.240  18.923  0.00  0.00    +0.000 A 
ATOM     10  C   UNL     1       2.794   8.125  17.621  0.00  0.00    +0.000 C 
ATOM     11  C   UNL     1       1.158   9.341  19.049  0.00  0.00    +0.000 A 
BRANCH   5  12
ATOM     12  N   UNL     1      -0.537  10.619  20.260  0.00  0.00    +0.000 N 
BRANCH  12  14
ATOM     13  C   UNL     1       1.041  12.484  20.778  0.00  0.00    +0.000 C 
ATOM     14  C   UNL     1      -0.214  11.726  21.176  0.00  0.00    +0.000 C 
ENDBRANCH  12  14
BRANCH  12  15
ATOM     15  C   UNL     1      -1.312  10.915  19.041  0.00  0.00    +0.000 C 
ATOM     16  C   UNL     1      -2.246  12.110  19.190  0.00  0.00    +0.000 C 
ENDBRANCH  12  15
ENDBRANCH   5  12
ENDBRANCH   1   8
BRANCH   2  17
ATOM     17  C   UNL     1       3.709   3.911  19.188  0.00  0.00    +0.000 C 
ATOM     18  C   UNL     1       5.068   4.549  19.513  0.00  0.00    +0.000 C 
ATOM     19  C   UNL     1       5.573   5.516  18.443  0.00  0.00    +0.000 C 
ATOM     20  N   UNL     1       5.526   4.891  17.097  0.00  0.00    +0.000 NA
ATOM     21  C   UNL     1       4.182   4.369  16.738  0.00  0.00    +0.000 C 
ATOM     22  C   UNL     1       3.718   3.342  17.769  0.00  0.00    +0.000 C 
BRANCH  20  23
ATOM     23  S   UNL     1       6.220   5.887  15.863  0.00  0.00    +0.000 S 
ATOM     24  O   UNL     1       5.233   6.875  15.469  0.00  0.00    +0.000 OA
ATOM     25  O   UNL     1       7.553   6.276  16.271  0.00  0.00    +0.000 OA
BRANCH  23  26
ATOM     26  C   UNL     1       6.461   4.904  14.429  0.00  0.00    +0.000 A 
ATOM     27  C   UNL     1       5.875   3.685  14.150  0.00  0.00    +0.000 A 
ATOM     28  N   UNL     1       6.422   3.283  12.962  0.00  0.00    +0.000 N 
ATOM     29  C   UNL     1       7.301   4.248  12.563  0.00  0.00    +0.000 A 
ATOM     30  N   UNL     1       7.355   5.241  13.422  0.00  0.00    +0.000 NA
ATOM     31  H   UNL     1       6.217   2.426  12.464  0.00  0.00    +0.000 HD
ENDBRANCH  23  26
ENDBRANCH  20  23
ENDBRANCH   2  17
TORSDOF 7
ENDMDL
MODEL 4
REMARK VINA RESULT:      -8.1      1.849      2.963
REMARK  Name = 
REMARK  10 active torsions:
REMARK  status: ('A' for Active; 'I' for Inactive)
REMARK    1  A    between atoms: C_1  and  C_2
REMARK    2  A    between atoms: C_2  and  N_3
REMARK    3  A    between atoms: N_3  and  C_4
REMARK    4  A    between atoms: N_3  and  C_6
REMARK    5  A    between atoms: C_4  and  C_5
REMARK    6  A    between atoms: C_9  and  N_10
REMARK    7  A    between atoms: C_11  and  C_13
REMARK    8  A    between atoms: N_16  and  S_17
REMARK    9  A    between atoms: S_17  and  C_20
REMARK   10  A    between atoms: C_27  and  C_28
REMARK                            x       y       z     vdW  Elec       q    Type
REMARK                         _______ _______ _______ _____ _____    ______ ____
ROOT
ATOM      1  N   UNL     1       3.030   6.074  19.727  0.00  0.00    +0.000 N 
ATOM      2  C   UNL     1       2.563   4.818  19.347  0.00  0.00    +0.000 C 
ATOM      3  O   UNL     1       1.387   4.486  19.252  0.00  0.00    +0.000 OA
ATOM      4  H   UNL     1       4.023   6.165  19.886  0.00  0.00    +0.000 HD
ENDROOT
BRANCH   1   8
ATOM      5  C   UNL     1       0.547   9.547  20.181  0.00  0.00    +0.000 A 
ATOM      6  C   UNL     1       0.704   8.608  21.203  0.00  0.00    +0.000 A 
ATOM      7  C   UNL     1       1.530   7.487  21.063  0.00  0.00    +0.000 A 
ATOM      8  C   UNL     1       2.256   7.255  19.894  0.00  0.00    +0.000 A 
ATOM      9  C   UNL     1       2.158   8.207  18.860  0.00  0.00    +0.000 A 
ATOM     10  C   UNL     1       2.880   8.097  17.544  0.00  0.00    +0.000 C 
ATOM     11  C   UNL     1       1.300   9.328  19.020  0.00  0.00    +0.000 A 
BRANCH   5  12
ATOM     12  N   UNL     1      -0.342  10.628  20.281  0.00  0.00    +0.000 N 
BRANCH  12  14
ATOM     13  C   UNL     1      -0.934  12.268  18.493  0.00  0.00    +0.000 C 
ATOM     14  C   UNL     1      -1.193  10.904  19.111  0.00  0.00    +0.000 C 
ENDBRANCH  12  14
BRANCH  12  15
ATOM     15  C   UNL     1      -0.863  10.947  21.623  0.00  0.00    +0.000 C 
ATOM     16  C   UNL     1      -0.500  12.349  22.098  0.00  0.00    +0.000 C 
ENDBRANCH  12  15
ENDBRANCH   5  12
ENDBRANCH   1   8
BRANCH   2  17
ATOM     17  C   UNL     1       3.686   3.812  19.060  0.00  0.00    +0.000 C 
ATOM     18  C   UNL     1       5.073   4.403  19.353  0.00  0.00    +0.000 C 
ATOM     19  C   UNL     1       5.571   5.381  18.289  0.00  0.00    +0.000 C 
ATOM     20  N   UNL     1       5.462   4.789  16.932  0.00  0.00    +0.000 NA
ATOM     21  C   UNL     1       4.091   4.315  16.606  0.00  0.00    +0.000 C 
ATOM     22  C   UNL     1       3.631   3.277  17.628  0.00  0.00    +0.000 C 
BRANCH  20  23
ATOM     23  S   UNL     1       6.143   5.793  15.698  0.00  0.00    +0.000 S 
ATOM     24  O   UNL     1       5.151   6.782  15.317  0.00  0.00    +0.000 OA
ATOM     25  O   UNL     1       7.478   6.184  16.098  0.00  0.00    +0.000 OA
BRANCH  23  26
ATOM     26  C   UNL     1       6.376   4.820  14.257  0.00  0.00    +0.000 A 
ATOM     27  C   UNL     1       7.424   4.899  13.361  0.00  0.00    +0.000 A 
ATOM     28  N   UNL     1       7.129   3.995  12.377  0.00  0.00    +0.000 N 
ATOM     29  C   UNL     1       5.941   3.405  12.698  0.00  0.00    +0.000 A 
ATOM     30  N   UNL     1       5.453   3.877  13.823  0.00  0.00    +0.000 NA
ATOM     31  H   UNL     1       7.687   3.795  11.557  0.00  0.00    +0.000 HD
ENDBRANCH  23  26
ENDBRANCH  20  23
ENDBRANCH   2  17
TORSDOF 7
ENDMDL
MODEL 5
REMARK VINA RESULT:      -8.0      1.823      2.636
REMARK  Name = 
REMARK  10 active torsions:
REMARK  status: ('A' for Active; 'I' for Inactive)
REMARK    1  A    between atoms: C_1  and  C_2
REMARK    2  A    between atoms: C_2  and  N_3
REMARK    3  A    between atoms: N_3  and  C_4
REMARK    4  A    between atoms: N_3  and  C_6
REMARK    5  A    between atoms: C_4  and  C_5
REMARK    6  A    between atoms: C_9  and  N_10
REMARK    7  A    between atoms: C_11  and  C_13
REMARK    8  A    between atoms: N_16  and  S_17
REMARK    9  A    between atoms: S_17  and  C_20
REMARK   10  A    between atoms: C_27  and  C_28
REMARK                            x       y       z     vdW  Elec       q    Type
REMARK                         _______ _______ _______ _____ _____    ______ ____
ROOT
ATOM      1  N   UNL     1       2.706   5.705  19.381  0.00  0.00    +0.000 N 
ATOM      2  C   UNL     1       2.092   4.482  19.645  0.00  0.00    +0.000 C 
ATOM      3  O   UNL     1       1.055   4.319  20.276  0.00  0.00    +0.000 OA
ATOM      4  H   UNL     1       3.623   5.676  18.960  0.00  0.00    +0.000 HD
ENDROOT
BRANCH   1   8
ATOM      5  C   UNL     1       0.907   9.545  20.055  0.00  0.00    +0.000 A 
ATOM      6  C   UNL     1       0.929   8.553  21.038  0.00  0.00    +0.000 A 
ATOM      7  C   UNL     1       1.534   7.308  20.825  0.00  0.00    +0.000 A 
ATOM      8  C   UNL     1       2.164   6.998  19.619  0.00  0.00    +0.000 A 
ATOM      9  C   UNL     1       2.202   7.994  18.623  0.00  0.00    +0.000 A 
ATOM     10  C   UNL     1       2.846   7.810  17.275  0.00  0.00    +0.000 C 
ATOM     11  C   UNL     1       1.567   9.243  18.857  0.00  0.00    +0.000 A 
BRANCH   5  12
ATOM     12  N   UNL     1       0.232  10.762  20.230  0.00  0.00    +0.000 N 
BRANCH  12  14
ATOM     13  C   UNL     1      -0.914  12.167  18.512  0.00  0.00    +0.000 C 
ATOM     14  C   UNL     1      -0.994  10.966  19.439  0.00  0.00    +0.000 C 
ENDBRANCH  12  14
BRANCH  12  15
ATOM     15  C   UNL     1       0.330  11.402  21.555  0.00  0.00    +0.000 C 
ATOM     16  C   UNL     1      -0.995  11.449  22.306  0.00  0.00    +0.000 C 
ENDBRANCH  12  15
ENDBRANCH   5  12
ENDBRANCH   1   8
BRANCH   2  17
ATOM     17  C   UNL     1       2.861   3.281  19.079  0.00  0.00    +0.000 C 
ATOM     18  C   UNL     1       4.262   3.155  19.696  0.00  0.00    +0.000 C 
ATOM     19  C   UNL     1       5.276   4.160  19.150  0.00  0.00    +0.000 C 
ATOM     20  N   UNL     1       5.287   4.150  17.666  0.00  0.00    +0.000 NA
ATOM     21  C   UNL     1       3.947   4.380  17.066  0.00  0.00    +0.000 C 
ATOM     22  C   UNL     1       2.958   3.323  17.553  0.00  0.00    +0.000 C 
BRANCH  20  23
ATOM     23  S   UNL     1       6.516   5.164  16.989  0.00  0.00    +0.000 S 
ATOM     24  O   UNL     1       6.036   6.533  17.007  0.00  0.00    +0.000 OA
ATOM     25  O   UNL     1       7.790   4.806  17.575  0.00  0.00    +0.000 OA
BRANCH  23  26
ATOM     26  C   UNL     1       6.682   4.773  15.287  0.00  0.00    +0.000 A 
ATOM     27  C   UNL     1       6.071   3.736  14.610  0.00  0.00    +0.000 A 
ATOM     28  N   UNL     1       6.560   3.799  13.333  0.00  0.00    +0.000 N 
ATOM     29  C   UNL     1       7.430   4.849  13.273  0.00  0.00    +0.000 A 
ATOM     30  N   UNL     1       7.533   5.461  14.432  0.00  0.00    +0.000 NA
ATOM     31  H   UNL     1       6.324   3.181  12.567  0.00  0.00    +0.000 HD
ENDBRANCH  23  26
ENDBRANCH  20  23
ENDBRANCH   2  17
TORSDOF 7
ENDMDL
MODEL 6
REMARK VINA RESULT:      -8.0      1.002      1.948
REMARK  Name = 
REMARK  10 active torsions:
REMARK  status: ('A' for Active; 'I' for Inactive)
REMARK    1  A    between atoms: C_1  and  C_2
REMARK    2  A    between atoms: C_2  and  N_3
REMARK    3  A    between atoms: N_3  and  C_4
REMARK    4  A    between atoms: N_3  and  C_6
REMARK    5  A    between atoms: C_4  and  C_5
REMARK    6  A    between atoms: C_9  and  N_10
REMARK    7  A    between atoms: C_11  and  C_13
REMARK    8  A    between atoms: N_16  and  S_17
REMARK    9  A    between atoms: S_17  and  C_20
REMARK   10  A    between atoms: C_27  and  C_28
REMARK                            x       y       z     vdW  Elec       q    Type
REMARK                         _______ _______ _______ _____ _____    ______ ____
ROOT
ATOM      1  N   UNL     1       2.873   6.180  19.203  0.00  0.00    +0.000 N 
ATOM      2  C   UNL     1       2.299   4.934  18.958  0.00  0.00    +0.000 C 
ATOM      3  O   UNL     1       1.112   4.718  18.745  0.00  0.00    +0.000 OA
ATOM      4  H   UNL     1       3.841   6.190  19.490  0.00  0.00    +0.000 HD
ENDROOT
BRANCH   1   8
ATOM      5  C   UNL     1       1.129  10.086  18.838  0.00  0.00    +0.000 A 
ATOM      6  C   UNL     1       1.819   9.480  17.785  0.00  0.00    +0.000 A 
ATOM      7  C   UNL     1       2.370   8.198  17.898  0.00  0.00    +0.000 A 
ATOM      8  C   UNL     1       2.244   7.447  19.068  0.00  0.00    +0.000 A 
ATOM      9  C   UNL     1       1.511   8.010  20.133  0.00  0.00    +0.000 A 
ATOM     10  C   UNL     1       1.287   7.323  21.453  0.00  0.00    +0.000 C 
ATOM     11  C   UNL     1       0.976   9.319  20.000  0.00  0.00    +0.000 A 
BRANCH   5  12
ATOM     12  N   UNL     1       0.646  11.401  18.763  0.00  0.00    +0.000 N 
BRANCH  12  14
ATOM     13  C   UNL     1      -1.589  10.832  17.804  0.00  0.00    +0.000 C 
ATOM     14  C   UNL     1      -0.811  11.584  18.871  0.00  0.00    +0.000 C 
ENDBRANCH  12  14
BRANCH  12  15
ATOM     15  C   UNL     1       1.530  12.472  19.259  0.00  0.00    +0.000 C 
ATOM     16  C   UNL     1       1.953  13.460  18.179  0.00  0.00    +0.000 C 
ENDBRANCH  12  15
ENDBRANCH   5  12
ENDBRANCH   1   8
BRANCH   2  17
ATOM     17  C   UNL     1       3.310   3.780  19.000  0.00  0.00    +0.000 C 
ATOM     18  C   UNL     1       4.632   4.200  19.658  0.00  0.00    +0.000 C 
ATOM     19  C   UNL     1       5.529   5.056  18.764  0.00  0.00    +0.000 C 
ATOM     20  N   UNL     1       5.712   4.422  17.434  0.00  0.00    +0.000 NA
ATOM     21  C   UNL     1       4.430   4.113  16.748  0.00  0.00    +0.000 C 
ATOM     22  C   UNL     1       3.573   3.191  17.613  0.00  0.00    +0.000 C 
BRANCH  20  23
ATOM     23  S   UNL     1       6.833   5.272  16.426  0.00  0.00    +0.000 S 
ATOM     24  O   UNL     1       7.946   4.387  16.136  0.00  0.00    +0.000 OA
ATOM     25  O   UNL     1       6.100   5.931  15.366  0.00  0.00    +0.000 OA
BRANCH  23  26
ATOM     26  C   UNL     1       7.538   6.579  17.361  0.00  0.00    +0.000 A 
ATOM     27  C   UNL     1       8.146   6.481  18.597  0.00  0.00    +0.000 A 
ATOM     28  N   UNL     1       8.469   7.765  18.945  0.00  0.00    +0.000 N 
ATOM     29  C   UNL     1       8.059   8.584  17.933  0.00  0.00    +0.000 A 
ATOM     30  N   UNL     1       7.490   7.908  16.961  0.00  0.00    +0.000 NA
ATOM     31  H   UNL     1       8.928   8.061  19.797  0.00  0.00    +0.000 HD
ENDBRANCH  23  26
ENDBRANCH  20  23
ENDBRANCH   2  17
TORSDOF 7
ENDMDL
MODEL 7
REMARK VINA RESULT:      -7.9      4.399      9.875
REMARK  Name = 
REMARK  10 active torsions:
REMARK  status: ('A' for Active; 'I' for Inactive)
REMARK    1  A    between atoms: C_1  and  C_2
REMARK    2  A    between atoms: C_2  and  N_3
REMARK    3  A    between atoms: N_3  and  C_4
REMARK    4  A    between atoms: N_3  and  C_6
REMARK    5  A    between atoms: C_4  and  C_5
REMARK    6  A    between atoms: C_9  and  N_10
REMARK    7  A    between atoms: C_11  and  C_13
REMARK    8  A    between atoms: N_16  and  S_17
REMARK    9  A    between atoms: S_17  and  C_20
REMARK   10  A    between atoms: C_27  and  C_28
REMARK                            x       y       z     vdW  Elec       q    Type
REMARK                         _______ _______ _______ _____ _____    ______ ____
ROOT
ATOM      1  N   UNL     1       0.626  10.763  18.698  0.00  0.00    +0.000 N 
ATOM      2  C   UNL     1      -0.699  10.921  18.295  0.00  0.00    +0.000 C 
ATOM      3  O   UNL     1      -1.421  10.043  17.839  0.00  0.00    +0.000 OA
ATOM      4  H   UNL     1       1.136  11.603  18.933  0.00  0.00    +0.000 HD
ENDROOT
BRANCH   1   8
ATOM      5  C   UNL     1       2.623   6.978  19.039  0.00  0.00    +0.000 A 
ATOM      6  C   UNL     1       2.710   7.761  17.886  0.00  0.00    +0.000 A 
ATOM      7  C   UNL     1       2.076   9.005  17.782  0.00  0.00    +0.000 A 
ATOM      8  C   UNL     1       1.333   9.538  18.837  0.00  0.00    +0.000 A 
ATOM      9  C   UNL     1       1.264   8.795  20.033  0.00  0.00    +0.000 A 
ATOM     10  C   UNL     1       0.506   9.238  21.255  0.00  0.00    +0.000 C 
ATOM     11  C   UNL     1       1.903   7.528  20.107  0.00  0.00    +0.000 A 
BRANCH   5  12
ATOM     12  N   UNL     1       3.185   5.695  19.121  0.00  0.00    +0.000 N 
BRANCH  12  14
ATOM     13  C   UNL     1       1.610   4.116  17.996  0.00  0.00    +0.000 C 
ATOM     14  C   UNL     1       2.253   4.568  19.296  0.00  0.00    +0.000 C 
ENDBRANCH  12  14
BRANCH  12  15
ATOM     15  C   UNL     1       4.442   5.463  18.386  0.00  0.00    +0.000 C 
ATOM     16  C   UNL     1       5.339   4.414  19.033  0.00  0.00    +0.000 C 
ENDBRANCH  12  15
ENDBRANCH   5  12
ENDBRANCH   1   8
BRANCH   2  17
ATOM     17  C   UNL     1      -1.215  12.357  18.449  0.00  0.00    +0.000 C 
ATOM     18  C   UNL     1      -0.190  13.263  19.149  0.00  0.00    +0.000 C 
ATOM     19  C   UNL     1      -0.100  13.050  20.660  0.00  0.00    +0.000 C 
ATOM     20  N   UNL     1      -1.446  13.099  21.283  0.00  0.00    +0.000 NA
ATOM     21  C   UNL     1      -2.410  12.144  20.677  0.00  0.00    +0.000 C 
ATOM     22  C   UNL     1      -2.557  12.414  19.181  0.00  0.00    +0.000 C 
BRANCH  20  23
ATOM     23  S   UNL     1      -1.396  13.008  23.011  0.00  0.00    +0.000 S 
ATOM     24  O   UNL     1      -0.979  11.669  23.384  0.00  0.00    +0.000 OA
ATOM     25  O   UNL     1      -0.712  14.178  23.520  0.00  0.00    +0.000 OA
BRANCH  23  26
ATOM     26  C   UNL     1      -3.035  13.149  23.620  0.00  0.00    +0.000 A 
ATOM     27  C   UNL     1      -3.752  14.313  23.815  0.00  0.00    +0.000 A 
ATOM     28  N   UNL     1      -4.942  13.919  24.365  0.00  0.00    +0.000 N 
ATOM     29  C   UNL     1      -4.914  12.560  24.484  0.00  0.00    +0.000 A 
ATOM     30  N   UNL     1      -3.781  12.057  24.048  0.00  0.00    +0.000 NA
ATOM     31  H   UNL     1      -5.708  14.522  24.638  0.00  0.00    +0.000 HD
ENDBRANCH  23  26
ENDBRANCH  20  23
ENDBRANCH   2  17
TORSDOF 7
ENDMDL
MODEL 8
REMARK VINA RESULT:      -7.8      1.941      2.564
REMARK  Name = 
REMARK  10 active torsions:
REMARK  status: ('A' for Active; 'I' for Inactive)
REMARK    1  A    between atoms: C_1  and  C_2
REMARK    2  A    between atoms: C_2  and  N_3
REMARK    3  A    between atoms: N_3  and  C_4
REMARK    4  A    between atoms: N_3  and  C_6
REMARK    5  A    between atoms: C_4  and  C_5
REMARK    6  A    between atoms: C_9  and  N_10
REMARK    7  A    between atoms: C_11  and  C_13
REMARK    8  A    between atoms: N_16  and  S_17
REMARK    9  A    between atoms: S_17  and  C_20
REMARK   10  A    between atoms: C_27  and  C_28
REMARK                            x       y       z     vdW  Elec       q    Type
REMARK                         _______ _______ _______ _____ _____    ______ ____
ROOT
ATOM      1  N   UNL     1       2.491   5.868  19.457  0.00  0.00    +0.000 N 
ATOM      2  C   UNL     1       1.834   4.692  19.813  0.00  0.00    +0.000 C 
ATOM      3  O   UNL     1       0.849   4.608  20.537  0.00  0.00    +0.000 OA
ATOM      4  H   UNL     1       3.364   5.772  18.959  0.00  0.00    +0.000 HD
ENDROOT
BRANCH   1   8
ATOM      5  C   UNL     1       0.987   9.828  20.155  0.00  0.00    +0.000 A 
ATOM      6  C   UNL     1       0.968   8.842  21.144  0.00  0.00    +0.000 A 
ATOM      7  C   UNL     1       1.477   7.557  20.923  0.00  0.00    +0.000 A 
ATOM      8  C   UNL     1       2.048   7.197  19.702  0.00  0.00    +0.000 A 
ATOM      9  C   UNL     1       2.128   8.182  18.697  0.00  0.00    +0.000 A 
ATOM     10  C   UNL     1       2.717   7.946  17.333  0.00  0.00    +0.000 C 
ATOM     11  C   UNL     1       1.589   9.474  18.941  0.00  0.00    +0.000 A 
BRANCH   5  12
ATOM     12  N   UNL     1       0.404  11.092  20.340  0.00  0.00    +0.000 N 
BRANCH  12  14
ATOM     13  C   UNL     1      -1.908  11.984  20.027  0.00  0.00    +0.000 C 
ATOM     14  C   UNL     1      -0.973  11.122  20.860  0.00  0.00    +0.000 C 
ENDBRANCH  12  14
BRANCH  12  15
ATOM     15  C   UNL     1       1.309  12.207  20.674  0.00  0.00    +0.000 C 
ATOM     16  C   UNL     1       1.623  13.111  19.488  0.00  0.00    +0.000 C 
ENDBRANCH  12  15
ENDBRANCH   5  12
ENDBRANCH   1   8
BRANCH   2  17
ATOM     17  C   UNL     1       2.478   3.432  19.219  0.00  0.00    +0.000 C 
ATOM     18  C   UNL     1       3.819   3.104  19.891  0.00  0.00    +0.000 C 
ATOM     19  C   UNL     1       4.975   3.999  19.445  0.00  0.00    +0.000 C 
ATOM     20  N   UNL     1       5.060   4.056  17.964  0.00  0.00    +0.000 NA
ATOM     21  C   UNL     1       3.791   4.480  17.318  0.00  0.00    +0.000 C 
ATOM     22  C   UNL     1       2.656   3.533  17.704  0.00  0.00    +0.000 C 
BRANCH  20  23
ATOM     23  S   UNL     1       6.437   4.940  17.398  0.00  0.00    +0.000 S 
ATOM     24  O   UNL     1       6.143   6.357  17.505  0.00  0.00    +0.000 OA
ATOM     25  O   UNL     1       7.630   4.372  17.989  0.00  0.00    +0.000 OA
BRANCH  23  26
ATOM     26  C   UNL     1       6.610   4.651  15.676  0.00  0.00    +0.000 A 
ATOM     27  C   UNL     1       6.013   3.648  14.938  0.00  0.00    +0.000 A 
ATOM     28  N   UNL     1       6.504   3.791  13.668  0.00  0.00    +0.000 N 
ATOM     29  C   UNL     1       7.362   4.853  13.672  0.00  0.00    +0.000 A 
ATOM     30  N   UNL     1       7.455   5.397  14.864  0.00  0.00    +0.000 NA
ATOM     31  H   UNL     1       6.277   3.216  12.867  0.00  0.00    +0.000 HD
ENDBRANCH  23  26
ENDBRANCH  20  23
ENDBRANCH   2  17
TORSDOF 7
ENDMDL
MODEL 9
REMARK VINA RESULT:      -7.8      1.426      2.207
REMARK  Name = 
REMARK  10 active torsions:
REMARK  status: ('A' for Active; 'I' for Inactive)
REMARK    1  A    between atoms: C_1  and  C_2
REMARK    2  A    between atoms: C_2  and  N_3
REMARK    3  A    between atoms: N_3  and  C_4
REMARK    4  A    between atoms: N_3  and  C_6
REMARK    5  A    between atoms: C_4  and  C_5
REMARK    6  A    between atoms: C_9  and  N_10
REMARK    7  A    between atoms: C_11  and  C_13
REMARK    8  A    between atoms: N_16  and  S_17
REMARK    9  A    between atoms: S_17  and  C_20
REMARK   10  A    between atoms: C_27  and  C_28
REMARK                            x       y       z     vdW  Elec       q    Type
REMARK                         _______ _______ _______ _____ _____    ______ ____
ROOT
ATOM      1  N   UNL     1       2.492   6.362  19.404  0.00  0.00    +0.000 N 
ATOM      2  C   UNL     1       2.276   5.284  18.547  0.00  0.00    +0.000 C 
ATOM      3  O   UNL     1       1.537   5.279  17.570  0.00  0.00    +0.000 OA
ATOM      4  H   UNL     1       3.027   6.182  20.241  0.00  0.00    +0.000 HD
ENDROOT
BRANCH   1   8
ATOM      5  C   UNL     1       1.341  10.465  18.878  0.00  0.00    +0.000 A 
ATOM      6  C   UNL     1       2.019   9.751  17.887  0.00  0.00    +0.000 A 
ATOM      7  C   UNL     1       2.376   8.407  18.051  0.00  0.00    +0.000 A 
ATOM      8  C   UNL     1       2.057   7.702  19.212  0.00  0.00    +0.000 A 
ATOM      9  C   UNL     1       1.331   8.378  20.212  0.00  0.00    +0.000 A 
ATOM     10  C   UNL     1       0.913   7.751  21.516  0.00  0.00    +0.000 C 
ATOM     11  C   UNL     1       0.994   9.746  20.030  0.00  0.00    +0.000 A 
BRANCH   5  12
ATOM     12  N   UNL     1       1.053  11.833  18.757  0.00  0.00    +0.000 N 
BRANCH  12  14
ATOM     13  C   UNL     1       2.618  13.714  19.258  0.00  0.00    +0.000 C 
ATOM     14  C   UNL     1       2.127  12.698  18.241  0.00  0.00    +0.000 C 
ENDBRANCH  12  14
BRANCH  12  15
ATOM     15  C   UNL     1      -0.347  12.203  18.478  0.00  0.00    +0.000 C 
ATOM     16  C   UNL     1      -0.990  13.027  19.587  0.00  0.00    +0.000 C 
ENDBRANCH  12  15
ENDBRANCH   5  12
ENDBRANCH   1   8
BRANCH   2  17
ATOM     17  C   UNL     1       3.053   4.024  18.948  0.00  0.00    +0.000 C 
ATOM     18  C   UNL     1       4.241   4.350  19.865  0.00  0.00    +0.000 C 
ATOM     19  C   UNL     1       5.442   4.954  19.137  0.00  0.00    +0.000 C 
ATOM     20  N   UNL     1       5.819   4.130  17.962  0.00  0.00    +0.000 NA
ATOM     21  C   UNL     1       4.694   3.904  17.017  0.00  0.00    +0.000 C 
ATOM     22  C   UNL     1       3.527   3.226  17.732  0.00  0.00    +0.000 C 
BRANCH  20  23
ATOM     23  S   UNL     1       7.261   4.684  17.180  0.00  0.00    +0.000 S 
ATOM     24  O   UNL     1       8.397   4.041  17.812  0.00  0.00    +0.000 OA
ATOM     25  O   UNL     1       7.066   4.625  15.746  0.00  0.00    +0.000 OA
BRANCH  23  26
ATOM     26  C   UNL     1       7.462   6.390  17.534  0.00  0.00    +0.000 A 
ATOM     27  C   UNL     1       6.926   7.453  16.833  0.00  0.00    +0.000 A 
ATOM     28  N   UNL     1       7.417   8.574  17.444  0.00  0.00    +0.000 N 
ATOM     29  C   UNL     1       8.215   8.170  18.474  0.00  0.00    +0.000 A 
ATOM     30  N   UNL     1       8.271   6.860  18.561  0.00  0.00    +0.000 NA
ATOM     31  H   UNL     1       7.227   9.534  17.183  0.00  0.00    +0.000 HD
ENDBRANCH  23  26
ENDBRANCH  20  23
ENDBRANCH   2  17
TORSDOF 7
ENDMDL
