MODEL 1
REMARK VINA RESULT:      -7.7      0.000      0.000
REMARK  Name = 
REMARK  12 active torsions:
REMARK  status: ('A' for Active; 'I' for Inactive)
REMARK    1  A    between atoms: C_1  and  C_2
REMARK    2  A    between atoms: C_2  and  O_3
REMARK    3  A    between atoms: O_3  and  C_4
REMARK    4  A    between atoms: C_6  and  C_7
REMARK    5  A    between atoms: N_11  and  C_12
REMARK    6  A    between atoms: C_15  and  N_16
REMARK    7  A    between atoms: C_21  and  C_22
REMARK    8  A    between atoms: N_25  and  C_26
REMARK    9  A    between atoms: C_26  and  C_27
REMARK   10  A    between atoms: C_27  and  C_28
REMARK   11  A    between atoms: C_27  and  C_29
REMARK   12  A    between atoms: C_27  and  O_30
REMARK                            x       y       z     vdW  Elec       q    Type
REMARK                         _______ _______ _______ _____ _____    ______ ____
ROOT
ATOM      1  N   UNL     1       0.995  10.619  18.316  0.00  0.00    +0.000 N 
ATOM      2  C   UNL     1       1.331   9.325  18.834  0.00  0.00    +0.000 A 
ATOM      3  C   UNL     1       1.789   8.469  17.838  0.00  0.00    +0.000 A 
ATOM      4  C   UNL     1       2.559   7.373  18.180  0.00  0.00    +0.000 A 
ATOM      5  C   UNL     1       3.439   6.863  17.226  0.00  0.00    +0.000 A 
ATOM      6  C   UNL     1       4.294   5.797  17.503  0.00  0.00    +0.000 A 
ATOM      7  C   UNL     1       4.101   5.125  18.717  0.00  0.00    +0.000 A 
ATOM      8  C   UNL     1       3.245   5.663  19.705  0.00  0.00    +0.000 A 
ATOM      9  C   UNL     1       2.550   6.882  19.478  0.00  0.00    +0.000 A 
ATOM     10  C   UNL     1       1.882   7.707  20.414  0.00  0.00    +0.000 A 
ATOM     11  N   UNL     1       1.340   8.941  20.126  0.00  0.00    +0.000 NA
ATOM     12  H   UNL     1       1.687  10.788  17.586  0.00  0.00    +0.000 HD
ENDROOT
BRANCH   1  18
ATOM     13  C   UNL     1      -0.370  12.636  18.669  0.00  0.00    +0.000 A 
ATOM     14  C   UNL     1      -0.481  13.948  19.162  0.00  0.00    +0.000 A 
ATOM     15  C   UNL     1       0.523  14.511  19.959  0.00  0.00    +0.000 A 
ATOM     16  C   UNL     1       1.593  13.692  20.336  0.00  0.00    +0.000 A 
ATOM     17  C   UNL     1       1.739  12.401  19.821  0.00  0.00    +0.000 A 
ATOM     18  C   UNL     1       0.806  11.880  18.922  0.00  0.00    +0.000 A 
BRANCH  15  19
ATOM     19  C   UNL     1       0.436  15.919  20.348  0.00  0.00    +0.000 A 
ATOM     20  N   UNL     1       1.181  16.906  19.866  0.00  0.00    +0.000 NA
ATOM     21  N   UNL     1       0.850  18.075  20.514  0.00  0.00    +0.000 NA
ATOM     22  C   UNL     1      -0.074  17.788  21.395  0.00  0.00    +0.000 A 
ATOM     23  N   UNL     1      -0.367  16.459  21.333  0.00  0.00    +0.000 N 
ATOM     24  C   UNL     1      -1.283  15.779  22.210  0.00  0.00    +0.000 C 
ENDBRANCH  15  19
BRANCH  13  25
ATOM     25  O   UNL     1      -1.416  12.289  17.853  0.00  0.00    +0.000 OA
BRANCH  25  27
ATOM     26  C   UNL     1      -2.456  10.114  17.946  0.00  0.00    +0.000 C 
ATOM     27  C   UNL     1      -2.518  11.563  18.402  0.00  0.00    +0.000 C 
ENDBRANCH  25  27
ENDBRANCH  13  25
ENDBRANCH   1  18
BRANCH   6  28
ATOM     28  C   UNL     1       5.396   5.539  16.576  0.00  0.00    +0.000 A 
ATOM     29  C   UNL     1       6.653   4.921  16.827  0.00  0.00    +0.000 A 
ATOM     30  N   UNL     1       7.359   4.690  15.721  0.00  0.00    +0.000 NA
ATOM     31  N   UNL     1       6.555   5.131  14.740  0.00  0.00    +0.000 N 
ATOM     32  C   UNL     1       5.378   5.664  15.202  0.00  0.00    +0.000 A 
BRANCH  31  33
ATOM     33  C   UNL     1       6.931   4.887  13.359  0.00  0.00    +0.000 C 
BRANCH  33  34
ATOM     34  C   UNL     1       6.282   3.641  12.727  0.00  0.00    +0.000 C 
ATOM     35  C   UNL     1       4.948   3.927  12.030  0.00  0.00    +0.000 C 
ATOM     36  C   UNL     1       7.262   3.048  11.705  0.00  0.00    +0.000 C 
BRANCH  34  37
ATOM     37  O   UNL     1       6.077   2.632  13.724  0.00  0.00    +0.000 OA
ATOM     38  H   UNL     1       6.792   1.975  13.631  0.00  0.00    +0.000 HD
ENDBRANCH  34  37
ENDBRANCH  33  34
ENDBRANCH  31  33
ENDBRANCH   6  28
TORSDOF 8
ENDMDL
MODEL 2
REMARK VINA RESULT:      -7.5      3.482     11.982
REMARK  Name = 
REMARK  12 active torsions:
REMARK  status: ('A' for Active; 'I' for Inactive)
REMARK    1  A    between atoms: C_1  and  C_2
REMARK    2  A    between atoms: C_2  and  O_3
REMARK    3  A    between atoms: O_3  and  C_4
REMARK    4  A    between atoms: C_6  and  C_7
REMARK    5  A    between atoms: N_11  and  C_12
REMARK    6  A    between atoms: C_15  and  N_16
REMARK    7  A    between atoms: C_21  and  C_22
REMARK    8  A    between atoms: N_25  and  C_26
REMARK    9  A    between atoms: C_26  and  C_27
REMARK   10  A    between atoms: C_27  and  C_28
REMARK   11  A    between atoms: C_27  and  C_29
REMARK   12  A    between atoms: C_27  and  O_30
REMARK                            x       y       z     vdW  Elec       q    Type
REMARK                         _______ _______ _______ _____ _____    ______ ____
ROOT
ATOM      1  N   UNL     1       1.228   8.502  18.522  0.00  0.00    +0.000 N 
ATOM      2  C   UNL     1       1.044   9.922  18.554  0.00  0.00    +0.000 A 
ATOM      3  C   UNL     1      -0.184  10.276  19.104  0.00  0.00    +0.000 A 
ATOM      4  C   UNL     1      -0.361  11.546  19.621  0.00  0.00    +0.000 A 
ATOM      5  C   UNL     1      -1.322  11.724  20.616  0.00  0.00    +0.000 A 
ATOM      6  C   UNL     1      -1.527  12.957  21.234  0.00  0.00    +0.000 A 
ATOM      7  C   UNL     1      -0.868  14.063  20.682  0.00  0.00    +0.000 A 
ATOM      8  C   UNL     1       0.139  13.883  19.707  0.00  0.00    +0.000 A 
ATOM      9  C   UNL     1       0.487  12.582  19.253  0.00  0.00    +0.000 A 
ATOM     10  C   UNL     1       1.620  12.178  18.509  0.00  0.00    +0.000 A 
ATOM     11  N   UNL     1       1.943  10.870  18.219  0.00  0.00    +0.000 NA
ATOM     12  H   UNL     1       0.783   8.168  19.378  0.00  0.00    +0.000 HD
ENDROOT
BRANCH   1  18
ATOM     13  C   UNL     1       2.570   6.563  19.226  0.00  0.00    +0.000 A 
ATOM     14  C   UNL     1       3.775   5.841  19.162  0.00  0.00    +0.000 A 
ATOM     15  C   UNL     1       4.765   6.162  18.226  0.00  0.00    +0.000 A 
ATOM     16  C   UNL     1       4.476   7.157  17.286  0.00  0.00    +0.000 A 
ATOM     17  C   UNL     1       3.302   7.912  17.361  0.00  0.00    +0.000 A 
ATOM     18  C   UNL     1       2.367   7.681  18.373  0.00  0.00    +0.000 A 
BRANCH  15  19
ATOM     19  C   UNL     1       6.057   5.477  18.272  0.00  0.00    +0.000 A 
ATOM     20  N   UNL     1       6.935   5.538  19.265  0.00  0.00    +0.000 NA
ATOM     21  N   UNL     1       8.052   4.811  18.921  0.00  0.00    +0.000 NA
ATOM     22  C   UNL     1       7.855   4.331  17.720  0.00  0.00    +0.000 A 
ATOM     23  N   UNL     1       6.629   4.718  17.270  0.00  0.00    +0.000 N 
ATOM     24  C   UNL     1       6.110   4.437  15.958  0.00  0.00    +0.000 C 
ENDBRANCH  15  19
BRANCH  13  25
ATOM     25  O   UNL     1       1.759   6.146  20.250  0.00  0.00    +0.000 OA
BRANCH  25  27
ATOM     26  C   UNL     1       2.067   4.048  21.401  0.00  0.00    +0.000 C 
ATOM     27  C   UNL     1       1.332   4.783  20.291  0.00  0.00    +0.000 C 
ENDBRANCH  25  27
ENDBRANCH  13  25
ENDBRANCH   1  18
BRANCH   6  28
ATOM     28  C   UNL     1      -2.307  12.986  22.472  0.00  0.00    +0.000 A 
ATOM     29  C   UNL     1      -2.121  13.790  23.631  0.00  0.00    +0.000 A 
ATOM     30  N   UNL     1      -3.114  13.684  24.513  0.00  0.00    +0.000 NA
ATOM     31  N   UNL     1      -3.967  12.833  23.921  0.00  0.00    +0.000 N 
ATOM     32  C   UNL     1      -3.521  12.373  22.708  0.00  0.00    +0.000 A 
BRANCH  31  33
ATOM     33  C   UNL     1      -5.266  12.604  24.528  0.00  0.00    +0.000 C 
BRANCH  33  34
ATOM     34  C   UNL     1      -6.420  13.405  23.896  0.00  0.00    +0.000 C 
ATOM     35  C   UNL     1      -6.041  14.843  23.526  0.00  0.00    +0.000 C 
ATOM     36  C   UNL     1      -6.886  12.671  22.632  0.00  0.00    +0.000 C 
BRANCH  34  37
ATOM     37  O   UNL     1      -7.544  13.435  24.785  0.00  0.00    +0.000 OA
ATOM     38  H   UNL     1      -7.438  12.704  25.421  0.00  0.00    +0.000 HD
ENDBRANCH  34  37
ENDBRANCH  33  34
ENDBRANCH  31  33
ENDBRANCH   6  28
TORSDOF 8
ENDMDL
MODEL 3
REMARK VINA RESULT:      -7.4      2.919     12.235
REMARK  Name = 
REMARK  12 active torsions:
REMARK  status: ('A' for Active; 'I' for Inactive)
REMARK    1  A    between atoms: C_1  and  C_2
REMARK    2  A    between atoms: C_2  and  O_3
REMARK    3  A    between atoms: O_3  and  C_4
REMARK    4  A    between atoms: C_6  and  C_7
REMARK    5  A    between atoms: N_11  and  C_12
REMARK    6  A    between atoms: C_15  and  N_16
REMARK    7  A    between atoms: C_21  and  C_22
REMARK    8  A    between atoms: N_25  and  C_26
REMARK    9  A    between atoms: C_26  and  C_27
REMARK   10  A    between atoms: C_27  and  C_28
REMARK   11  A    between atoms: C_27  and  C_29
REMARK   12  A    between atoms: C_27  and  O_30
REMARK                            x       y       z     vdW  Elec       q    Type
REMARK                         _______ _______ _______ _____ _____    ______ ____
ROOT
ATOM      1  N   UNL     1       1.416   7.998  20.036  0.00  0.00    +0.000 N 
ATOM      2  C   UNL     1       0.528   9.038  19.606  0.00  0.00    +0.000 A 
ATOM      3  C   UNL     1      -0.028   9.726  20.680  0.00  0.00    +0.000 A 
ATOM      4  C   UNL     1      -0.533  10.998  20.488  0.00  0.00    +0.000 A 
ATOM      5  C   UNL     1      -0.572  11.863  21.582  0.00  0.00    +0.000 A 
ATOM      6  C   UNL     1      -1.011  13.181  21.467  0.00  0.00    +0.000 A 
ATOM      7  C   UNL     1      -1.601  13.552  20.252  0.00  0.00    +0.000 A 
ATOM      8  C   UNL     1      -1.525  12.698  19.129  0.00  0.00    +0.000 A 
ATOM      9  C   UNL     1      -0.868  11.440  19.216  0.00  0.00    +0.000 A 
ATOM     10  C   UNL     1      -0.453  10.585  18.168  0.00  0.00    +0.000 A 
ATOM     11  N   UNL     1       0.293   9.438  18.340  0.00  0.00    +0.000 NA
ATOM     12  H   UNL     1       1.872   8.381  20.865  0.00  0.00    +0.000 HD
ENDROOT
BRANCH   1  18
ATOM     13  C   UNL     1       2.778   5.960  19.823  0.00  0.00    +0.000 A 
ATOM     14  C   UNL     1       3.883   5.300  19.257  0.00  0.00    +0.000 A 
ATOM     15  C   UNL     1       4.617   5.877  18.214  0.00  0.00    +0.000 A 
ATOM     16  C   UNL     1       4.155   7.086  17.681  0.00  0.00    +0.000 A 
ATOM     17  C   UNL     1       3.085   7.775  18.259  0.00  0.00    +0.000 A 
ATOM     18  C   UNL     1       2.429   7.265  19.382  0.00  0.00    +0.000 A 
BRANCH  15  19
ATOM     19  C   UNL     1       5.835   5.223  17.736  0.00  0.00    +0.000 A 
ATOM     20  N   UNL     1       6.888   4.903  18.477  0.00  0.00    +0.000 NA
ATOM     21  N   UNL     1       7.859   4.358  17.666  0.00  0.00    +0.000 NA
ATOM     22  C   UNL     1       7.399   4.369  16.441  0.00  0.00    +0.000 A 
ATOM     23  N   UNL     1       6.144   4.899  16.429  0.00  0.00    +0.000 N 
ATOM     24  C   UNL     1       5.365   5.136  15.243  0.00  0.00    +0.000 C 
ENDBRANCH  15  19
BRANCH  13  25
ATOM     25  O   UNL     1       2.234   5.271  20.875  0.00  0.00    +0.000 OA
BRANCH  25  27
ATOM     26  C   UNL     1       1.708   3.022  21.575  0.00  0.00    +0.000 C 
ATOM     27  C   UNL     1       1.384   4.153  20.612  0.00  0.00    +0.000 C 
ENDBRANCH  25  27
ENDBRANCH  13  25
ENDBRANCH   1  18
BRANCH   6  28
ATOM     28  C   UNL     1      -0.717  14.103  22.564  0.00  0.00    +0.000 A 
ATOM     29  C   UNL     1       0.286  15.110  22.646  0.00  0.00    +0.000 A 
ATOM     30  N   UNL     1       0.170  15.885  23.723  0.00  0.00    +0.000 NA
ATOM     31  N   UNL     1      -0.926  15.407  24.335  0.00  0.00    +0.000 N 
ATOM     32  C   UNL     1      -1.481  14.330  23.691  0.00  0.00    +0.000 A 
BRANCH  31  33
ATOM     33  C   UNL     1      -1.463  16.125  25.478  0.00  0.00    +0.000 C 
BRANCH  33  34
ATOM     34  C   UNL     1      -2.289  17.375  25.121  0.00  0.00    +0.000 C 
ATOM     35  C   UNL     1      -3.803  17.161  25.215  0.00  0.00    +0.000 C 
ATOM     36  C   UNL     1      -1.886  18.511  26.072  0.00  0.00    +0.000 C 
BRANCH  34  37
ATOM     37  O   UNL     1      -1.964  17.820  23.798  0.00  0.00    +0.000 OA
ATOM     38  H   UNL     1      -2.689  18.397  23.494  0.00  0.00    +0.000 HD
ENDBRANCH  34  37
ENDBRANCH  33  34
ENDBRANCH  31  33
ENDBRANCH   6  28
TORSDOF 8
ENDMDL
MODEL 4
REMARK VINA RESULT:      -7.4      3.033     12.072
REMARK  Name = 
REMARK  12 active torsions:
REMARK  status: ('A' for Active; 'I' for Inactive)
REMARK    1  A    between atoms: C_1  and  C_2
REMARK    2  A    between atoms: C_2  and  O_3
REMARK    3  A    between atoms: O_3  and  C_4
REMARK    4  A    between atoms: C_6  and  C_7
REMARK    5  A    between atoms: N_11  and  C_12
REMARK    6  A    between atoms: C_15  and  N_16
REMARK    7  A    between atoms: C_21  and  C_22
REMARK    8  A    between atoms: N_25  and  C_26
REMARK    9  A    between atoms: C_26  and  C_27
REMARK   10  A    between atoms: C_27  and  C_28
REMARK   11  A    between atoms: C_27  and  C_29
REMARK   12  A    between atoms: C_27  and  O_30
REMARK                            x       y       z     vdW  Elec       q    Type
REMARK                         _______ _______ _______ _____ _____    ______ ____
ROOT
ATOM      1  N   UNL     1       1.497   8.358  19.899  0.00  0.00    +0.000 N 
ATOM      2  C   UNL     1       0.498   9.347  19.620  0.00  0.00    +0.000 A 
ATOM      3  C   UNL     1       0.214  10.130  20.734  0.00  0.00    +0.000 A 
ATOM      4  C   UNL     1      -0.362  11.376  20.565  0.00  0.00    +0.000 A 
ATOM      5  C   UNL     1      -0.146  12.339  21.550  0.00  0.00    +0.000 A 
ATOM      6  C   UNL     1      -0.639  13.638  21.434  0.00  0.00    +0.000 A 
ATOM      7  C   UNL     1      -1.530  13.890  20.382  0.00  0.00    +0.000 A 
ATOM      8  C   UNL     1      -1.717  12.934  19.358  0.00  0.00    +0.000 A 
ATOM      9  C   UNL     1      -1.022  11.694  19.386  0.00  0.00    +0.000 A 
ATOM     10  C   UNL     1      -0.862  10.746  18.349  0.00  0.00    +0.000 A 
ATOM     11  N   UNL     1      -0.063   9.625  18.425  0.00  0.00    +0.000 NA
ATOM     12  H   UNL     1       2.138   8.820  20.545  0.00  0.00    +0.000 HD
ENDROOT
BRANCH   1  18
ATOM     13  C   UNL     1       2.576   6.208  19.385  0.00  0.00    +0.000 A 
ATOM     14  C   UNL     1       3.520   5.478  18.641  0.00  0.00    +0.000 A 
ATOM     15  C   UNL     1       4.186   6.051  17.551  0.00  0.00    +0.000 A 
ATOM     16  C   UNL     1       3.808   7.340  17.160  0.00  0.00    +0.000 A 
ATOM     17  C   UNL     1       2.903   8.094  17.912  0.00  0.00    +0.000 A 
ATOM     18  C   UNL     1       2.332   7.572  19.075  0.00  0.00    +0.000 A 
BRANCH  15  19
ATOM     19  C   UNL     1       5.254   5.308  16.881  0.00  0.00    +0.000 A 
ATOM     20  N   UNL     1       5.090   4.404  15.924  0.00  0.00    +0.000 NA
ATOM     21  N   UNL     1       6.318   3.882  15.585  0.00  0.00    +0.000 NA
ATOM     22  C   UNL     1       7.213   4.455  16.349  0.00  0.00    +0.000 A 
ATOM     23  N   UNL     1       6.603   5.350  17.175  0.00  0.00    +0.000 N 
ATOM     24  C   UNL     1       7.270   6.106  18.201  0.00  0.00    +0.000 C 
ENDBRANCH  15  19
BRANCH  13  25
ATOM     25  O   UNL     1       2.086   5.501  20.452  0.00  0.00    +0.000 OA
BRANCH  25  27
ATOM     26  C   UNL     1       1.601   3.257  21.196  0.00  0.00    +0.000 C 
ATOM     27  C   UNL     1       1.253   4.364  20.213  0.00  0.00    +0.000 C 
ENDBRANCH  25  27
ENDBRANCH  13  25
ENDBRANCH   1  18
BRANCH   6  28
ATOM     28  C   UNL     1      -0.103  14.662  22.332  0.00  0.00    +0.000 A 
ATOM     29  C   UNL     1       1.178  15.281  22.324  0.00  0.00    +0.000 A 
ATOM     30  N   UNL     1       1.280  16.296  23.180  0.00  0.00    +0.000 NA
ATOM     31  N   UNL     1       0.057  16.364  23.731  0.00  0.00    +0.000 N 
ATOM     32  C   UNL     1      -0.800  15.396  23.270  0.00  0.00    +0.000 A 
BRANCH  31  33
ATOM     33  C   UNL     1      -0.259  17.477  24.607  0.00  0.00    +0.000 C 
BRANCH  33  34
ATOM     34  C   UNL     1       0.178  17.286  26.072  0.00  0.00    +0.000 C 
ATOM     35  C   UNL     1       0.122  18.570  26.905  0.00  0.00    +0.000 C 
ATOM     36  C   UNL     1      -0.733  16.232  26.717  0.00  0.00    +0.000 C 
BRANCH  34  37
ATOM     37  O   UNL     1       1.509  16.756  26.125  0.00  0.00    +0.000 OA
ATOM     38  H   UNL     1       1.591  16.092  25.415  0.00  0.00    +0.000 HD
ENDBRANCH  34  37
ENDBRANCH  33  34
ENDBRANCH  31  33
ENDBRANCH   6  28
TORSDOF 8
ENDMDL
MODEL 5
REMARK VINA RESULT:      -7.3      3.997      6.038
REMARK  Name = 
REMARK  12 active torsions:
REMARK  status: ('A' for Active; 'I' for Inactive)
REMARK    1  A    between atoms: C_1  and  C_2
REMARK    2  A    between atoms: C_2  and  O_3
REMARK    3  A    between atoms: O_3  and  C_4
REMARK    4  A    between atoms: C_6  and  C_7
REMARK    5  A    between atoms: N_11  and  C_12
REMARK    6  A    between atoms: C_15  and  N_16
REMARK    7  A    between atoms: C_21  and  C_22
REMARK    8  A    between atoms: N_25  and  C_26
REMARK    9  A    between atoms: C_26  and  C_27
REMARK   10  A    between atoms: C_27  and  C_28
REMARK   11  A    between atoms: C_27  and  C_29
REMARK   12  A    between atoms: C_27  and  O_30
REMARK                            x       y       z     vdW  Elec       q    Type
REMARK                         _______ _______ _______ _____ _____    ______ ____
ROOT
ATOM      1  N   UNL     1      -0.892  12.031  21.885  0.00  0.00    +0.000 N 
ATOM      2  C   UNL     1      -0.152  11.581  20.744  0.00  0.00    +0.000 A 
ATOM      3  C   UNL     1       0.758  10.582  21.074  0.00  0.00    +0.000 A 
ATOM      4  C   UNL     1       1.227   9.733  20.089  0.00  0.00    +0.000 A 
ATOM      5  C   UNL     1       1.664   8.464  20.467  0.00  0.00    +0.000 A 
ATOM      6  C   UNL     1       2.098   7.523  19.535  0.00  0.00    +0.000 A 
ATOM      7  C   UNL     1       2.268   7.964  18.216  0.00  0.00    +0.000 A 
ATOM      8  C   UNL     1       1.786   9.232  17.818  0.00  0.00    +0.000 A 
ATOM      9  C   UNL     1       1.139  10.089  18.750  0.00  0.00    +0.000 A 
ATOM     10  C   UNL     1       0.363  11.245  18.498  0.00  0.00    +0.000 A 
ATOM     11  N   UNL     1      -0.333  11.947  19.458  0.00  0.00    +0.000 NA
ATOM     12  H   UNL     1      -1.031  11.189  22.446  0.00  0.00    +0.000 HD
ENDROOT
BRANCH   1  18
ATOM     13  C   UNL     1      -2.223  13.758  23.026  0.00  0.00    +0.000 A 
ATOM     14  C   UNL     1      -3.470  14.368  23.253  0.00  0.00    +0.000 A 
ATOM     15  C   UNL     1      -4.587  14.051  22.471  0.00  0.00    +0.000 A 
ATOM     16  C   UNL     1      -4.400  13.184  21.388  0.00  0.00    +0.000 A 
ATOM     17  C   UNL     1      -3.180  12.538  21.174  0.00  0.00    +0.000 A 
ATOM     18  C   UNL     1      -2.097  12.753  22.030  0.00  0.00    +0.000 A 
BRANCH  15  19
ATOM     19  C   UNL     1      -5.896  14.605  22.817  0.00  0.00    +0.000 A 
ATOM     20  N   UNL     1      -6.301  15.847  22.584  0.00  0.00    +0.000 NA
ATOM     21  N   UNL     1      -7.565  16.012  23.103  0.00  0.00    +0.000 NA
ATOM     22  C   UNL     1      -7.911  14.880  23.662  0.00  0.00    +0.000 A 
ATOM     23  N   UNL     1      -6.907  13.972  23.513  0.00  0.00    +0.000 N 
ATOM     24  C   UNL     1      -6.911  12.646  24.070  0.00  0.00    +0.000 C 
ENDBRANCH  15  19
BRANCH  13  25
ATOM     25  O   UNL     1      -1.274  14.145  23.935  0.00  0.00    +0.000 OA
BRANCH  25  27
ATOM     26  C   UNL     1      -0.949  16.398  24.736  0.00  0.00    +0.000 C 
ATOM     27  C   UNL     1      -1.632  15.061  24.972  0.00  0.00    +0.000 C 
ENDBRANCH  25  27
ENDBRANCH  13  25
ENDBRANCH   1  18
BRANCH   6  28
ATOM     28  C   UNL     1       2.225   6.131  19.968  0.00  0.00    +0.000 A 
ATOM     29  C   UNL     1       1.249   5.282  20.559  0.00  0.00    +0.000 A 
ATOM     30  N   UNL     1       1.649   4.017  20.676  0.00  0.00    +0.000 NA
ATOM     31  N   UNL     1       2.878   4.027  20.136  0.00  0.00    +0.000 N 
ATOM     32  C   UNL     1       3.275   5.271  19.715  0.00  0.00    +0.000 A 
BRANCH  31  33
ATOM     33  C   UNL     1       3.570   2.766  19.938  0.00  0.00    +0.000 C 
BRANCH  33  34
ATOM     34  C   UNL     1       3.157   2.000  18.667  0.00  0.00    +0.000 C 
ATOM     35  C   UNL     1       3.163   2.860  17.399  0.00  0.00    +0.000 C 
ATOM     36  C   UNL     1       4.122   0.821  18.475  0.00  0.00    +0.000 C 
BRANCH  34  37
ATOM     37  O   UNL     1       1.852   1.431  18.836  0.00  0.00    +0.000 OA
ATOM     38  H   UNL     1       1.384   1.961  19.507  0.00  0.00    +0.000 HD
ENDBRANCH  34  37
ENDBRANCH  33  34
ENDBRANCH  31  33
ENDBRANCH   6  28
TORSDOF 8
ENDMDL
MODEL 6
REMARK VINA RESULT:      -7.3      1.018      1.112
REMARK  Name = 
REMARK  12 active torsions:
REMARK  status: ('A' for Active; 'I' for Inactive)
REMARK    1  A    between atoms: C_1  and  C_2
REMARK    2  A    between atoms: C_2  and  O_3
REMARK    3  A    between atoms: O_3  and  C_4
REMARK    4  A    between atoms: C_6  and  C_7
REMARK    5  A    between atoms: N_11  and  C_12
REMARK    6  A    between atoms: C_15  and  N_16
REMARK    7  A    between atoms: C_21  and  C_22
REMARK    8  A    between atoms: N_25  and  C_26
REMARK    9  A    between atoms: C_26  and  C_27
REMARK   10  A    between atoms: C_27  and  C_28
REMARK   11  A    between atoms: C_27  and  C_29
REMARK   12  A    between atoms: C_27  and  O_30
REMARK                            x       y       z     vdW  Elec       q    Type
REMARK                         _______ _______ _______ _____ _____    ______ ____
ROOT
ATOM      1  N   UNL     1       1.223  10.996  18.078  0.00  0.00    +0.000 N 
ATOM      2  C   UNL     1       1.309   9.725  18.735  0.00  0.00    +0.000 A 
ATOM      3  C   UNL     1       1.617   8.700  17.846  0.00  0.00    +0.000 A 
ATOM      4  C   UNL     1       2.169   7.525  18.324  0.00  0.00    +0.000 A 
ATOM      5  C   UNL     1       2.954   6.767  17.456  0.00  0.00    +0.000 A 
ATOM      6  C   UNL     1       3.596   5.600  17.869  0.00  0.00    +0.000 A 
ATOM      7  C   UNL     1       3.265   5.105  19.138  0.00  0.00    +0.000 A 
ATOM      8  C   UNL     1       2.507   5.890  20.036  0.00  0.00    +0.000 A 
ATOM      9  C   UNL     1       2.050   7.184  19.664  0.00  0.00    +0.000 A 
ATOM     10  C   UNL     1       1.531   8.210  20.488  0.00  0.00    +0.000 A 
ATOM     11  N   UNL     1       1.228   9.484  20.059  0.00  0.00    +0.000 NA
ATOM     12  H   UNL     1       1.945  10.960  17.358  0.00  0.00    +0.000 HD
ENDROOT
BRANCH   1  18
ATOM     13  C   UNL     1       0.085  13.129  18.539  0.00  0.00    +0.000 A 
ATOM     14  C   UNL     1       0.165  14.492  18.872  0.00  0.00    +0.000 A 
ATOM     15  C   UNL     1       1.374  15.071  19.276  0.00  0.00    +0.000 A 
ATOM     16  C   UNL     1       2.479  14.229  19.439  0.00  0.00    +0.000 A 
ATOM     17  C   UNL     1       2.428  12.881  19.072  0.00  0.00    +0.000 A 
ATOM     18  C   UNL     1       1.258  12.327  18.547  0.00  0.00    +0.000 A 
BRANCH  15  19
ATOM     19  C   UNL     1       1.450  16.517  19.490  0.00  0.00    +0.000 A 
ATOM     20  N   UNL     1       2.206  17.366  18.805  0.00  0.00    +0.000 NA
ATOM     21  N   UNL     1       2.054  18.628  19.333  0.00  0.00    +0.000 NA
ATOM     22  C   UNL     1       1.227  18.535  20.343  0.00  0.00    +0.000 A 
ATOM     23  N   UNL     1       0.822  17.242  20.484  0.00  0.00    +0.000 N 
ATOM     24  C   UNL     1      -0.029  16.759  21.539  0.00  0.00    +0.000 C 
ENDBRANCH  15  19
BRANCH  13  25
ATOM     25  O   UNL     1      -1.162  12.765  18.102  0.00  0.00    +0.000 OA
BRANCH  25  27
ATOM     26  C   UNL     1      -3.237  11.537  18.198  0.00  0.00    +0.000 C 
ATOM     27  C   UNL     1      -2.009  12.003  18.964  0.00  0.00    +0.000 C 
ENDBRANCH  25  27
ENDBRANCH  13  25
ENDBRANCH   1  18
BRANCH   6  28
ATOM     28  C   UNL     1       4.646   5.050  17.011  0.00  0.00    +0.000 A 
ATOM     29  C   UNL     1       5.065   3.699  16.859  0.00  0.00    +0.000 A 
ATOM     30  N   UNL     1       5.938   3.525  15.867  0.00  0.00    +0.000 NA
ATOM     31  N   UNL     1       6.071   4.756  15.349  0.00  0.00    +0.000 N 
ATOM     32  C   UNL     1       5.334   5.706  16.010  0.00  0.00    +0.000 A 
BRANCH  31  33
ATOM     33  C   UNL     1       6.833   4.925  14.124  0.00  0.00    +0.000 C 
BRANCH  33  34
ATOM     34  C   UNL     1       6.371   4.036  12.953  0.00  0.00    +0.000 C 
ATOM     35  C   UNL     1       4.899   4.226  12.579  0.00  0.00    +0.000 C 
ATOM     36  C   UNL     1       7.242   4.354  11.730  0.00  0.00    +0.000 C 
BRANCH  34  37
ATOM     37  O   UNL     1       6.598   2.655  13.264  0.00  0.00    +0.000 OA
ATOM     38  H   UNL     1       7.009   2.614  14.147  0.00  0.00    +0.000 HD
ENDBRANCH  34  37
ENDBRANCH  33  34
ENDBRANCH  31  33
ENDBRANCH   6  28
TORSDOF 8
ENDMDL
MODEL 7
REMARK VINA RESULT:      -7.2      3.247     12.162
REMARK  Name = 
REMARK  12 active torsions:
REMARK  status: ('A' for Active; 'I' for Inactive)
REMARK    1  A    between atoms: C_1  and  C_2
REMARK    2  A    between atoms: C_2  and  O_3
REMARK    3  A    between atoms: O_3  and  C_4
REMARK    4  A    between atoms: C_6  and  C_7
REMARK    5  A    between atoms: N_11  and  C_12
REMARK    6  A    between atoms: C_15  and  N_16
REMARK    7  A    between atoms: C_21  and  C_22
REMARK    8  A    between atoms: N_25  and  C_26
REMARK    9  A    between atoms: C_26  and  C_27
REMARK   10  A    between atoms: C_27  and  C_28
REMARK   11  A    between atoms: C_27  and  C_29
REMARK   12  A    between atoms: C_27  and  O_30
REMARK                            x       y       z     vdW  Elec       q    Type
REMARK                         _______ _______ _______ _____ _____    ______ ____
ROOT
ATOM      1  N   UNL     1       1.122   8.668  20.212  0.00  0.00    +0.000 N 
ATOM      2  C   UNL     1       0.033   9.570  19.979  0.00  0.00    +0.000 A 
ATOM      3  C   UNL     1      -0.320  10.267  21.130  0.00  0.00    +0.000 A 
ATOM      4  C   UNL     1      -1.011  11.460  21.021  0.00  0.00    +0.000 A 
ATOM      5  C   UNL     1      -0.884  12.391  22.052  0.00  0.00    +0.000 A 
ATOM      6  C   UNL     1      -1.498  13.641  21.999  0.00  0.00    +0.000 A 
ATOM      7  C   UNL     1      -2.412  13.858  20.959  0.00  0.00    +0.000 A 
ATOM      8  C   UNL     1      -2.511  12.940  19.890  0.00  0.00    +0.000 A 
ATOM      9  C   UNL     1      -1.702  11.771  19.858  0.00  0.00    +0.000 A 
ATOM     10  C   UNL     1      -1.457  10.894  18.776  0.00  0.00    +0.000 A 
ATOM     11  N   UNL     1      -0.556   9.851  18.799  0.00  0.00    +0.000 NA
ATOM     12  H   UNL     1       1.719   9.156  20.880  0.00  0.00    +0.000 HD
ENDROOT
BRANCH   1  18
ATOM     13  C   UNL     1       2.491   6.699  19.660  0.00  0.00    +0.000 A 
ATOM     14  C   UNL     1       3.497   6.110  18.874  0.00  0.00    +0.000 A 
ATOM     15  C   UNL     1       4.010   6.759  17.745  0.00  0.00    +0.000 A 
ATOM     16  C   UNL     1       3.419   7.968  17.363  0.00  0.00    +0.000 A 
ATOM     17  C   UNL     1       2.449   8.588  18.155  0.00  0.00    +0.000 A 
ATOM     18  C   UNL     1       2.024   8.005  19.352  0.00  0.00    +0.000 A 
BRANCH  15  19
ATOM     19  C   UNL     1       5.144   6.177  17.025  0.00  0.00    +0.000 A 
ATOM     20  N   UNL     1       6.249   6.818  16.666  0.00  0.00    +0.000 NA
ATOM     21  N   UNL     1       7.056   5.957  15.958  0.00  0.00    +0.000 NA
ATOM     22  C   UNL     1       6.431   4.810  15.875  0.00  0.00    +0.000 A 
ATOM     23  N   UNL     1       5.235   4.894  16.522  0.00  0.00    +0.000 N 
ATOM     24  C   UNL     1       4.251   3.846  16.567  0.00  0.00    +0.000 C 
ENDBRANCH  15  19
BRANCH  13  25
ATOM     25  O   UNL     1       2.170   5.944  20.758  0.00  0.00    +0.000 OA
BRANCH  25  27
ATOM     26  C   UNL     1       1.964   3.627  21.402  0.00  0.00    +0.000 C 
ATOM     27  C   UNL     1       1.375   4.769  20.588  0.00  0.00    +0.000 C 
ENDBRANCH  25  27
ENDBRANCH  13  25
ENDBRANCH   1  18
BRANCH   6  28
ATOM     28  C   UNL     1      -1.057  14.667  22.945  0.00  0.00    +0.000 A 
ATOM     29  C   UNL     1      -0.539  15.966  22.685  0.00  0.00    +0.000 A 
ATOM     30  N   UNL     1      -0.394  16.707  23.782  0.00  0.00    +0.000 NA
ATOM     31  N   UNL     1      -0.844  15.905  24.762  0.00  0.00    +0.000 N 
ATOM     32  C   UNL     1      -1.234  14.669  24.314  0.00  0.00    +0.000 A 
BRANCH  31  33
ATOM     33  C   UNL     1      -0.992  16.447  26.101  0.00  0.00    +0.000 C 
BRANCH  33  34
ATOM     34  C   UNL     1       0.308  16.997  26.719  0.00  0.00    +0.000 C 
ATOM     35  C   UNL     1       0.341  18.525  26.824  0.00  0.00    +0.000 C 
ATOM     36  C   UNL     1       0.470  16.397  28.123  0.00  0.00    +0.000 C 
BRANCH  34  37
ATOM     37  O   UNL     1       1.440  16.558  25.958  0.00  0.00    +0.000 OA
ATOM     38  H   UNL     1       2.190  17.141  26.180  0.00  0.00    +0.000 HD
ENDBRANCH  34  37
ENDBRANCH  33  34
ENDBRANCH  31  33
ENDBRANCH   6  28
TORSDOF 8
ENDMDL
MODEL 8
REMARK VINA RESULT:      -7.2      0.780      1.087
REMARK  Name = 
REMARK  12 active torsions:
REMARK  status: ('A' for Active; 'I' for Inactive)
REMARK    1  A    between atoms: C_1  and  C_2
REMARK    2  A    between atoms: C_2  and  O_3
REMARK    3  A    between atoms: O_3  and  C_4
REMARK    4  A    between atoms: C_6  and  C_7
REMARK    5  A    between atoms: N_11  and  C_12
REMARK    6  A    between atoms: C_15  and  N_16
REMARK    7  A    between atoms: C_21  and  C_22
REMARK    8  A    between atoms: N_25  and  C_26
REMARK    9  A    between atoms: C_26  and  C_27
REMARK   10  A    between atoms: C_27  and  C_28
REMARK   11  A    between atoms: C_27  and  C_29
REMARK   12  A    between atoms: C_27  and  O_30
REMARK                            x       y       z     vdW  Elec       q    Type
REMARK                         _______ _______ _______ _____ _____    ______ ____
ROOT
ATOM      1  N   UNL     1       0.822  10.299  18.536  0.00  0.00    +0.000 N 
ATOM      2  C   UNL     1       1.255   9.020  19.016  0.00  0.00    +0.000 A 
ATOM      3  C   UNL     1       1.726   8.209  17.988  0.00  0.00    +0.000 A 
ATOM      4  C   UNL     1       2.574   7.157  18.282  0.00  0.00    +0.000 A 
ATOM      5  C   UNL     1       3.446   6.717  17.287  0.00  0.00    +0.000 A 
ATOM      6  C   UNL     1       4.373   5.701  17.513  0.00  0.00    +0.000 A 
ATOM      7  C   UNL     1       4.267   4.999  18.720  0.00  0.00    +0.000 A 
ATOM      8  C   UNL     1       3.418   5.467  19.749  0.00  0.00    +0.000 A 
ATOM      9  C   UNL     1       2.643   6.645  19.570  0.00  0.00    +0.000 A 
ATOM     10  C   UNL     1       1.962   7.413  20.545  0.00  0.00    +0.000 A 
ATOM     11  N   UNL     1       1.336   8.615  20.300  0.00  0.00    +0.000 NA
ATOM     12  H   UNL     1       1.475  10.522  17.783  0.00  0.00    +0.000 HD
ENDROOT
BRANCH   1  18
ATOM     13  C   UNL     1      -0.748  12.000  19.370  0.00  0.00    +0.000 A 
ATOM     14  C   UNL     1      -0.971  13.294  19.872  0.00  0.00    +0.000 A 
ATOM     15  C   UNL     1       0.094  14.122  20.245  0.00  0.00    +0.000 A 
ATOM     16  C   UNL     1       1.385  13.584  20.199  0.00  0.00    +0.000 A 
ATOM     17  C   UNL     1       1.628  12.316  19.664  0.00  0.00    +0.000 A 
ATOM     18  C   UNL     1       0.580  11.535  19.171  0.00  0.00    +0.000 A 
BRANCH  15  19
ATOM     19  C   UNL     1      -0.167  15.506  20.641  0.00  0.00    +0.000 A 
ATOM     20  N   UNL     1      -0.350  15.939  21.881  0.00  0.00    +0.000 NA
ATOM     21  N   UNL     1      -0.627  17.287  21.850  0.00  0.00    +0.000 NA
ATOM     22  C   UNL     1      -0.630  17.659  20.595  0.00  0.00    +0.000 A 
ATOM     23  N   UNL     1      -0.350  16.588  19.801  0.00  0.00    +0.000 N 
ATOM     24  C   UNL     1      -0.346  16.611  18.363  0.00  0.00    +0.000 C 
ENDBRANCH  15  19
BRANCH  13  25
ATOM     25  O   UNL     1      -1.908  11.372  18.997  0.00  0.00    +0.000 OA
BRANCH  25  27
ATOM     26  C   UNL     1      -3.918  11.182  17.675  0.00  0.00    +0.000 C 
ATOM     27  C   UNL     1      -2.474  11.657  17.716  0.00  0.00    +0.000 C 
ENDBRANCH  25  27
ENDBRANCH  13  25
ENDBRANCH   1  18
BRANCH   6  28
ATOM     28  C   UNL     1       5.454   5.526  16.542  0.00  0.00    +0.000 A 
ATOM     29  C   UNL     1       6.779   5.050  16.749  0.00  0.00    +0.000 A 
ATOM     30  N   UNL     1       7.454   4.856  15.617  0.00  0.00    +0.000 NA
ATOM     31  N   UNL     1       6.564   5.176  14.664  0.00  0.00    +0.000 N 
ATOM     32  C   UNL     1       5.360   5.600  15.167  0.00  0.00    +0.000 A 
BRANCH  31  33
ATOM     33  C   UNL     1       6.901   4.923  13.274  0.00  0.00    +0.000 C 
BRANCH  33  34
ATOM     34  C   UNL     1       6.283   3.640  12.687  0.00  0.00    +0.000 C 
ATOM     35  C   UNL     1       4.936   3.867  11.993  0.00  0.00    +0.000 C 
ATOM     36  C   UNL     1       7.271   3.044  11.675  0.00  0.00    +0.000 C 
BRANCH  34  37
ATOM     37  O   UNL     1       6.115   2.657  13.716  0.00  0.00    +0.000 OA
ATOM     38  H   UNL     1       6.381   3.065  14.561  0.00  0.00    +0.000 HD
ENDBRANCH  34  37
ENDBRANCH  33  34
ENDBRANCH  31  33
ENDBRANCH   6  28
TORSDOF 8
ENDMDL
MODEL 9
REMARK VINA RESULT:      -7.1      1.207      1.512
REMARK  Name = 
REMARK  12 active torsions:
REMARK  status: ('A' for Active; 'I' for Inactive)
REMARK    1  A    between atoms: C_1  and  C_2
REMARK    2  A    between atoms: C_2  and  O_3
REMARK    3  A    between atoms: O_3  and  C_4
REMARK    4  A    between atoms: C_6  and  C_7
REMARK    5  A    between atoms: N_11  and  C_12
REMARK    6  A    between atoms: C_15  and  N_16
REMARK    7  A    between atoms: C_21  and  C_22
REMARK    8  A    between atoms: N_25  and  C_26
REMARK    9  A    between atoms: C_26  and  C_27
REMARK   10  A    between atoms: C_27  and  C_28
REMARK   11  A    between atoms: C_27  and  C_29
REMARK   12  A    between atoms: C_27  and  O_30
REMARK                            x       y       z     vdW  Elec       q    Type
REMARK                         _______ _______ _______ _____ _____    ______ ____
ROOT
ATOM      1  N   UNL     1       0.629  11.111  18.274  0.00  0.00    +0.000 N 
ATOM      2  C   UNL     1       0.962   9.843  18.854  0.00  0.00    +0.000 A 
ATOM      3  C   UNL     1       1.429   8.942  17.903  0.00  0.00    +0.000 A 
ATOM      4  C   UNL     1       2.198   7.864  18.302  0.00  0.00    +0.000 A 
ATOM      5  C   UNL     1       3.086   7.311  17.380  0.00  0.00    +0.000 A 
ATOM      6  C   UNL     1       3.940   6.261  17.714  0.00  0.00    +0.000 A 
ATOM      7  C   UNL     1       3.737   5.646  18.957  0.00  0.00    +0.000 A 
ATOM      8  C   UNL     1       2.873   6.228  19.911  0.00  0.00    +0.000 A 
ATOM      9  C   UNL     1       2.178   7.434  19.622  0.00  0.00    +0.000 A 
ATOM     10  C   UNL     1       1.502   8.301  20.512  0.00  0.00    +0.000 A 
ATOM     11  N   UNL     1       0.961   9.519  20.163  0.00  0.00    +0.000 NA
ATOM     12  H   UNL     1       1.327  11.247  17.542  0.00  0.00    +0.000 HD
ENDROOT
BRANCH   1  18
ATOM     13  C   UNL     1      -0.794  12.739  19.448  0.00  0.00    +0.000 A 
ATOM     14  C   UNL     1      -1.029  14.064  19.857  0.00  0.00    +0.000 A 
ATOM     15  C   UNL     1      -0.048  15.052  19.715  0.00  0.00    +0.000 A 
ATOM     16  C   UNL     1       1.211  14.659  19.248  0.00  0.00    +0.000 A 
ATOM     17  C   UNL     1       1.448  13.357  18.798  0.00  0.00    +0.000 A 
ATOM     18  C   UNL     1       0.433  12.398  18.819  0.00  0.00    +0.000 A 
BRANCH  15  19
ATOM     19  C   UNL     1      -0.370  16.444  20.030  0.00  0.00    +0.000 A 
ATOM     20  N   UNL     1      -0.595  16.936  21.241  0.00  0.00    +0.000 NA
ATOM     21  N   UNL     1      -0.922  18.269  21.131  0.00  0.00    +0.000 NA
ATOM     22  C   UNL     1      -0.913  18.572  19.858  0.00  0.00    +0.000 A 
ATOM     23  N   UNL     1      -0.577  17.471  19.129  0.00  0.00    +0.000 N 
ATOM     24  C   UNL     1      -0.543  17.418  17.692  0.00  0.00    +0.000 C 
ENDBRANCH  15  19
BRANCH  13  25
ATOM     25  O   UNL     1      -1.894  11.936  19.604  0.00  0.00    +0.000 OA
BRANCH  25  27
ATOM     26  C   UNL     1      -4.213  12.048  18.945  0.00  0.00    +0.000 C 
ATOM     27  C   UNL     1      -2.788  11.756  18.503  0.00  0.00    +0.000 C 
ENDBRANCH  25  27
ENDBRANCH  13  25
ENDBRANCH   1  18
BRANCH   6  28
ATOM     28  C   UNL     1       5.051   5.961  16.810  0.00  0.00    +0.000 A 
ATOM     29  C   UNL     1       6.362   6.511  16.786  0.00  0.00    +0.000 A 
ATOM     30  N   UNL     1       7.180   5.893  15.936  0.00  0.00    +0.000 NA
ATOM     31  N   UNL     1       6.414   4.917  15.420  0.00  0.00    +0.000 N 
ATOM     32  C   UNL     1       5.128   4.929  15.898  0.00  0.00    +0.000 A 
BRANCH  31  33
ATOM     33  C   UNL     1       7.029   3.920  14.562  0.00  0.00    +0.000 C 
BRANCH  33  34
ATOM     34  C   UNL     1       6.556   3.956  13.096  0.00  0.00    +0.000 C 
ATOM     35  C   UNL     1       5.059   4.239  12.939  0.00  0.00    +0.000 C 
ATOM     36  C   UNL     1       7.350   5.041  12.356  0.00  0.00    +0.000 C 
BRANCH  34  37
ATOM     37  O   UNL     1       6.865   2.716  12.448  0.00  0.00    +0.000 OA
ATOM     38  H   UNL     1       6.506   1.996  12.999  0.00  0.00    +0.000 HD
ENDBRANCH  34  37
ENDBRANCH  33  34
ENDBRANCH  31  33
ENDBRANCH   6  28
TORSDOF 8
ENDMDL
