MODEL 1
REMARK VINA RESULT:      -7.4      0.000      0.000
REMARK  Name = 
REMARK  3 active torsions:
REMARK  status: ('A' for Active; 'I' for Inactive)
REMARK    1  A    between atoms: C_7  and  O_8
REMARK    2  A    between atoms: O_8  and  C_9
REMARK    3  A    between atoms: C_9  and  C_10
REMARK                            x       y       z     vdW  Elec       q    Type
REMARK                         _______ _______ _______ _____ _____    ______ ____
ROOT
ATOM      1  C   UNL     1       4.989   4.057  17.358  0.00  0.00    +0.000 A 
ATOM      2  N   UNL     1       5.069   5.194  16.693  0.00  0.00    +0.000 NA
ATOM      3  C   UNL     1       6.090   5.897  17.272  0.00  0.00    +0.000 A 
ATOM      4  C   UNL     1       6.587   7.167  16.949  0.00  0.00    +0.000 A 
ATOM      5  C   UNL     1       7.651   7.678  17.701  0.00  0.00    +0.000 A 
ATOM      6  C   UNL     1       8.206   6.939  18.747  0.00  0.00    +0.000 A 
ATOM      7  C   UNL     1       7.721   5.666  19.082  0.00  0.00    +0.000 A 
ATOM      8  C   UNL     1       6.658   5.178  18.318  0.00  0.00    +0.000 A 
ATOM      9  N   UNL     1       5.939   4.006  18.352  0.00  0.00    +0.000 N 
ATOM     10  H   UNL     1       6.070   3.236  18.990  0.00  0.00    +0.000 HD
ENDROOT
BRANCH   1  11
ATOM     11  C   UNL     1       3.996   2.980  17.065  0.00  0.00    +0.000 C 
BRANCH  11  12
ATOM     12  O   UNL     1       2.671   3.449  17.290  0.00  0.00    +0.000 OA
BRANCH  12  19
ATOM     13 CL   UNL     1       2.438   6.474  18.710  0.00  0.00    +0.000 Cl
ATOM     14  C   UNL     1       2.134   4.879  19.309  0.00  0.00    +0.000 A 
ATOM     15  C   UNL     1       1.708   4.851  20.649  0.00  0.00    +0.000 A 
ATOM     16  C   UNL     1       1.423   3.649  21.288  0.00  0.00    +0.000 A 
ATOM     17  C   UNL     1       1.561   2.456  20.591  0.00  0.00    +0.000 A 
ATOM     18  C   UNL     1       1.983   2.473  19.258  0.00  0.00    +0.000 A 
ATOM     19  C   UNL     1       2.277   3.676  18.590  0.00  0.00    +0.000 A 
ENDBRANCH  12  19
ENDBRANCH  11  12
ENDBRANCH   1  11
TORSDOF 3
ENDMDL
MODEL 2
REMARK VINA RESULT:      -7.2      2.413      5.845
REMARK  Name = 
REMARK  3 active torsions:
REMARK  status: ('A' for Active; 'I' for Inactive)
REMARK    1  A    between atoms: C_7  and  O_8
REMARK    2  A    between atoms: O_8  and  C_9
REMARK    3  A    between atoms: C_9  and  C_10
REMARK                            x       y       z     vdW  Elec       q    Type
REMARK                         _______ _______ _______ _____ _____    ______ ____
ROOT
ATOM      1  C   UNL     1       2.911   6.241  18.420  0.00  0.00    +0.000 A 
ATOM      2  N   UNL     1       2.234   5.229  17.912  0.00  0.00    +0.000 NA
ATOM      3  C   UNL     1       1.937   4.409  18.967  0.00  0.00    +0.000 A 
ATOM      4  C   UNL     1       1.235   3.196  18.977  0.00  0.00    +0.000 A 
ATOM      5  C   UNL     1       1.063   2.535  20.198  0.00  0.00    +0.000 A 
ATOM      6  C   UNL     1       1.577   3.073  21.379  0.00  0.00    +0.000 A 
ATOM      7  C   UNL     1       2.280   4.286  21.387  0.00  0.00    +0.000 A 
ATOM      8  C   UNL     1       2.441   4.927  20.155  0.00  0.00    +0.000 A 
ATOM      9  N   UNL     1       3.057   6.097  19.780  0.00  0.00    +0.000 N 
ATOM     10  H   UNL     1       3.538   6.746  20.384  0.00  0.00    +0.000 HD
ENDROOT
BRANCH   1  11
ATOM     11  C   UNL     1       3.446   7.381  17.615  0.00  0.00    +0.000 C 
BRANCH  11  12
ATOM     12  O   UNL     1       4.866   7.432  17.705  0.00  0.00    +0.000 OA
BRANCH  12  19
ATOM     13 CL   UNL     1       7.209   5.624  19.274  0.00  0.00    +0.000 Cl
ATOM     14  C   UNL     1       6.590   5.579  17.658  0.00  0.00    +0.000 A 
ATOM     15  C   UNL     1       7.187   4.593  16.852  0.00  0.00    +0.000 A 
ATOM     16  C   UNL     1       6.808   4.422  15.525  0.00  0.00    +0.000 A 
ATOM     17  C   UNL     1       5.824   5.239  14.986  0.00  0.00    +0.000 A 
ATOM     18  C   UNL     1       5.223   6.222  15.779  0.00  0.00    +0.000 A 
ATOM     19  C   UNL     1       5.588   6.413  17.125  0.00  0.00    +0.000 A 
ENDBRANCH  12  19
ENDBRANCH  11  12
ENDBRANCH   1  11
TORSDOF 3
ENDMDL
MODEL 3
REMARK VINA RESULT:      -7.1      1.602      1.755
REMARK  Name = 
REMARK  3 active torsions:
REMARK  status: ('A' for Active; 'I' for Inactive)
REMARK    1  A    between atoms: C_7  and  O_8
REMARK    2  A    between atoms: O_8  and  C_9
REMARK    3  A    between atoms: C_9  and  C_10
REMARK                            x       y       z     vdW  Elec       q    Type
REMARK                         _______ _______ _______ _____ _____    ______ ____
ROOT
ATOM      1  C   UNL     1       4.657   4.407  17.264  0.00  0.00    +0.000 A 
ATOM      2  N   UNL     1       4.822   5.597  16.718  0.00  0.00    +0.000 NA
ATOM      3  C   UNL     1       5.943   6.124  17.299  0.00  0.00    +0.000 A 
ATOM      4  C   UNL     1       6.555   7.366  17.080  0.00  0.00    +0.000 A 
ATOM      5  C   UNL     1       7.706   7.680  17.810  0.00  0.00    +0.000 A 
ATOM      6  C   UNL     1       8.234   6.777  18.734  0.00  0.00    +0.000 A 
ATOM      7  C   UNL     1       7.635   5.530  18.965  0.00  0.00    +0.000 A 
ATOM      8  C   UNL     1       6.486   5.240  18.225  0.00  0.00    +0.000 A 
ATOM      9  N   UNL     1       5.648   4.150  18.183  0.00  0.00    +0.000 N 
ATOM     10  H   UNL     1       5.730   3.305  18.726  0.00  0.00    +0.000 HD
ENDROOT
BRANCH   1  11
ATOM     11  C   UNL     1       3.539   3.475  16.924  0.00  0.00    +0.000 C 
BRANCH  11  12
ATOM     12  O   UNL     1       3.502   2.386  17.840  0.00  0.00    +0.000 OA
BRANCH  12  19
ATOM     13 CL   UNL     1       4.936   1.798  20.809  0.00  0.00    +0.000 Cl
ATOM     14  C   UNL     1       3.369   2.384  20.368  0.00  0.00    +0.000 A 
ATOM     15  C   UNL     1       2.541   2.667  21.469  0.00  0.00    +0.000 A 
ATOM     16  C   UNL     1       1.247   3.144  21.293  0.00  0.00    +0.000 A 
ATOM     17  C   UNL     1       0.763   3.344  20.007  0.00  0.00    +0.000 A 
ATOM     18  C   UNL     1       1.578   3.067  18.905  0.00  0.00    +0.000 A 
ATOM     19  C   UNL     1       2.892   2.585  19.058  0.00  0.00    +0.000 A 
ENDBRANCH  12  19
ENDBRANCH  11  12
ENDBRANCH   1  11
TORSDOF 3
ENDMDL
MODEL 4
REMARK VINA RESULT:      -7.1      3.137      4.087
REMARK  Name = 
REMARK  3 active torsions:
REMARK  status: ('A' for Active; 'I' for Inactive)
REMARK    1  A    between atoms: C_7  and  O_8
REMARK    2  A    between atoms: O_8  and  C_9
REMARK    3  A    between atoms: C_9  and  C_10
REMARK                            x       y       z     vdW  Elec       q    Type
REMARK                         _______ _______ _______ _____ _____    ______ ____
ROOT
ATOM      1  C   UNL     1       6.695   4.755  16.529  0.00  0.00    +0.000 A 
ATOM      2  N   UNL     1       7.458   5.447  15.704  0.00  0.00    +0.000 NA
ATOM      3  C   UNL     1       7.217   4.940  14.456  0.00  0.00    +0.000 A 
ATOM      4  C   UNL     1       7.771   5.315  13.225  0.00  0.00    +0.000 A 
ATOM      5  C   UNL     1       7.361   4.633  12.074  0.00  0.00    +0.000 A 
ATOM      6  C   UNL     1       6.421   3.604  12.150  0.00  0.00    +0.000 A 
ATOM      7  C   UNL     1       5.856   3.218  13.375  0.00  0.00    +0.000 A 
ATOM      8  C   UNL     1       6.283   3.911  14.510  0.00  0.00    +0.000 A 
ATOM      9  N   UNL     1       5.963   3.814  15.844  0.00  0.00    +0.000 N 
ATOM     10  H   UNL     1       5.311   3.169  16.262  0.00  0.00    +0.000 HD
ENDROOT
BRANCH   1  11
ATOM     11  C   UNL     1       6.645   4.972  18.007  0.00  0.00    +0.000 C 
BRANCH  11  12
ATOM     12  O   UNL     1       5.932   3.916  18.642  0.00  0.00    +0.000 OA
BRANCH  12  19
ATOM     13 CL   UNL     1       3.569   1.622  18.038  0.00  0.00    +0.000 Cl
ATOM     14  C   UNL     1       3.496   3.228  18.678  0.00  0.00    +0.000 A 
ATOM     15  C   UNL     1       2.195   3.647  19.006  0.00  0.00    +0.000 A 
ATOM     16  C   UNL     1       1.957   4.913  19.530  0.00  0.00    +0.000 A 
ATOM     17  C   UNL     1       3.024   5.778  19.732  0.00  0.00    +0.000 A 
ATOM     18  C   UNL     1       4.322   5.371  19.410  0.00  0.00    +0.000 A 
ATOM     19  C   UNL     1       4.588   4.095  18.880  0.00  0.00    +0.000 A 
ENDBRANCH  12  19
ENDBRANCH  11  12
ENDBRANCH   1  11
TORSDOF 3
ENDMDL
MODEL 5
REMARK VINA RESULT:      -7.1      2.403      5.934
REMARK  Name = 
REMARK  3 active torsions:
REMARK  status: ('A' for Active; 'I' for Inactive)
REMARK    1  A    between atoms: C_7  and  O_8
REMARK    2  A    between atoms: O_8  and  C_9
REMARK    3  A    between atoms: C_9  and  C_10
REMARK                            x       y       z     vdW  Elec       q    Type
REMARK                         _______ _______ _______ _____ _____    ______ ____
ROOT
ATOM      1  C   UNL     1       2.894   6.212  18.353  0.00  0.00    +0.000 A 
ATOM      2  N   UNL     1       3.005   6.098  19.662  0.00  0.00    +0.000 NA
ATOM      3  C   UNL     1       2.385   4.923  19.991  0.00  0.00    +0.000 A 
ATOM      4  C   UNL     1       2.215   4.332  21.250  0.00  0.00    +0.000 A 
ATOM      5  C   UNL     1       1.534   3.112  21.328  0.00  0.00    +0.000 A 
ATOM      6  C   UNL     1       1.036   2.498  20.178  0.00  0.00    +0.000 A 
ATOM      7  C   UNL     1       1.199   3.075  18.910  0.00  0.00    +0.000 A 
ATOM      8  C   UNL     1       1.881   4.294  18.858  0.00  0.00    +0.000 A 
ATOM      9  N   UNL     1       2.221   5.135  17.825  0.00  0.00    +0.000 N 
ATOM     10  H   UNL     1       2.016   5.002  16.846  0.00  0.00    +0.000 HD
ENDROOT
BRANCH   1  11
ATOM     11  C   UNL     1       3.430   7.361  17.562  0.00  0.00    +0.000 C 
BRANCH  11  12
ATOM     12  O   UNL     1       4.849   7.418  17.662  0.00  0.00    +0.000 OA
BRANCH  12  19
ATOM     13 CL   UNL     1       7.197   5.642  19.258  0.00  0.00    +0.000 Cl
ATOM     14  C   UNL     1       6.584   5.575  17.641  0.00  0.00    +0.000 A 
ATOM     15  C   UNL     1       7.190   4.584  16.848  0.00  0.00    +0.000 A 
ATOM     16  C   UNL     1       6.817   4.396  15.521  0.00  0.00    +0.000 A 
ATOM     17  C   UNL     1       5.829   5.202  14.970  0.00  0.00    +0.000 A 
ATOM     18  C   UNL     1       5.220   6.189  15.751  0.00  0.00    +0.000 A 
ATOM     19  C   UNL     1       5.579   6.397  17.095  0.00  0.00    +0.000 A 
ENDBRANCH  12  19
ENDBRANCH  11  12
ENDBRANCH   1  11
TORSDOF 3
ENDMDL
MODEL 6
REMARK VINA RESULT:      -7.0      3.073      3.989
REMARK  Name = 
REMARK  3 active torsions:
REMARK  status: ('A' for Active; 'I' for Inactive)
REMARK    1  A    between atoms: C_7  and  O_8
REMARK    2  A    between atoms: O_8  and  C_9
REMARK    3  A    between atoms: C_9  and  C_10
REMARK                            x       y       z     vdW  Elec       q    Type
REMARK                         _______ _______ _______ _____ _____    ______ ____
ROOT
ATOM      1  C   UNL     1       6.025   5.080  16.375  0.00  0.00    +0.000 A 
ATOM      2  N   UNL     1       5.293   4.253  15.654  0.00  0.00    +0.000 NA
ATOM      3  C   UNL     1       5.885   4.204  14.421  0.00  0.00    +0.000 A 
ATOM      4  C   UNL     1       5.506   3.480  13.283  0.00  0.00    +0.000 A 
ATOM      5  C   UNL     1       6.283   3.601  12.126  0.00  0.00    +0.000 A 
ATOM      6  C   UNL     1       7.410   4.424  12.106  0.00  0.00    +0.000 A 
ATOM      7  C   UNL     1       7.803   5.155  13.236  0.00  0.00    +0.000 A 
ATOM      8  C   UNL     1       7.011   5.019  14.379  0.00  0.00    +0.000 A 
ATOM      9  N   UNL     1       7.081   5.565  15.639  0.00  0.00    +0.000 N 
ATOM     10  H   UNL     1       7.776   6.212  15.979  0.00  0.00    +0.000 HD
ENDROOT
BRANCH   1  11
ATOM     11  C   UNL     1       5.735   5.435  17.797  0.00  0.00    +0.000 C 
BRANCH  11  12
ATOM     12  O   UNL     1       5.393   4.272  18.543  0.00  0.00    +0.000 OA
BRANCH  12  19
ATOM     13 CL   UNL     1       3.498   1.531  18.201  0.00  0.00    +0.000 Cl
ATOM     14  C   UNL     1       3.196   3.074  18.924  0.00  0.00    +0.000 A 
ATOM     15  C   UNL     1       1.906   3.197  19.473  0.00  0.00    +0.000 A 
ATOM     16  C   UNL     1       1.496   4.374  20.090  0.00  0.00    +0.000 A 
ATOM     17  C   UNL     1       2.376   5.446  20.167  0.00  0.00    +0.000 A 
ATOM     18  C   UNL     1       3.660   5.333  19.625  0.00  0.00    +0.000 A 
ATOM     19  C   UNL     1       4.098   4.153  18.997  0.00  0.00    +0.000 A 
ENDBRANCH  12  19
ENDBRANCH  11  12
ENDBRANCH   1  11
TORSDOF 3
ENDMDL
MODEL 7
REMARK VINA RESULT:      -7.0      0.421      1.425
REMARK  Name = 
REMARK  3 active torsions:
REMARK  status: ('A' for Active; 'I' for Inactive)
REMARK    1  A    between atoms: C_7  and  O_8
REMARK    2  A    between atoms: O_8  and  C_9
REMARK    3  A    between atoms: C_9  and  C_10
REMARK                            x       y       z     vdW  Elec       q    Type
REMARK                         _______ _______ _______ _____ _____    ______ ____
ROOT
ATOM      1  C   UNL     1       4.722   4.427  17.277  0.00  0.00    +0.000 A 
ATOM      2  N   UNL     1       5.638   4.215  18.202  0.00  0.00    +0.000 NA
ATOM      3  C   UNL     1       6.438   5.326  18.200  0.00  0.00    +0.000 A 
ATOM      4  C   UNL     1       7.561   5.611  18.988  0.00  0.00    +0.000 A 
ATOM      5  C   UNL     1       8.220   6.830  18.793  0.00  0.00    +0.000 A 
ATOM      6  C   UNL     1       7.769   7.740  17.835  0.00  0.00    +0.000 A 
ATOM      7  C   UNL     1       6.647   7.470  17.040  0.00  0.00    +0.000 A 
ATOM      8  C   UNL     1       6.006   6.247  17.252  0.00  0.00    +0.000 A 
ATOM      9  N   UNL     1       4.908   5.651  16.677  0.00  0.00    +0.000 N 
ATOM     10  H   UNL     1       4.331   6.030  15.942  0.00  0.00    +0.000 HD
ENDROOT
BRANCH   1  11
ATOM     11  C   UNL     1       3.637   3.459  16.933  0.00  0.00    +0.000 C 
BRANCH  11  12
ATOM     12  O   UNL     1       2.382   3.922  17.421  0.00  0.00    +0.000 OA
BRANCH  12  19
ATOM     13 CL   UNL     1       2.762   6.583  19.419  0.00  0.00    +0.000 Cl
ATOM     14  C   UNL     1       2.295   4.947  19.734  0.00  0.00    +0.000 A 
ATOM     15  C   UNL     1       2.023   4.688  21.090  0.00  0.00    +0.000 A 
ATOM     16  C   UNL     1       1.638   3.422  21.518  0.00  0.00    +0.000 A 
ATOM     17  C   UNL     1       1.518   2.396  20.590  0.00  0.00    +0.000 A 
ATOM     18  C   UNL     1       1.785   2.643  19.240  0.00  0.00    +0.000 A 
ATOM     19  C   UNL     1       2.175   3.915  18.783  0.00  0.00    +0.000 A 
ENDBRANCH  12  19
ENDBRANCH  11  12
ENDBRANCH   1  11
TORSDOF 3
ENDMDL
MODEL 8
REMARK VINA RESULT:      -6.9      1.602      2.220
REMARK  Name = 
REMARK  3 active torsions:
REMARK  status: ('A' for Active; 'I' for Inactive)
REMARK    1  A    between atoms: C_7  and  O_8
REMARK    2  A    between atoms: O_8  and  C_9
REMARK    3  A    between atoms: C_9  and  C_10
REMARK                            x       y       z     vdW  Elec       q    Type
REMARK                         _______ _______ _______ _____ _____    ______ ____
ROOT
ATOM      1  C   UNL     1       4.596   4.555  17.286  0.00  0.00    +0.000 A 
ATOM      2  N   UNL     1       5.524   4.281  18.183  0.00  0.00    +0.000 NA
ATOM      3  C   UNL     1       6.369   5.357  18.188  0.00  0.00    +0.000 A 
ATOM      4  C   UNL     1       7.522   5.575  18.955  0.00  0.00    +0.000 A 
ATOM      5  C   UNL     1       8.227   6.770  18.775  0.00  0.00    +0.000 A 
ATOM      6  C   UNL     1       7.792   7.723  17.853  0.00  0.00    +0.000 A 
ATOM      7  C   UNL     1       6.641   7.521  17.078  0.00  0.00    +0.000 A 
ATOM      8  C   UNL     1       5.954   6.320  17.275  0.00  0.00    +0.000 A 
ATOM      9  N   UNL     1       4.819   5.785  16.713  0.00  0.00    +0.000 N 
ATOM     10  H   UNL     1       4.241   6.208  16.002  0.00  0.00    +0.000 HD
ENDROOT
BRANCH   1  11
ATOM     11  C   UNL     1       3.463   3.642  16.944  0.00  0.00    +0.000 C 
BRANCH  11  12
ATOM     12  O   UNL     1       3.444   2.521  17.821  0.00  0.00    +0.000 OA
BRANCH  12  19
ATOM     13 CL   UNL     1       4.910   1.793  20.743  0.00  0.00    +0.000 Cl
ATOM     14  C   UNL     1       3.343   2.412  20.348  0.00  0.00    +0.000 A 
ATOM     15  C   UNL     1       2.532   2.656  21.471  0.00  0.00    +0.000 A 
ATOM     16  C   UNL     1       1.241   3.152  21.333  0.00  0.00    +0.000 A 
ATOM     17  C   UNL     1       0.743   3.412  20.063  0.00  0.00    +0.000 A 
ATOM     18  C   UNL     1       1.541   3.174  18.939  0.00  0.00    +0.000 A 
ATOM     19  C   UNL     1       2.851   2.674  19.054  0.00  0.00    +0.000 A 
ENDBRANCH  12  19
ENDBRANCH  11  12
ENDBRANCH   1  11
TORSDOF 3
ENDMDL
MODEL 9
REMARK VINA RESULT:      -6.9      3.071      3.966
REMARK  Name = 
REMARK  3 active torsions:
REMARK  status: ('A' for Active; 'I' for Inactive)
REMARK    1  A    between atoms: C_7  and  O_8
REMARK    2  A    between atoms: O_8  and  C_9
REMARK    3  A    between atoms: C_9  and  C_10
REMARK                            x       y       z     vdW  Elec       q    Type
REMARK                         _______ _______ _______ _____ _____    ______ ____
ROOT
ATOM      1  C   UNL     1       6.446   4.416  16.624  0.00  0.00    +0.000 A 
ATOM      2  N   UNL     1       7.269   5.213  15.969  0.00  0.00    +0.000 NA
ATOM      3  C   UNL     1       7.139   4.884  14.648  0.00  0.00    +0.000 A 
ATOM      4  C   UNL     1       7.791   5.424  13.531  0.00  0.00    +0.000 A 
ATOM      5  C   UNL     1       7.485   4.909  12.266  0.00  0.00    +0.000 A 
ATOM      6  C   UNL     1       6.552   3.881  12.120  0.00  0.00    +0.000 A 
ATOM      7  C   UNL     1       5.890   3.331  13.228  0.00  0.00    +0.000 A 
ATOM      8  C   UNL     1       6.213   3.860  14.480  0.00  0.00    +0.000 A 
ATOM      9  N   UNL     1       5.783   3.581  15.756  0.00  0.00    +0.000 N 
ATOM     10  H   UNL     1       5.104   2.885  16.025  0.00  0.00    +0.000 HD
ENDROOT
BRANCH   1  11
ATOM     11  C   UNL     1       6.270   4.427  18.107  0.00  0.00    +0.000 C 
BRANCH  11  12
ATOM     12  O   UNL     1       5.078   5.118  18.463  0.00  0.00    +0.000 OA
BRANCH  12  19
ATOM     13 CL   UNL     1       4.655   2.275  20.183  0.00  0.00    +0.000 Cl
ATOM     14  C   UNL     1       3.587   3.204  19.188  0.00  0.00    +0.000 A 
ATOM     15  C   UNL     1       2.295   2.659  19.084  0.00  0.00    +0.000 A 
ATOM     16  C   UNL     1       1.312   3.279  18.320  0.00  0.00    +0.000 A 
ATOM     17  C   UNL     1       1.612   4.457  17.648  0.00  0.00    +0.000 A 
ATOM     18  C   UNL     1       2.893   5.008  17.746  0.00  0.00    +0.000 A 
ATOM     19  C   UNL     1       3.904   4.400  18.514  0.00  0.00    +0.000 A 
ENDBRANCH  12  19
ENDBRANCH  11  12
ENDBRANCH   1  11
TORSDOF 3
ENDMDL
