MODEL 1
REMARK VINA RESULT:      -6.1      0.000      0.000
REMARK  Name = 
REMARK  5 active torsions:
REMARK  status: ('A' for Active; 'I' for Inactive)
REMARK    1  A    between atoms: C_1  and  O_2
REMARK    2  A    between atoms: O_2  and  C_3
REMARK    3  A    between atoms: C_3  and  C_4
REMARK    4  A    between atoms: C_8  and  C_9
REMARK    5  A    between atoms: C_12  and  C_13
REMARK                            x       y       z     vdW  Elec       q    Type
REMARK                         _______ _______ _______ _____ _____    ______ ____
ROOT
ATOM      1  C   UNL     1       2.619   4.313  18.803  0.00  0.00    +0.000 C 
ATOM      2  C   UNL     1       1.601   4.230  17.670  0.00  0.00    +0.000 C 
ATOM      3  N   UNL     1       3.136   3.023  19.119  0.00  0.00    +0.000 N 
ATOM      4  C   UNL     1       4.448   3.117  19.507  0.00  0.00    +0.000 C 
ATOM      5  O   UNL     1       5.072   2.281  20.140  0.00  0.00    +0.000 OA
ATOM      6  C   UNL     1       4.978   4.395  18.991  0.00  0.00    +0.000 C 
ATOM      7  C   UNL     1       3.904   5.043  18.494  0.00  0.00    +0.000 C 
ATOM      8  C   UNL     1       3.898   6.279  17.654  0.00  0.00    +0.000 C 
ATOM      9  H   UNL     1       2.565   2.348  19.602  0.00  0.00    +0.000 HD
ENDROOT
BRANCH   6  10
ATOM     10  C   UNL     1       6.400   4.794  19.001  0.00  0.00    +0.000 C 
ATOM     11  N   UNL     1       7.147   4.334  17.962  0.00  0.00    +0.000 N 
ATOM     12  O   UNL     1       6.911   5.467  19.888  0.00  0.00    +0.000 OA
ATOM     13  H   UNL     1       6.753   3.747  17.230  0.00  0.00    +0.000 HD
ATOM     14  H   UNL     1       8.134   4.550  17.939  0.00  0.00    +0.000 HD
ENDBRANCH   6  10
BRANCH   1  16
ATOM     15  C   UNL     1       1.066   3.876  20.624  0.00  0.00    +0.000 C 
ATOM     16  O   UNL     1       2.039   4.714  20.036  0.00  0.00    +0.000 OA
ENDBRANCH   1  16
TORSDOF 2
ENDMDL
MODEL 2
REMARK VINA RESULT:      -6.0      1.947      3.968
REMARK  Name = 
REMARK  5 active torsions:
REMARK  status: ('A' for Active; 'I' for Inactive)
REMARK    1  A    between atoms: C_1  and  O_2
REMARK    2  A    between atoms: O_2  and  C_3
REMARK    3  A    between atoms: C_3  and  C_4
REMARK    4  A    between atoms: C_8  and  C_9
REMARK    5  A    between atoms: C_12  and  C_13
REMARK                            x       y       z     vdW  Elec       q    Type
REMARK                         _______ _______ _______ _____ _____    ______ ____
ROOT
ATOM      1  C   UNL     1       4.647   4.400  18.079  0.00  0.00    +0.000 C 
ATOM      2  C   UNL     1       5.283   5.767  17.843  0.00  0.00    +0.000 C 
ATOM      3  N   UNL     1       5.403   3.644  19.022  0.00  0.00    +0.000 N 
ATOM      4  C   UNL     1       4.573   2.855  19.776  0.00  0.00    +0.000 C 
ATOM      5  O   UNL     1       4.904   1.876  20.422  0.00  0.00    +0.000 OA
ATOM      6  C   UNL     1       3.214   3.427  19.693  0.00  0.00    +0.000 C 
ATOM      7  C   UNL     1       3.300   4.398  18.760  0.00  0.00    +0.000 C 
ATOM      8  C   UNL     1       2.280   5.442  18.439  0.00  0.00    +0.000 C 
ATOM      9  H   UNL     1       6.295   3.251  18.765  0.00  0.00    +0.000 HD
ENDROOT
BRANCH   6  10
ATOM     10  C   UNL     1       2.063   3.013  20.520  0.00  0.00    +0.000 C 
ATOM     11  N   UNL     1       2.296   2.940  21.858  0.00  0.00    +0.000 N 
ATOM     12  O   UNL     1       0.967   2.717  20.061  0.00  0.00    +0.000 OA
ATOM     13  H   UNL     1       3.207   3.150  22.261  0.00  0.00    +0.000 HD
ATOM     14  H   UNL     1       1.552   2.629  22.466  0.00  0.00    +0.000 HD
ENDBRANCH   6  10
BRANCH   1  16
ATOM     15  C   UNL     1       5.618   3.873  15.911  0.00  0.00    +0.000 C 
ATOM     16  O   UNL     1       4.686   3.569  16.928  0.00  0.00    +0.000 OA
ENDBRANCH   1  16
TORSDOF 2
ENDMDL
MODEL 3
REMARK VINA RESULT:      -5.9      1.992      3.373
REMARK  Name = 
REMARK  5 active torsions:
REMARK  status: ('A' for Active; 'I' for Inactive)
REMARK    1  A    between atoms: C_1  and  O_2
REMARK    2  A    between atoms: O_2  and  C_3
REMARK    3  A    between atoms: C_3  and  C_4
REMARK    4  A    between atoms: C_8  and  C_9
REMARK    5  A    between atoms: C_12  and  C_13
REMARK                            x       y       z     vdW  Elec       q    Type
REMARK                         _______ _______ _______ _____ _____    ______ ____
ROOT
ATOM      1  C   UNL     1       2.540   5.585  19.538  0.00  0.00    +0.000 C 
ATOM      2  C   UNL     1       1.709   6.322  20.584  0.00  0.00    +0.000 C 
ATOM      3  N   UNL     1       3.934   5.748  19.787  0.00  0.00    +0.000 N 
ATOM      4  C   UNL     1       4.619   4.617  19.422  0.00  0.00    +0.000 C 
ATOM      5  O   UNL     1       5.816   4.543  19.199  0.00  0.00    +0.000 OA
ATOM      6  C   UNL     1       3.653   3.501  19.383  0.00  0.00    +0.000 C 
ATOM      7  C   UNL     1       2.446   4.078  19.550  0.00  0.00    +0.000 C 
ATOM      8  C   UNL     1       1.142   3.396  19.812  0.00  0.00    +0.000 C 
ATOM      9  H   UNL     1       4.385   6.632  19.609  0.00  0.00    +0.000 HD
ENDROOT
BRANCH   6  10
ATOM     10  C   UNL     1       4.007   2.074  19.242  0.00  0.00    +0.000 C 
ATOM     11  N   UNL     1       5.029   1.640  20.027  0.00  0.00    +0.000 N 
ATOM     12  O   UNL     1       3.456   1.312  18.456  0.00  0.00    +0.000 OA
ATOM     13  H   UNL     1       5.523   2.261  20.664  0.00  0.00    +0.000 HD
ATOM     14  H   UNL     1       5.332   0.680  19.944  0.00  0.00    +0.000 HD
ENDBRANCH   6  10
BRANCH   1  16
ATOM     15  C   UNL     1       2.607   7.524  18.070  0.00  0.00    +0.000 C 
ATOM     16  O   UNL     1       2.402   6.137  18.237  0.00  0.00    +0.000 OA
ENDBRANCH   1  16
TORSDOF 2
ENDMDL
MODEL 4
REMARK VINA RESULT:      -5.9      1.750      2.621
REMARK  Name = 
REMARK  5 active torsions:
REMARK  status: ('A' for Active; 'I' for Inactive)
REMARK    1  A    between atoms: C_1  and  O_2
REMARK    2  A    between atoms: O_2  and  C_3
REMARK    3  A    between atoms: C_3  and  C_4
REMARK    4  A    between atoms: C_8  and  C_9
REMARK    5  A    between atoms: C_12  and  C_13
REMARK                            x       y       z     vdW  Elec       q    Type
REMARK                         _______ _______ _______ _____ _____    ______ ____
ROOT
ATOM      1  C   UNL     1       3.681   2.892  19.144  0.00  0.00    +0.000 C 
ATOM      2  C   UNL     1       3.405   1.529  18.516  0.00  0.00    +0.000 C 
ATOM      3  N   UNL     1       5.083   3.137  19.232  0.00  0.00    +0.000 N 
ATOM      4  C   UNL     1       5.346   4.472  19.060  0.00  0.00    +0.000 C 
ATOM      5  O   UNL     1       6.365   5.052  19.393  0.00  0.00    +0.000 OA
ATOM      6  C   UNL     1       4.187   5.071  18.367  0.00  0.00    +0.000 C 
ATOM      7  C   UNL     1       3.255   4.097  18.340  0.00  0.00    +0.000 C 
ATOM      8  C   UNL     1       1.976   4.086  17.566  0.00  0.00    +0.000 C 
ATOM      9  H   UNL     1       5.646   2.645  19.908  0.00  0.00    +0.000 HD
ENDROOT
BRANCH   6  10
ATOM     10  C   UNL     1       4.145   6.435  17.803  0.00  0.00    +0.000 C 
ATOM     11  N   UNL     1       5.173   6.762  16.976  0.00  0.00    +0.000 N 
ATOM     12  O   UNL     1       3.272   7.253  18.067  0.00  0.00    +0.000 OA
ATOM     13  H   UNL     1       5.928   6.111  16.766  0.00  0.00    +0.000 HD
ATOM     14  H   UNL     1       5.210   7.694  16.589  0.00  0.00    +0.000 HD
ENDBRANCH   6  10
BRANCH   1  16
ATOM     15  C   UNL     1       1.941   2.642  20.826  0.00  0.00    +0.000 C 
ATOM     16  O   UNL     1       3.278   2.964  20.504  0.00  0.00    +0.000 OA
ENDBRANCH   1  16
TORSDOF 2
ENDMDL
MODEL 5
REMARK VINA RESULT:      -5.9      1.881      4.245
REMARK  Name = 
REMARK  5 active torsions:
REMARK  status: ('A' for Active; 'I' for Inactive)
REMARK    1  A    between atoms: C_1  and  O_2
REMARK    2  A    between atoms: O_2  and  C_3
REMARK    3  A    between atoms: C_3  and  C_4
REMARK    4  A    between atoms: C_8  and  C_9
REMARK    5  A    between atoms: C_12  and  C_13
REMARK                            x       y       z     vdW  Elec       q    Type
REMARK                         _______ _______ _______ _____ _____    ______ ____
ROOT
ATOM      1  C   UNL     1       5.500   4.573  18.117  0.00  0.00    +0.000 C 
ATOM      2  C   UNL     1       6.482   5.532  18.783  0.00  0.00    +0.000 C 
ATOM      3  N   UNL     1       5.331   3.393  18.898  0.00  0.00    +0.000 N 
ATOM      4  C   UNL     1       4.047   2.926  18.786  0.00  0.00    +0.000 C 
ATOM      5  O   UNL     1       3.668   1.796  19.047  0.00  0.00    +0.000 OA
ATOM      6  C   UNL     1       3.201   4.047  18.329  0.00  0.00    +0.000 C 
ATOM      7  C   UNL     1       4.066   5.038  18.032  0.00  0.00    +0.000 C 
ATOM      8  C   UNL     1       3.742   6.467  17.737  0.00  0.00    +0.000 C 
ATOM      9  H   UNL     1       6.065   2.703  18.946  0.00  0.00    +0.000 HD
ENDROOT
BRANCH   6  10
ATOM     10  C   UNL     1       1.725   4.035  18.281  0.00  0.00    +0.000 C 
ATOM     11  N   UNL     1       1.101   3.737  19.452  0.00  0.00    +0.000 N 
ATOM     12  O   UNL     1       1.076   4.244  17.263  0.00  0.00    +0.000 OA
ATOM     13  H   UNL     1       1.618   3.528  20.304  0.00  0.00    +0.000 HD
ATOM     14  H   UNL     1       0.092   3.683  19.466  0.00  0.00    +0.000 HD
ENDBRANCH   6  10
BRANCH   1  16
ATOM     15  C   UNL     1       6.915   4.823  16.153  0.00  0.00    +0.000 C 
ATOM     16  O   UNL     1       5.985   4.053  16.888  0.00  0.00    +0.000 OA
ENDBRANCH   1  16
TORSDOF 2
ENDMDL
MODEL 6
REMARK VINA RESULT:      -5.9      1.981      3.838
REMARK  Name = 
REMARK  5 active torsions:
REMARK  status: ('A' for Active; 'I' for Inactive)
REMARK    1  A    between atoms: C_1  and  O_2
REMARK    2  A    between atoms: O_2  and  C_3
REMARK    3  A    between atoms: C_3  and  C_4
REMARK    4  A    between atoms: C_8  and  C_9
REMARK    5  A    between atoms: C_12  and  C_13
REMARK                            x       y       z     vdW  Elec       q    Type
REMARK                         _______ _______ _______ _____ _____    ______ ____
ROOT
ATOM      1  C   UNL     1       4.478   4.548  18.351  0.00  0.00    +0.000 C 
ATOM      2  C   UNL     1       5.227   5.863  18.153  0.00  0.00    +0.000 C 
ATOM      3  N   UNL     1       5.286   3.603  19.049  0.00  0.00    +0.000 N 
ATOM      4  C   UNL     1       4.506   2.811  19.853  0.00  0.00    +0.000 C 
ATOM      5  O   UNL     1       4.820   1.727  20.315  0.00  0.00    +0.000 OA
ATOM      6  C   UNL     1       3.234   3.524  20.086  0.00  0.00    +0.000 C 
ATOM      7  C   UNL     1       3.278   4.594  19.267  0.00  0.00    +0.000 C 
ATOM      8  C   UNL     1       2.354   5.769  19.257  0.00  0.00    +0.000 C 
ATOM      9  H   UNL     1       6.065   3.159  18.589  0.00  0.00    +0.000 HD
ENDROOT
BRANCH   6  10
ATOM     10  C   UNL     1       2.201   3.124  21.062  0.00  0.00    +0.000 C 
ATOM     11  N   UNL     1       0.968   2.875  20.546  0.00  0.00    +0.000 N 
ATOM     12  O   UNL     1       2.401   3.042  22.268  0.00  0.00    +0.000 OA
ATOM     13  H   UNL     1       0.769   2.967  19.552  0.00  0.00    +0.000 HD
ATOM     14  H   UNL     1       0.217   2.630  21.175  0.00  0.00    +0.000 HD
ENDBRANCH   6  10
BRANCH   1  16
ATOM     15  C   UNL     1       5.139   4.019  16.070  0.00  0.00    +0.000 C 
ATOM     16  O   UNL     1       4.215   3.874  17.129  0.00  0.00    +0.000 OA
ENDBRANCH   1  16
TORSDOF 2
ENDMDL
MODEL 7
REMARK VINA RESULT:      -5.8      2.330      4.343
REMARK  Name = 
REMARK  5 active torsions:
REMARK  status: ('A' for Active; 'I' for Inactive)
REMARK    1  A    between atoms: C_1  and  O_2
REMARK    2  A    between atoms: O_2  and  C_3
REMARK    3  A    between atoms: C_3  and  C_4
REMARK    4  A    between atoms: C_8  and  C_9
REMARK    5  A    between atoms: C_12  and  C_13
REMARK                            x       y       z     vdW  Elec       q    Type
REMARK                         _______ _______ _______ _____ _____    ______ ____
ROOT
ATOM      1  C   UNL     1       4.339   4.332  17.717  0.00  0.00    +0.000 C 
ATOM      2  C   UNL     1       5.277   5.448  18.167  0.00  0.00    +0.000 C 
ATOM      3  N   UNL     1       4.716   3.085  18.298  0.00  0.00    +0.000 N 
ATOM      4  C   UNL     1       3.606   2.320  18.546  0.00  0.00    +0.000 C 
ATOM      5  O   UNL     1       3.590   1.114  18.724  0.00  0.00    +0.000 OA
ATOM      6  C   UNL     1       2.440   3.224  18.596  0.00  0.00    +0.000 C 
ATOM      7  C   UNL     1       2.911   4.424  18.198  0.00  0.00    +0.000 C 
ATOM      8  C   UNL     1       2.214   5.744  18.275  0.00  0.00    +0.000 C 
ATOM      9  H   UNL     1       5.541   2.602  17.979  0.00  0.00    +0.000 HD
ENDROOT
BRANCH   6  10
ATOM     10  C   UNL     1       1.086   2.844  19.045  0.00  0.00    +0.000 C 
ATOM     11  N   UNL     1       0.752   3.232  20.305  0.00  0.00    +0.000 N 
ATOM     12  O   UNL     1       0.301   2.195  18.364  0.00  0.00    +0.000 OA
ATOM     13  H   UNL     1       1.398   3.745  20.902  0.00  0.00    +0.000 HD
ATOM     14  H   UNL     1      -0.151   2.968  20.673  0.00  0.00    +0.000 HD
ENDBRANCH   6  10
BRANCH   1  16
ATOM     15  C   UNL     1       5.722   4.001  15.743  0.00  0.00    +0.000 C 
ATOM     16  O   UNL     1       4.437   4.056  16.327  0.00  0.00    +0.000 OA
ENDBRANCH   1  16
TORSDOF 2
ENDMDL
MODEL 8
REMARK VINA RESULT:      -5.8      2.166      2.710
REMARK  Name = 
REMARK  5 active torsions:
REMARK  status: ('A' for Active; 'I' for Inactive)
REMARK    1  A    between atoms: C_1  and  O_2
REMARK    2  A    between atoms: O_2  and  C_3
REMARK    3  A    between atoms: C_3  and  C_4
REMARK    4  A    between atoms: C_8  and  C_9
REMARK    5  A    between atoms: C_12  and  C_13
REMARK                            x       y       z     vdW  Elec       q    Type
REMARK                         _______ _______ _______ _____ _____    ______ ____
ROOT
ATOM      1  C   UNL     1       4.372   3.955  18.343  0.00  0.00    +0.000 C 
ATOM      2  C   UNL     1       3.889   2.523  18.129  0.00  0.00    +0.000 C 
ATOM      3  N   UNL     1       5.391   4.005  19.339  0.00  0.00    +0.000 N 
ATOM      4  C   UNL     1       6.298   4.989  19.044  0.00  0.00    +0.000 C 
ATOM      5  O   UNL     1       7.080   5.504  19.826  0.00  0.00    +0.000 OA
ATOM      6  C   UNL     1       6.184   5.286  17.601  0.00  0.00    +0.000 C 
ATOM      7  C   UNL     1       5.104   4.593  17.187  0.00  0.00    +0.000 C 
ATOM      8  C   UNL     1       4.664   4.355  15.779  0.00  0.00    +0.000 C 
ATOM      9  H   UNL     1       5.161   3.874  20.312  0.00  0.00    +0.000 HD
ENDROOT
BRANCH   6  10
ATOM     10  C   UNL     1       7.118   6.129  16.829  0.00  0.00    +0.000 C 
ATOM     11  N   UNL     1       7.308   7.388  17.308  0.00  0.00    +0.000 N 
ATOM     12  O   UNL     1       7.678   5.761  15.804  0.00  0.00    +0.000 OA
ATOM     13  H   UNL     1       6.830   7.729  18.140  0.00  0.00    +0.000 HD
ATOM     14  H   UNL     1       7.912   8.017  16.798  0.00  0.00    +0.000 HD
ENDBRANCH   6  10
BRANCH   1  16
ATOM     15  C   UNL     1       2.743   4.396  20.096  0.00  0.00    +0.000 C 
ATOM     16  O   UNL     1       3.371   4.797  18.896  0.00  0.00    +0.000 OA
ENDBRANCH   1  16
TORSDOF 2
ENDMDL
MODEL 9
REMARK VINA RESULT:      -5.8      2.040      4.035
REMARK  Name = 
REMARK  5 active torsions:
REMARK  status: ('A' for Active; 'I' for Inactive)
REMARK    1  A    between atoms: C_1  and  O_2
REMARK    2  A    between atoms: O_2  and  C_3
REMARK    3  A    between atoms: C_3  and  C_4
REMARK    4  A    between atoms: C_8  and  C_9
REMARK    5  A    between atoms: C_12  and  C_13
REMARK                            x       y       z     vdW  Elec       q    Type
REMARK                         _______ _______ _______ _____ _____    ______ ____
ROOT
ATOM      1  C   UNL     1       5.386   5.255  18.396  0.00  0.00    +0.000 C 
ATOM      2  C   UNL     1       5.574   6.548  17.606  0.00  0.00    +0.000 C 
ATOM      3  N   UNL     1       4.339   5.392  19.354  0.00  0.00    +0.000 N 
ATOM      4  C   UNL     1       3.676   4.202  19.508  0.00  0.00    +0.000 C 
ATOM      5  O   UNL     1       2.971   3.890  20.453  0.00  0.00    +0.000 OA
ATOM      6  C   UNL     1       3.939   3.383  18.308  0.00  0.00    +0.000 C 
ATOM      7  C   UNL     1       4.876   4.066  17.618  0.00  0.00    +0.000 C 
ATOM      8  C   UNL     1       5.345   3.807  16.223  0.00  0.00    +0.000 C 
ATOM      9  H   UNL     1       4.476   5.949  20.183  0.00  0.00    +0.000 HD
ENDROOT
BRANCH   6  10
ATOM     10  C   UNL     1       3.251   2.122  17.970  0.00  0.00    +0.000 C 
ATOM     11  N   UNL     1       3.910   0.982  18.309  0.00  0.00    +0.000 N 
ATOM     12  O   UNL     1       2.170   2.070  17.395  0.00  0.00    +0.000 OA
ATOM     13  H   UNL     1       4.823   0.998  18.759  0.00  0.00    +0.000 HD
ATOM     14  H   UNL     1       3.497   0.091  18.070  0.00  0.00    +0.000 HD
ENDBRANCH   6  10
BRANCH   1  16
ATOM     15  C   UNL     1       7.676   5.719  19.076  0.00  0.00    +0.000 C 
ATOM     16  O   UNL     1       6.503   4.943  19.214  0.00  0.00    +0.000 OA
ENDBRANCH   1  16
TORSDOF 2
ENDMDL
