MODEL 1
REMARK VINA RESULT:      -7.1      0.000      0.000
REMARK  Name = 
REMARK  12 active torsions:
REMARK  status: ('A' for Active; 'I' for Inactive)
REMARK    1  A    between atoms: C_1  and  C_2
REMARK    2  A    between atoms: C_2  and  C_3
REMARK    3  A    between atoms: C_5  and  O_6
REMARK    4  A    between atoms: O_6  and  C_7
REMARK    5  A    between atoms: N_12  and  C_13
REMARK    6  A    between atoms: C_13  and  C_14
REMARK    7  A    between atoms: C_13  and  C_18
REMARK    8  A    between atoms: N_16  and  C_17
REMARK    9  A    between atoms: C_24  and  C_25
REMARK   10  A    between atoms: C_25  and  C_26
REMARK   11  A    between atoms: C_26  and  C_27
REMARK   12  A    between atoms: C_30  and  C_31
REMARK                            x       y       z     vdW  Elec       q    Type
REMARK                         _______ _______ _______ _____ _____    ______ ____
ROOT
ATOM      1  C   UNL     1      -4.524  11.978  18.661  0.00  0.00    +0.000 A 
ATOM      2  N   UNL     1      -4.495  10.978  17.814  0.00  0.00    +0.000 NA
ATOM      3  C   UNL     1      -3.203  10.519  17.810  0.00  0.00    +0.000 A 
ATOM      4  C   UNL     1      -2.401  11.242  18.679  0.00  0.00    +0.000 A 
ATOM      5  N   UNL     1      -3.256  12.249  19.101  0.00  0.00    +0.000 N 
ATOM      6  C   UNL     1      -2.850  13.364  19.935  0.00  0.00    +0.000 C 
ATOM      7  C   UNL     1      -1.334  13.362  20.179  0.00  0.00    +0.000 C 
ATOM      8  N   UNL     1      -0.756  12.002  20.402  0.00  0.00    +0.000 NA
ATOM      9  C   UNL     1      -0.946  11.257  19.091  0.00  0.00    +0.000 C 
ENDROOT
BRANCH   1  11
ATOM     10  C   UNL     1      -6.294  12.096  20.395  0.00  0.00    +0.000 C 
ATOM     11  C   UNL     1      -5.761  12.687  19.098  0.00  0.00    +0.000 C 
ENDBRANCH   1  11
BRANCH   3  12
ATOM     12  O   UNL     1      -2.766   9.495  17.057  0.00  0.00    +0.000 OA
ATOM     13  C   UNL     1      -2.952   9.729  15.663  0.00  0.00    +0.000 C 
ENDBRANCH   3  12
BRANCH   8  14
ATOM     14  C   UNL     1      -1.375  11.381  21.642  0.00  0.00    +0.000 C 
BRANCH  14  15
ATOM     15  C   UNL     1      -1.890  12.461  22.614  0.00  0.00    +0.000 A 
ATOM     16  C   UNL     1      -1.006  13.441  23.098  0.00  0.00    +0.000 A 
ATOM     17  C   UNL     1      -1.421  14.364  24.060  0.00  0.00    +0.000 A 
ATOM     18  C   UNL     1      -2.733  14.349  24.524  0.00  0.00    +0.000 A 
ATOM     19  C   UNL     1      -3.630  13.400  24.040  0.00  0.00    +0.000 A 
ATOM     20  C   UNL     1      -3.207  12.452  23.108  0.00  0.00    +0.000 A 
ENDBRANCH  14  15
BRANCH  14  21
ATOM     21  C   UNL     1      -0.512  10.342  22.413  0.00  0.00    +0.000 C 
ATOM     22  O   UNL     1      -0.992   9.706  23.358  0.00  0.00    +0.000 OA
ATOM     23  N   UNL     1       0.796  10.163  22.022  0.00  0.00    +0.000 N 
ATOM     24  C   UNL     1       1.687   9.268  22.724  0.00  0.00    +0.000 C 
ATOM     25  H   UNL     1       1.189  10.784  21.331  0.00  0.00    +0.000 HD
ENDBRANCH  14  21
ENDBRANCH   8  14
BRANCH   9  26
ATOM     26  C   UNL     1      -0.120   9.961  19.090  0.00  0.00    +0.000 C 
BRANCH  26  27
ATOM     27  C   UNL     1       1.164   9.855  18.258  0.00  0.00    +0.000 C 
BRANCH  27  28
ATOM     28  C   UNL     1       2.017   8.631  18.451  0.00  0.00    +0.000 A 
ATOM     29  C   UNL     1       2.990   8.294  17.502  0.00  0.00    +0.000 A 
ATOM     30  C   UNL     1       3.703   7.098  17.596  0.00  0.00    +0.000 A 
ATOM     31  C   UNL     1       3.462   6.214  18.652  0.00  0.00    +0.000 A 
ATOM     32  C   UNL     1       4.156   4.891  18.725  0.00  0.00    +0.000 C 
ATOM     33  C   UNL     1       2.497   6.565  19.604  0.00  0.00    +0.000 A 
ATOM     34  F   UNL     1       2.231   5.725  20.617  0.00  0.00    +0.000 F 
ATOM     35  C   UNL     1       1.787   7.756  19.518  0.00  0.00    +0.000 A 
ENDBRANCH  27  28
ENDBRANCH  26  27
ENDBRANCH   9  26
TORSDOF 8
ENDMDL
MODEL 2
REMARK VINA RESULT:      -7.0      2.250      4.744
REMARK  Name = 
REMARK  12 active torsions:
REMARK  status: ('A' for Active; 'I' for Inactive)
REMARK    1  A    between atoms: C_1  and  C_2
REMARK    2  A    between atoms: C_2  and  C_3
REMARK    3  A    between atoms: C_5  and  O_6
REMARK    4  A    between atoms: O_6  and  C_7
REMARK    5  A    between atoms: N_12  and  C_13
REMARK    6  A    between atoms: C_13  and  C_14
REMARK    7  A    between atoms: C_13  and  C_18
REMARK    8  A    between atoms: N_16  and  C_17
REMARK    9  A    between atoms: C_24  and  C_25
REMARK   10  A    between atoms: C_25  and  C_26
REMARK   11  A    between atoms: C_26  and  C_27
REMARK   12  A    between atoms: C_30  and  C_31
REMARK                            x       y       z     vdW  Elec       q    Type
REMARK                         _______ _______ _______ _____ _____    ______ ____
ROOT
ATOM      1  C   UNL     1      -0.758  15.909  19.475  0.00  0.00    +0.000 A 
ATOM      2  N   UNL     1       0.396  15.459  19.042  0.00  0.00    +0.000 NA
ATOM      3  C   UNL     1       0.421  14.121  19.343  0.00  0.00    +0.000 A 
ATOM      4  C   UNL     1      -0.747  13.717  19.972  0.00  0.00    +0.000 A 
ATOM      5  N   UNL     1      -1.415  14.918  20.155  0.00  0.00    +0.000 N 
ATOM      6  C   UNL     1      -2.651  15.057  20.901  0.00  0.00    +0.000 C 
ATOM      7  C   UNL     1      -3.054  13.735  21.572  0.00  0.00    +0.000 C 
ATOM      8  N   UNL     1      -2.811  12.526  20.729  0.00  0.00    +0.000 NA
ATOM      9  C   UNL     1      -1.303  12.441  20.561  0.00  0.00    +0.000 C 
ENDROOT
BRANCH   1  11
ATOM     10  C   UNL     1      -0.817  17.804  17.876  0.00  0.00    +0.000 C 
ATOM     11  C   UNL     1      -1.281  17.283  19.228  0.00  0.00    +0.000 C 
ENDBRANCH   1  11
BRANCH   3  12
ATOM     12  O   UNL     1       1.448  13.301  19.062  0.00  0.00    +0.000 OA
ATOM     13  C   UNL     1       2.561  13.513  19.926  0.00  0.00    +0.000 C 
ENDBRANCH   3  12
BRANCH   8  14
ATOM     14  C   UNL     1      -3.640  12.614  19.459  0.00  0.00    +0.000 C 
BRANCH  14  15
ATOM     15  C   UNL     1      -5.143  12.743  19.778  0.00  0.00    +0.000 A 
ATOM     16  C   UNL     1      -5.676  12.083  20.899  0.00  0.00    +0.000 A 
ATOM     17  C   UNL     1      -7.050  12.096  21.148  0.00  0.00    +0.000 A 
ATOM     18  C   UNL     1      -7.907  12.798  20.306  0.00  0.00    +0.000 A 
ATOM     19  C   UNL     1      -7.396  13.475  19.201  0.00  0.00    +0.000 A 
ATOM     20  C   UNL     1      -6.028  13.431  18.929  0.00  0.00    +0.000 A 
ENDBRANCH  14  15
BRANCH  14  21
ATOM     21  C   UNL     1      -3.416  11.502  18.395  0.00  0.00    +0.000 C 
ATOM     22  O   UNL     1      -3.704  10.327  18.646  0.00  0.00    +0.000 OA
ATOM     23  N   UNL     1      -2.879  11.863  17.179  0.00  0.00    +0.000 N 
ATOM     24  C   UNL     1      -2.577  10.885  16.159  0.00  0.00    +0.000 C 
ATOM     25  H   UNL     1      -2.544  12.805  17.054  0.00  0.00    +0.000 HD
ENDBRANCH  14  21
ENDBRANCH   8  14
BRANCH   9  26
ATOM     26  C   UNL     1      -0.909  11.074  19.979  0.00  0.00    +0.000 C 
BRANCH  26  27
ATOM     27  C   UNL     1       0.068  10.159  20.727  0.00  0.00    +0.000 C 
BRANCH  27  28
ATOM     28  C   UNL     1       1.044   9.364  19.903  0.00  0.00    +0.000 A 
ATOM     29  C   UNL     1       1.363   9.773  18.601  0.00  0.00    +0.000 A 
ATOM     30  C   UNL     1       2.166   8.984  17.777  0.00  0.00    +0.000 A 
ATOM     31  C   UNL     1       2.676   7.768  18.242  0.00  0.00    +0.000 A 
ATOM     32  C   UNL     1       3.469   6.870  17.346  0.00  0.00    +0.000 C 
ATOM     33  C   UNL     1       2.364   7.374  19.549  0.00  0.00    +0.000 A 
ATOM     34  F   UNL     1       2.824   6.202  20.014  0.00  0.00    +0.000 F 
ATOM     35  C   UNL     1       1.569   8.157  20.376  0.00  0.00    +0.000 A 
ENDBRANCH  27  28
ENDBRANCH  26  27
ENDBRANCH   9  26
TORSDOF 8
ENDMDL
MODEL 3
REMARK VINA RESULT:      -6.9      3.692      8.106
REMARK  Name = 
REMARK  12 active torsions:
REMARK  status: ('A' for Active; 'I' for Inactive)
REMARK    1  A    between atoms: C_1  and  C_2
REMARK    2  A    between atoms: C_2  and  C_3
REMARK    3  A    between atoms: C_5  and  O_6
REMARK    4  A    between atoms: O_6  and  C_7
REMARK    5  A    between atoms: N_12  and  C_13
REMARK    6  A    between atoms: C_13  and  C_14
REMARK    7  A    between atoms: C_13  and  C_18
REMARK    8  A    between atoms: N_16  and  C_17
REMARK    9  A    between atoms: C_24  and  C_25
REMARK   10  A    between atoms: C_25  and  C_26
REMARK   11  A    between atoms: C_26  and  C_27
REMARK   12  A    between atoms: C_30  and  C_31
REMARK                            x       y       z     vdW  Elec       q    Type
REMARK                         _______ _______ _______ _____ _____    ______ ____
ROOT
ATOM      1  C   UNL     1       3.351  14.759  19.428  0.00  0.00    +0.000 A 
ATOM      2  N   UNL     1       3.819  15.073  20.612  0.00  0.00    +0.000 NA
ATOM      3  C   UNL     1       2.743  15.065  21.462  0.00  0.00    +0.000 A 
ATOM      4  C   UNL     1       1.571  14.732  20.800  0.00  0.00    +0.000 A 
ATOM      5  N   UNL     1       1.985  14.675  19.478  0.00  0.00    +0.000 N 
ATOM      6  C   UNL     1       1.090  14.487  18.353  0.00  0.00    +0.000 C 
ATOM      7  C   UNL     1      -0.381  14.493  18.797  0.00  0.00    +0.000 C 
ATOM      8  N   UNL     1      -0.630  13.783  20.087  0.00  0.00    +0.000 NA
ATOM      9  C   UNL     1       0.106  14.588  21.145  0.00  0.00    +0.000 C 
ENDROOT
BRANCH   1  11
ATOM     10  C   UNL     1       5.606  15.020  18.429  0.00  0.00    +0.000 C 
ATOM     11  C   UNL     1       4.190  14.501  18.224  0.00  0.00    +0.000 C 
ENDBRANCH   1  11
BRANCH   3  12
ATOM     12  O   UNL     1       2.812  15.346  22.775  0.00  0.00    +0.000 OA
ATOM     13  C   UNL     1       4.109  15.789  23.166  0.00  0.00    +0.000 C 
ENDBRANCH   3  12
BRANCH   8  14
ATOM     14  C   UNL     1      -0.247  12.320  19.947  0.00  0.00    +0.000 C 
BRANCH  14  15
ATOM     15  C   UNL     1      -1.263  11.554  19.076  0.00  0.00    +0.000 A 
ATOM     16  C   UNL     1      -0.820  10.513  18.241  0.00  0.00    +0.000 A 
ATOM     17  C   UNL     1      -1.701   9.877  17.365  0.00  0.00    +0.000 A 
ATOM     18  C   UNL     1      -3.044  10.242  17.335  0.00  0.00    +0.000 A 
ATOM     19  C   UNL     1      -3.507  11.258  18.169  0.00  0.00    +0.000 A 
ATOM     20  C   UNL     1      -2.619  11.921  19.018  0.00  0.00    +0.000 A 
ENDBRANCH  14  15
BRANCH  14  21
ATOM     21  C   UNL     1       0.022  11.535  21.262  0.00  0.00    +0.000 C 
ATOM     22  O   UNL     1       1.180  11.306  21.630  0.00  0.00    +0.000 OA
ATOM     23  N   UNL     1      -1.060  11.094  21.991  0.00  0.00    +0.000 N 
ATOM     24  C   UNL     1      -0.902  10.302  23.188  0.00  0.00    +0.000 C 
ATOM     25  H   UNL     1      -1.984  11.190  21.599  0.00  0.00    +0.000 HD
ENDBRANCH  14  21
ENDBRANCH   8  14
BRANCH   9  26
ATOM     26  C   UNL     1      -0.326  14.141  22.551  0.00  0.00    +0.000 C 
BRANCH  26  27
ATOM     27  C   UNL     1      -1.347  14.959  23.350  0.00  0.00    +0.000 C 
BRANCH  27  28
ATOM     28  C   UNL     1      -2.763  14.451  23.392  0.00  0.00    +0.000 A 
ATOM     29  C   UNL     1      -3.787  15.168  22.758  0.00  0.00    +0.000 A 
ATOM     30  C   UNL     1      -5.121  14.785  22.891  0.00  0.00    +0.000 A 
ATOM     31  C   UNL     1      -5.462  13.666  23.657  0.00  0.00    +0.000 A 
ATOM     32  C   UNL     1      -6.892  13.288  23.878  0.00  0.00    +0.000 C 
ATOM     33  C   UNL     1      -4.432  12.946  24.275  0.00  0.00    +0.000 A 
ATOM     34  F   UNL     1      -4.732  11.880  25.032  0.00  0.00    +0.000 F 
ATOM     35  C   UNL     1      -3.100  13.320  24.143  0.00  0.00    +0.000 A 
ENDBRANCH  27  28
ENDBRANCH  26  27
ENDBRANCH   9  26
TORSDOF 8
ENDMDL
MODEL 4
REMARK VINA RESULT:      -6.9      1.056      1.275
REMARK  Name = 
REMARK  12 active torsions:
REMARK  status: ('A' for Active; 'I' for Inactive)
REMARK    1  A    between atoms: C_1  and  C_2
REMARK    2  A    between atoms: C_2  and  C_3
REMARK    3  A    between atoms: C_5  and  O_6
REMARK    4  A    between atoms: O_6  and  C_7
REMARK    5  A    between atoms: N_12  and  C_13
REMARK    6  A    between atoms: C_13  and  C_14
REMARK    7  A    between atoms: C_13  and  C_18
REMARK    8  A    between atoms: N_16  and  C_17
REMARK    9  A    between atoms: C_24  and  C_25
REMARK   10  A    between atoms: C_25  and  C_26
REMARK   11  A    between atoms: C_26  and  C_27
REMARK   12  A    between atoms: C_30  and  C_31
REMARK                            x       y       z     vdW  Elec       q    Type
REMARK                         _______ _______ _______ _____ _____    ______ ____
ROOT
ATOM      1  C   UNL     1      -4.925  11.767  18.930  0.00  0.00    +0.000 A 
ATOM      2  N   UNL     1      -4.560  10.881  18.035  0.00  0.00    +0.000 NA
ATOM      3  C   UNL     1      -3.191  10.933  17.983  0.00  0.00    +0.000 A 
ATOM      4  C   UNL     1      -2.681  11.868  18.870  0.00  0.00    +0.000 A 
ATOM      5  N   UNL     1      -3.831  12.471  19.357  0.00  0.00    +0.000 N 
ATOM      6  C   UNL     1      -3.836  13.625  20.235  0.00  0.00    +0.000 C 
ATOM      7  C   UNL     1      -2.418  14.175  20.449  0.00  0.00    +0.000 C 
ATOM      8  N   UNL     1      -1.371  13.119  20.595  0.00  0.00    +0.000 NA
ATOM      9  C   UNL     1      -1.321  12.406  19.254  0.00  0.00    +0.000 C 
ENDROOT
BRANCH   1  11
ATOM     10  C   UNL     1      -7.301  12.022  18.264  0.00  0.00    +0.000 C 
ATOM     11  C   UNL     1      -6.319  11.950  19.425  0.00  0.00    +0.000 C 
ENDBRANCH   1  11
BRANCH   3  12
ATOM     12  O   UNL     1      -2.434  10.172  17.173  0.00  0.00    +0.000 OA
ATOM     13  C   UNL     1      -2.927  10.148  15.836  0.00  0.00    +0.000 C 
ENDBRANCH   3  12
BRANCH   8  14
ATOM     14  C   UNL     1      -1.672  12.267  21.815  0.00  0.00    +0.000 C 
BRANCH  14  15
ATOM     15  C   UNL     1      -2.202  13.124  22.982  0.00  0.00    +0.000 A 
ATOM     16  C   UNL     1      -1.408  14.163  23.498  0.00  0.00    +0.000 A 
ATOM     17  C   UNL     1      -1.819  14.883  24.622  0.00  0.00    +0.000 A 
ATOM     18  C   UNL     1      -3.044  14.605  25.223  0.00  0.00    +0.000 A 
ATOM     19  C   UNL     1      -3.854  13.593  24.712  0.00  0.00    +0.000 A 
ATOM     20  C   UNL     1      -3.427  12.847  23.613  0.00  0.00    +0.000 A 
ENDBRANCH  14  15
BRANCH  14  21
ATOM     21  C   UNL     1      -0.535  11.332  22.318  0.00  0.00    +0.000 C 
ATOM     22  O   UNL     1       0.648  11.600  22.080  0.00  0.00    +0.000 OA
ATOM     23  N   UNL     1      -0.884  10.199  23.018  0.00  0.00    +0.000 N 
ATOM     24  C   UNL     1       0.104   9.243  23.464  0.00  0.00    +0.000 C 
ATOM     25  H   UNL     1      -1.858   9.948  23.087  0.00  0.00    +0.000 HD
ENDBRANCH  14  21
ENDBRANCH   8  14
BRANCH   9  26
ATOM     26  C   UNL     1      -0.075  11.509  19.173  0.00  0.00    +0.000 C 
BRANCH  26  27
ATOM     27  C   UNL     1      -0.164  10.017  19.514  0.00  0.00    +0.000 C 
BRANCH  27  28
ATOM     28  C   UNL     1       1.004   9.147  19.135  0.00  0.00    +0.000 A 
ATOM     29  C   UNL     1       1.647   9.330  17.904  0.00  0.00    +0.000 A 
ATOM     30  C   UNL     1       2.647   8.455  17.478  0.00  0.00    +0.000 A 
ATOM     31  C   UNL     1       3.033   7.379  18.283  0.00  0.00    +0.000 A 
ATOM     32  C   UNL     1       4.044   6.384  17.809  0.00  0.00    +0.000 C 
ATOM     33  C   UNL     1       2.396   7.212  19.518  0.00  0.00    +0.000 A 
ATOM     34  F   UNL     1       2.732   6.175  20.301  0.00  0.00    +0.000 F 
ATOM     35  C   UNL     1       1.402   8.082  19.949  0.00  0.00    +0.000 A 
ENDBRANCH  27  28
ENDBRANCH  26  27
ENDBRANCH   9  26
TORSDOF 8
ENDMDL
MODEL 5
REMARK VINA RESULT:      -6.9      2.274      5.304
REMARK  Name = 
REMARK  12 active torsions:
REMARK  status: ('A' for Active; 'I' for Inactive)
REMARK    1  A    between atoms: C_1  and  C_2
REMARK    2  A    between atoms: C_2  and  C_3
REMARK    3  A    between atoms: C_5  and  O_6
REMARK    4  A    between atoms: O_6  and  C_7
REMARK    5  A    between atoms: N_12  and  C_13
REMARK    6  A    between atoms: C_13  and  C_14
REMARK    7  A    between atoms: C_13  and  C_18
REMARK    8  A    between atoms: N_16  and  C_17
REMARK    9  A    between atoms: C_24  and  C_25
REMARK   10  A    between atoms: C_25  and  C_26
REMARK   11  A    between atoms: C_26  and  C_27
REMARK   12  A    between atoms: C_30  and  C_31
REMARK                            x       y       z     vdW  Elec       q    Type
REMARK                         _______ _______ _______ _____ _____    ______ ____
ROOT
ATOM      1  C   UNL     1       0.233  14.527  22.566  0.00  0.00    +0.000 A 
ATOM      2  N   UNL     1       1.455  14.843  22.209  0.00  0.00    +0.000 NA
ATOM      3  C   UNL     1       1.862  13.866  21.337  0.00  0.00    +0.000 A 
ATOM      4  C   UNL     1       0.872  12.916  21.135  0.00  0.00    +0.000 A 
ATOM      5  N   UNL     1      -0.101  13.306  22.042  0.00  0.00    +0.000 N 
ATOM      6  C   UNL     1      -1.305  12.548  22.320  0.00  0.00    +0.000 C 
ATOM      7  C   UNL     1      -1.303  11.200  21.584  0.00  0.00    +0.000 C 
ATOM      8  N   UNL     1      -0.754  11.265  20.196  0.00  0.00    +0.000 NA
ATOM      9  C   UNL     1       0.712  11.631  20.354  0.00  0.00    +0.000 C 
ENDROOT
BRANCH   1  11
ATOM     10  C   UNL     1      -1.434  16.363  22.515  0.00  0.00    +0.000 C 
ATOM     11  C   UNL     1      -0.661  15.388  23.392  0.00  0.00    +0.000 C 
ENDBRANCH   1  11
BRANCH   3  12
ATOM     12  O   UNL     1       3.070  13.832  20.749  0.00  0.00    +0.000 OA
ATOM     13  C   UNL     1       3.144  14.686  19.611  0.00  0.00    +0.000 C 
ENDBRANCH   3  12
BRANCH   8  14
ATOM     14  C   UNL     1      -1.608  12.195  19.352  0.00  0.00    +0.000 C 
BRANCH  14  15
ATOM     15  C   UNL     1      -2.384  11.417  18.270  0.00  0.00    +0.000 A 
ATOM     16  C   UNL     1      -1.765  10.344  17.606  0.00  0.00    +0.000 A 
ATOM     17  C   UNL     1      -2.406   9.693  16.550  0.00  0.00    +0.000 A 
ATOM     18  C   UNL     1      -3.688  10.077  16.166  0.00  0.00    +0.000 A 
ATOM     19  C   UNL     1      -4.326  11.125  16.826  0.00  0.00    +0.000 A 
ATOM     20  C   UNL     1      -3.671  11.802  17.856  0.00  0.00    +0.000 A 
ENDBRANCH  14  15
BRANCH  14  21
ATOM     21  C   UNL     1      -0.893  13.420  18.715  0.00  0.00    +0.000 C 
ATOM     22  O   UNL     1      -0.198  13.284  17.702  0.00  0.00    +0.000 OA
ATOM     23  N   UNL     1      -1.046  14.649  19.317  0.00  0.00    +0.000 N 
ATOM     24  C   UNL     1      -0.365  15.827  18.831  0.00  0.00    +0.000 C 
ATOM     25  H   UNL     1      -1.517  14.702  20.207  0.00  0.00    +0.000 HD
ENDBRANCH  14  21
ENDBRANCH   8  14
BRANCH   9  26
ATOM     26  C   UNL     1       1.459  11.425  19.027  0.00  0.00    +0.000 C 
BRANCH  26  27
ATOM     27  C   UNL     1       1.190  10.186  18.164  0.00  0.00    +0.000 C 
BRANCH  27  28
ATOM     28  C   UNL     1       1.862   8.902  18.566  0.00  0.00    +0.000 A 
ATOM     29  C   UNL     1       2.766   8.278  17.697  0.00  0.00    +0.000 A 
ATOM     30  C   UNL     1       3.302   7.025  17.995  0.00  0.00    +0.000 A 
ATOM     31  C   UNL     1       2.951   6.370  19.179  0.00  0.00    +0.000 A 
ATOM     32  C   UNL     1       3.451   4.992  19.477  0.00  0.00    +0.000 C 
ATOM     33  C   UNL     1       2.058   7.006  20.050  0.00  0.00    +0.000 A 
ATOM     34  F   UNL     1       1.688   6.391  21.183  0.00  0.00    +0.000 F 
ATOM     35  C   UNL     1       1.524   8.256  19.760  0.00  0.00    +0.000 A 
ENDBRANCH  27  28
ENDBRANCH  26  27
ENDBRANCH   9  26
TORSDOF 8
ENDMDL
MODEL 6
REMARK VINA RESULT:      -6.9      0.876      1.259
REMARK  Name = 
REMARK  12 active torsions:
REMARK  status: ('A' for Active; 'I' for Inactive)
REMARK    1  A    between atoms: C_1  and  C_2
REMARK    2  A    between atoms: C_2  and  C_3
REMARK    3  A    between atoms: C_5  and  O_6
REMARK    4  A    between atoms: O_6  and  C_7
REMARK    5  A    between atoms: N_12  and  C_13
REMARK    6  A    between atoms: C_13  and  C_14
REMARK    7  A    between atoms: C_13  and  C_18
REMARK    8  A    between atoms: N_16  and  C_17
REMARK    9  A    between atoms: C_24  and  C_25
REMARK   10  A    between atoms: C_25  and  C_26
REMARK   11  A    between atoms: C_26  and  C_27
REMARK   12  A    between atoms: C_30  and  C_31
REMARK                            x       y       z     vdW  Elec       q    Type
REMARK                         _______ _______ _______ _____ _____    ______ ____
ROOT
ATOM      1  C   UNL     1      -4.478  11.998  18.600  0.00  0.00    +0.000 A 
ATOM      2  N   UNL     1      -4.422  10.984  17.770  0.00  0.00    +0.000 NA
ATOM      3  C   UNL     1      -3.126  10.537  17.801  0.00  0.00    +0.000 A 
ATOM      4  C   UNL     1      -2.349  11.281  18.675  0.00  0.00    +0.000 A 
ATOM      5  N   UNL     1      -3.221  12.287  19.063  0.00  0.00    +0.000 N 
ATOM      6  C   UNL     1      -2.844  13.419  19.886  0.00  0.00    +0.000 C 
ATOM      7  C   UNL     1      -1.333  13.435  20.162  0.00  0.00    +0.000 C 
ATOM      8  N   UNL     1      -0.747  12.085  20.420  0.00  0.00    +0.000 NA
ATOM      9  C   UNL     1      -0.904  11.317  19.118  0.00  0.00    +0.000 C 
ENDROOT
BRANCH   1  11
ATOM     10  C   UNL     1      -6.677  12.835  17.815  0.00  0.00    +0.000 C 
ATOM     11  C   UNL     1      -5.730  12.702  18.999  0.00  0.00    +0.000 C 
ENDBRANCH   1  11
BRANCH   3  12
ATOM     12  O   UNL     1      -2.664   9.505  17.075  0.00  0.00    +0.000 OA
ATOM     13  C   UNL     1      -2.824   9.713  15.674  0.00  0.00    +0.000 C 
ENDBRANCH   3  12
BRANCH   8  14
ATOM     14  C   UNL     1      -1.388  11.479  21.657  0.00  0.00    +0.000 C 
BRANCH  14  15
ATOM     15  C   UNL     1      -1.864  12.571  22.635  0.00  0.00    +0.000 A 
ATOM     16  C   UNL     1      -0.947  13.519  23.120  0.00  0.00    +0.000 A 
ATOM     17  C   UNL     1      -1.329  14.451  24.088  0.00  0.00    +0.000 A 
ATOM     18  C   UNL     1      -2.640  14.476  24.556  0.00  0.00    +0.000 A 
ATOM     19  C   UNL     1      -3.569  13.558  24.071  0.00  0.00    +0.000 A 
ATOM     20  C   UNL     1      -3.179  12.601  23.133  0.00  0.00    +0.000 A 
ENDBRANCH  14  15
BRANCH  14  21
ATOM     21  C   UNL     1      -0.561  10.406  22.421  0.00  0.00    +0.000 C 
ATOM     22  O   UNL     1      -1.067   9.771  23.354  0.00  0.00    +0.000 OA
ATOM     23  N   UNL     1       0.745  10.196  22.040  0.00  0.00    +0.000 N 
ATOM     24  C   UNL     1       1.604   9.266  22.737  0.00  0.00    +0.000 C 
ATOM     25  H   UNL     1       1.161  10.814  21.360  0.00  0.00    +0.000 HD
ENDBRANCH  14  21
ENDBRANCH   8  14
BRANCH   9  26
ATOM     26  C   UNL     1      -0.066  10.029  19.156  0.00  0.00    +0.000 C 
BRANCH  26  27
ATOM     27  C   UNL     1       1.273   9.946  18.412  0.00  0.00    +0.000 C 
BRANCH  27  28
ATOM     28  C   UNL     1       1.999   8.629  18.434  0.00  0.00    +0.000 A 
ATOM     29  C   UNL     1       1.839   7.755  19.518  0.00  0.00    +0.000 A 
ATOM     30  C   UNL     1       2.598   6.589  19.619  0.00  0.00    +0.000 A 
ATOM     31  C   UNL     1       3.531   6.266  18.630  0.00  0.00    +0.000 A 
ATOM     32  C   UNL     1       4.412   5.064  18.762  0.00  0.00    +0.000 C 
ATOM     33  C   UNL     1       3.676   7.137  17.543  0.00  0.00    +0.000 A 
ATOM     34  F   UNL     1       4.580   6.863  16.590  0.00  0.00    +0.000 F 
ATOM     35  C   UNL     1       2.920   8.298  17.434  0.00  0.00    +0.000 A 
ENDBRANCH  27  28
ENDBRANCH  26  27
ENDBRANCH   9  26
TORSDOF 8
ENDMDL
MODEL 7
REMARK VINA RESULT:      -6.8      2.516      4.358
REMARK  Name = 
REMARK  12 active torsions:
REMARK  status: ('A' for Active; 'I' for Inactive)
REMARK    1  A    between atoms: C_1  and  C_2
REMARK    2  A    between atoms: C_2  and  C_3
REMARK    3  A    between atoms: C_5  and  O_6
REMARK    4  A    between atoms: O_6  and  C_7
REMARK    5  A    between atoms: N_12  and  C_13
REMARK    6  A    between atoms: C_13  and  C_14
REMARK    7  A    between atoms: C_13  and  C_18
REMARK    8  A    between atoms: N_16  and  C_17
REMARK    9  A    between atoms: C_24  and  C_25
REMARK   10  A    between atoms: C_25  and  C_26
REMARK   11  A    between atoms: C_26  and  C_27
REMARK   12  A    between atoms: C_30  and  C_31
REMARK                            x       y       z     vdW  Elec       q    Type
REMARK                         _______ _______ _______ _____ _____    ______ ____
ROOT
ATOM      1  C   UNL     1      -1.710  11.844  22.555  0.00  0.00    +0.000 A 
ATOM      2  N   UNL     1      -1.196  10.707  22.959  0.00  0.00    +0.000 NA
ATOM      3  C   UNL     1      -0.466  10.223  21.904  0.00  0.00    +0.000 A 
ATOM      4  C   UNL     1      -0.515  11.078  20.813  0.00  0.00    +0.000 A 
ATOM      5  N   UNL     1      -1.429  12.034  21.228  0.00  0.00    +0.000 N 
ATOM      6  C   UNL     1      -1.936  13.097  20.382  0.00  0.00    +0.000 C 
ATOM      7  C   UNL     1      -1.439  12.950  18.936  0.00  0.00    +0.000 C 
ATOM      8  N   UNL     1      -0.016  12.509  18.824  0.00  0.00    +0.000 NA
ATOM      9  C   UNL     1       0.022  11.103  19.400  0.00  0.00    +0.000 C 
ENDROOT
BRANCH   1  11
ATOM     10  C   UNL     1      -1.569  13.958  23.845  0.00  0.00    +0.000 C 
ATOM     11  C   UNL     1      -2.457  12.796  23.426  0.00  0.00    +0.000 C 
ENDBRANCH   1  11
BRANCH   3  12
ATOM     12  O   UNL     1       0.214   9.064  21.922  0.00  0.00    +0.000 OA
ATOM     13  C   UNL     1       1.488   9.193  22.549  0.00  0.00    +0.000 C 
ENDBRANCH   3  12
BRANCH   8  14
ATOM     14  C   UNL     1       0.891  13.542  19.471  0.00  0.00    +0.000 C 
BRANCH  14  15
ATOM     15  C   UNL     1       0.207  14.921  19.545  0.00  0.00    +0.000 A 
ATOM     16  C   UNL     1      -0.108  15.607  18.360  0.00  0.00    +0.000 A 
ATOM     17  C   UNL     1      -0.629  16.902  18.401  0.00  0.00    +0.000 A 
ATOM     18  C   UNL     1      -0.880  17.517  19.625  0.00  0.00    +0.000 A 
ATOM     19  C   UNL     1      -0.593  16.845  20.811  0.00  0.00    +0.000 A 
ATOM     20  C   UNL     1      -0.037  15.566  20.771  0.00  0.00    +0.000 A 
ENDBRANCH  14  15
BRANCH  14  21
ATOM     21  C   UNL     1       2.322  13.690  18.878  0.00  0.00    +0.000 C 
ATOM     22  O   UNL     1       2.662  13.030  17.889  0.00  0.00    +0.000 OA
ATOM     23  N   UNL     1       3.194  14.561  19.491  0.00  0.00    +0.000 N 
ATOM     24  C   UNL     1       4.561  14.711  19.047  0.00  0.00    +0.000 C 
ATOM     25  H   UNL     1       2.925  14.988  20.364  0.00  0.00    +0.000 HD
ENDBRANCH  14  21
ENDBRANCH   8  14
BRANCH   9  26
ATOM     26  C   UNL     1       1.359  10.424  19.060  0.00  0.00    +0.000 C 
BRANCH  26  27
ATOM     27  C   UNL     1       1.416   9.282  18.039  0.00  0.00    +0.000 C 
BRANCH  27  28
ATOM     28  C   UNL     1       2.300   8.108  18.361  0.00  0.00    +0.000 A 
ATOM     29  C   UNL     1       3.332   7.742  17.487  0.00  0.00    +0.000 A 
ATOM     30  C   UNL     1       4.080   6.584  17.701  0.00  0.00    +0.000 A 
ATOM     31  C   UNL     1       3.815   5.767  18.804  0.00  0.00    +0.000 A 
ATOM     32  C   UNL     1       4.550   4.480  19.005  0.00  0.00    +0.000 C 
ATOM     33  C   UNL     1       2.791   6.146  19.681  0.00  0.00    +0.000 A 
ATOM     34  F   UNL     1       2.502   5.369  20.736  0.00  0.00    +0.000 F 
ATOM     35  C   UNL     1       2.046   7.301  19.475  0.00  0.00    +0.000 A 
ENDBRANCH  27  28
ENDBRANCH  26  27
ENDBRANCH   9  26
TORSDOF 8
ENDMDL
MODEL 8
REMARK VINA RESULT:      -6.8      2.228      4.793
REMARK  Name = 
REMARK  12 active torsions:
REMARK  status: ('A' for Active; 'I' for Inactive)
REMARK    1  A    between atoms: C_1  and  C_2
REMARK    2  A    between atoms: C_2  and  C_3
REMARK    3  A    between atoms: C_5  and  O_6
REMARK    4  A    between atoms: O_6  and  C_7
REMARK    5  A    between atoms: N_12  and  C_13
REMARK    6  A    between atoms: C_13  and  C_14
REMARK    7  A    between atoms: C_13  and  C_18
REMARK    8  A    between atoms: N_16  and  C_17
REMARK    9  A    between atoms: C_24  and  C_25
REMARK   10  A    between atoms: C_25  and  C_26
REMARK   11  A    between atoms: C_26  and  C_27
REMARK   12  A    between atoms: C_30  and  C_31
REMARK                            x       y       z     vdW  Elec       q    Type
REMARK                         _______ _______ _______ _____ _____    ______ ____
ROOT
ATOM      1  C   UNL     1      -0.491  15.497  19.159  0.00  0.00    +0.000 A 
ATOM      2  N   UNL     1       0.644  15.167  18.593  0.00  0.00    +0.000 NA
ATOM      3  C   UNL     1       0.727  13.800  18.672  0.00  0.00    +0.000 A 
ATOM      4  C   UNL     1      -0.385  13.256  19.297  0.00  0.00    +0.000 A 
ATOM      5  N   UNL     1      -1.074  14.386  19.710  0.00  0.00    +0.000 N 
ATOM      6  C   UNL     1      -2.263  14.356  20.540  0.00  0.00    +0.000 C 
ATOM      7  C   UNL     1      -2.583  12.930  21.012  0.00  0.00    +0.000 C 
ATOM      8  N   UNL     1      -2.360  11.880  19.973  0.00  0.00    +0.000 NA
ATOM      9  C   UNL     1      -0.865  11.882  19.705  0.00  0.00    +0.000 C 
ENDROOT
BRANCH   1  11
ATOM     10  C   UNL     1      -0.297  17.789  18.232  0.00  0.00    +0.000 C 
ATOM     11  C   UNL     1      -1.069  16.871  19.169  0.00  0.00    +0.000 C 
ENDBRANCH   1  11
BRANCH   3  12
ATOM     12  O   UNL     1       1.757  13.076  18.203  0.00  0.00    +0.000 OA
ATOM     13  C   UNL     1       3.011  13.723  18.405  0.00  0.00    +0.000 C 
ENDBRANCH   3  12
BRANCH   8  14
ATOM     14  C   UNL     1      -3.272  12.137  18.786  0.00  0.00    +0.000 C 
BRANCH  14  15
ATOM     15  C   UNL     1      -4.729  12.361  19.235  0.00  0.00    +0.000 A 
ATOM     16  C   UNL     1      -5.131  11.960  20.521  0.00  0.00    +0.000 A 
ATOM     17  C   UNL     1      -6.468  12.055  20.913  0.00  0.00    +0.000 A 
ATOM     18  C   UNL     1      -7.417  12.586  20.043  0.00  0.00    +0.000 A 
ATOM     19  C   UNL     1      -7.034  13.008  18.772  0.00  0.00    +0.000 A 
ATOM     20  C   UNL     1      -5.705  12.879  18.365  0.00  0.00    +0.000 A 
ENDBRANCH  14  15
BRANCH  14  21
ATOM     21  C   UNL     1      -3.227  11.098  17.629  0.00  0.00    +0.000 C 
ATOM     22  O   UNL     1      -3.493   9.910  17.842  0.00  0.00    +0.000 OA
ATOM     23  N   UNL     1      -2.873  11.537  16.372  0.00  0.00    +0.000 N 
ATOM     24  C   UNL     1      -2.743  10.629  15.256  0.00  0.00    +0.000 C 
ATOM     25  H   UNL     1      -2.545  12.484  16.260  0.00  0.00    +0.000 HD
ENDBRANCH  14  21
ENDBRANCH   8  14
BRANCH   9  26
ATOM     26  C   UNL     1      -0.469  10.641  18.888  0.00  0.00    +0.000 C 
BRANCH  26  27
ATOM     27  C   UNL     1       1.005  10.336  18.597  0.00  0.00    +0.000 C 
BRANCH  27  28
ATOM     28  C   UNL     1       1.497   8.945  18.890  0.00  0.00    +0.000 A 
ATOM     29  C   UNL     1       1.333   8.395  20.169  0.00  0.00    +0.000 A 
ATOM     30  C   UNL     1       1.892   7.160  20.497  0.00  0.00    +0.000 A 
ATOM     31  C   UNL     1       2.625   6.442  19.548  0.00  0.00    +0.000 A 
ATOM     32  C   UNL     1       3.301   5.156  19.906  0.00  0.00    +0.000 C 
ATOM     33  C   UNL     1       2.773   6.991  18.269  0.00  0.00    +0.000 A 
ATOM     34  F   UNL     1       3.488   6.332  17.344  0.00  0.00    +0.000 F 
ATOM     35  C   UNL     1       2.214   8.218  17.934  0.00  0.00    +0.000 A 
ENDBRANCH  27  28
ENDBRANCH  26  27
ENDBRANCH   9  26
TORSDOF 8
ENDMDL
MODEL 9
REMARK VINA RESULT:      -6.7      2.696      4.554
REMARK  Name = 
REMARK  12 active torsions:
REMARK  status: ('A' for Active; 'I' for Inactive)
REMARK    1  A    between atoms: C_1  and  C_2
REMARK    2  A    between atoms: C_2  and  C_3
REMARK    3  A    between atoms: C_5  and  O_6
REMARK    4  A    between atoms: O_6  and  C_7
REMARK    5  A    between atoms: N_12  and  C_13
REMARK    6  A    between atoms: C_13  and  C_14
REMARK    7  A    between atoms: C_13  and  C_18
REMARK    8  A    between atoms: N_16  and  C_17
REMARK    9  A    between atoms: C_24  and  C_25
REMARK   10  A    between atoms: C_25  and  C_26
REMARK   11  A    between atoms: C_26  and  C_27
REMARK   12  A    between atoms: C_30  and  C_31
REMARK                            x       y       z     vdW  Elec       q    Type
REMARK                         _______ _______ _______ _____ _____    ______ ____
ROOT
ATOM      1  C   UNL     1      -1.615  12.220  22.802  0.00  0.00    +0.000 A 
ATOM      2  N   UNL     1      -1.093  11.119  23.286  0.00  0.00    +0.000 NA
ATOM      3  C   UNL     1      -0.382  10.551  22.261  0.00  0.00    +0.000 A 
ATOM      4  C   UNL     1      -0.451  11.314  21.106  0.00  0.00    +0.000 A 
ATOM      5  N   UNL     1      -1.358  12.302  21.459  0.00  0.00    +0.000 N 
ATOM      6  C   UNL     1      -1.881  13.293  20.539  0.00  0.00    +0.000 C 
ATOM      7  C   UNL     1      -1.410  13.029  19.101  0.00  0.00    +0.000 C 
ATOM      8  N   UNL     1       0.011  12.580  18.999  0.00  0.00    +0.000 NA
ATOM      9  C   UNL     1       0.061  11.225  19.686  0.00  0.00    +0.000 C 
ENDROOT
BRANCH   1  11
ATOM     10  C   UNL     1      -1.413  14.361  24.039  0.00  0.00    +0.000 C 
ATOM     11  C   UNL     1      -2.347  13.240  23.606  0.00  0.00    +0.000 C 
ENDBRANCH   1  11
BRANCH   3  12
ATOM     12  O   UNL     1       0.300   9.397  22.361  0.00  0.00    +0.000 OA
ATOM     13  C   UNL     1      -0.429   8.290  21.836  0.00  0.00    +0.000 C 
ENDBRANCH   3  12
BRANCH   8  14
ATOM     14  C   UNL     1       0.929  13.661  19.543  0.00  0.00    +0.000 C 
BRANCH  14  15
ATOM     15  C   UNL     1       0.235  15.037  19.547  0.00  0.00    +0.000 A 
ATOM     16  C   UNL     1      -0.088  15.657  18.328  0.00  0.00    +0.000 A 
ATOM     17  C   UNL     1      -0.619  16.948  18.303  0.00  0.00    +0.000 A 
ATOM     18  C   UNL     1      -0.872  17.625  19.493  0.00  0.00    +0.000 A 
ATOM     19  C   UNL     1      -0.578  17.018  20.713  0.00  0.00    +0.000 A 
ATOM     20  C   UNL     1      -0.012  15.743  20.738  0.00  0.00    +0.000 A 
ENDBRANCH  14  15
BRANCH  14  21
ATOM     21  C   UNL     1       2.338  13.779  18.894  0.00  0.00    +0.000 C 
ATOM     22  O   UNL     1       2.640  13.079  17.921  0.00  0.00    +0.000 OA
ATOM     23  N   UNL     1       3.234  14.669  19.441  0.00  0.00    +0.000 N 
ATOM     24  C   UNL     1       4.584  14.795  18.942  0.00  0.00    +0.000 C 
ATOM     25  H   UNL     1       2.998  15.132  20.305  0.00  0.00    +0.000 HD
ENDBRANCH  14  21
ENDBRANCH   8  14
BRANCH   9  26
ATOM     26  C   UNL     1       1.391  10.520  19.378  0.00  0.00    +0.000 C 
BRANCH  26  27
ATOM     27  C   UNL     1       1.529   9.616  18.147  0.00  0.00    +0.000 C 
BRANCH  27  28
ATOM     28  C   UNL     1       2.228   8.296  18.330  0.00  0.00    +0.000 A 
ATOM     29  C   UNL     1       2.033   7.552  19.501  0.00  0.00    +0.000 A 
ATOM     30  C   UNL     1       2.767   6.392  19.746  0.00  0.00    +0.000 A 
ATOM     31  C   UNL     1       3.711   5.944  18.817  0.00  0.00    +0.000 A 
ATOM     32  C   UNL     1       4.565   4.749  19.099  0.00  0.00    +0.000 C 
ATOM     33  C   UNL     1       3.890   6.685  17.643  0.00  0.00    +0.000 A 
ATOM     34  F   UNL     1       4.804   6.289  16.743  0.00  0.00    +0.000 F 
ATOM     35  C   UNL     1       3.159   7.839  17.391  0.00  0.00    +0.000 A 
ENDBRANCH  27  28
ENDBRANCH  26  27
ENDBRANCH   9  26
TORSDOF 8
ENDMDL
