MODEL 1
REMARK VINA RESULT:      -7.7      0.000      0.000
REMARK  Name = 
REMARK  5 active torsions:
REMARK  status: ('A' for Active; 'I' for Inactive)
REMARK    1  A    between atoms: C_1  and  S_2
REMARK    2  A    between atoms: S_2  and  C_3
REMARK    3  A    between atoms: C_6  and  C_7
REMARK    4  A    between atoms: C_8  and  C_9
REMARK    5  A    between atoms: N_16  and  C_17
REMARK                            x       y       z     vdW  Elec       q    Type
REMARK                         _______ _______ _______ _____ _____    ______ ____
ROOT
ATOM      1  C   UNL     1       2.826   5.298  17.919  0.00  0.00    +0.000 C 
ATOM      2  C   UNL     1       4.061   4.927  17.593  0.00  0.00    +0.000 C 
ATOM      3  C   UNL     1       3.976   3.642  16.868  0.00  0.00    +0.000 C 
ATOM      4  N   UNL     1       2.560   3.214  17.001  0.00  0.00    +0.000 NA
ATOM      5  C   UNL     1       2.414   2.179  18.025  0.00  0.00    +0.000 C 
ATOM      6  O   UNL     1       1.843   4.385  17.557  0.00  0.00    +0.000 OA
ENDROOT
BRANCH   1  10
ATOM      7  C   UNL     1       1.511   8.865  19.850  0.00  0.00    +0.000 A 
ATOM      8  C   UNL     1       1.809   8.864  18.484  0.00  0.00    +0.000 A 
ATOM      9  C   UNL     1       2.243   7.694  17.859  0.00  0.00    +0.000 A 
ATOM     10  C   UNL     1       2.392   6.512  18.593  0.00  0.00    +0.000 A 
ATOM     11  C   UNL     1       2.137   6.523  19.969  0.00  0.00    +0.000 A 
ATOM     12  C   UNL     1       1.701   7.696  20.593  0.00  0.00    +0.000 A 
BRANCH   7  14
ATOM     13  C   UNL     1       0.483   9.625  22.276  0.00  0.00    +0.000 C 
ATOM     14  S   UNL     1       0.906  10.333  20.659  0.00  0.00    +0.000 S 
ENDBRANCH   7  14
ENDBRANCH   1  10
BRANCH   2  15
ATOM     15  C   UNL     1       5.305   5.605  17.915  0.00  0.00    +0.000 A 
ATOM     16  C   UNL     1       5.756   6.643  17.090  0.00  0.00    +0.000 A 
ATOM     17  C   UNL     1       6.994   7.240  17.324  0.00  0.00    +0.000 A 
ATOM     18  C   UNL     1       7.785   6.805  18.387  0.00  0.00    +0.000 A 
ATOM     19  C   UNL     1       7.334   5.780  19.219  0.00  0.00    +0.000 A 
ATOM     20  C   UNL     1       6.096   5.182  18.984  0.00  0.00    +0.000 A 
ENDBRANCH   2  15
TORSDOF 3
ENDMDL
MODEL 2
REMARK VINA RESULT:      -7.5      0.178      1.094
REMARK  Name = 
REMARK  5 active torsions:
REMARK  status: ('A' for Active; 'I' for Inactive)
REMARK    1  A    between atoms: C_1  and  S_2
REMARK    2  A    between atoms: S_2  and  C_3
REMARK    3  A    between atoms: C_6  and  C_7
REMARK    4  A    between atoms: C_8  and  C_9
REMARK    5  A    between atoms: N_16  and  C_17
REMARK                            x       y       z     vdW  Elec       q    Type
REMARK                         _______ _______ _______ _____ _____    ______ ____
ROOT
ATOM      1  C   UNL     1       2.841   5.250  17.917  0.00  0.00    +0.000 C 
ATOM      2  C   UNL     1       4.081   4.904  17.584  0.00  0.00    +0.000 C 
ATOM      3  C   UNL     1       4.017   3.625  16.848  0.00  0.00    +0.000 C 
ATOM      4  N   UNL     1       2.609   3.171  16.980  0.00  0.00    +0.000 NA
ATOM      5  C   UNL     1       2.484   2.124  17.996  0.00  0.00    +0.000 C 
ATOM      6  O   UNL     1       1.874   4.324  17.549  0.00  0.00    +0.000 OA
ENDROOT
BRANCH   1  10
ATOM      7  C   UNL     1       1.554   8.756  19.974  0.00  0.00    +0.000 A 
ATOM      8  C   UNL     1       1.675   7.538  20.650  0.00  0.00    +0.000 A 
ATOM      9  C   UNL     1       2.092   6.393  19.970  0.00  0.00    +0.000 A 
ATOM     10  C   UNL     1       2.388   6.450  18.603  0.00  0.00    +0.000 A 
ATOM     11  C   UNL     1       2.225   7.658  17.917  0.00  0.00    +0.000 A 
ATOM     12  C   UNL     1       1.808   8.804  18.600  0.00  0.00    +0.000 A 
BRANCH   7  14
ATOM     13  C   UNL     1      -0.112   9.531  22.009  0.00  0.00    +0.000 C 
ATOM     14  S   UNL     1       1.073  10.242  20.833  0.00  0.00    +0.000 S 
ENDBRANCH   7  14
ENDBRANCH   1  10
BRANCH   2  15
ATOM     15  C   UNL     1       5.314   5.601  17.908  0.00  0.00    +0.000 A 
ATOM     16  C   UNL     1       5.738   6.662  17.099  0.00  0.00    +0.000 A 
ATOM     17  C   UNL     1       6.965   7.279  17.335  0.00  0.00    +0.000 A 
ATOM     18  C   UNL     1       7.774   6.842  18.383  0.00  0.00    +0.000 A 
ATOM     19  C   UNL     1       7.350   5.793  19.200  0.00  0.00    +0.000 A 
ATOM     20  C   UNL     1       6.123   5.174  18.964  0.00  0.00    +0.000 A 
ENDBRANCH   2  15
TORSDOF 3
ENDMDL
MODEL 3
REMARK VINA RESULT:      -7.4      0.209      1.101
REMARK  Name = 
REMARK  5 active torsions:
REMARK  status: ('A' for Active; 'I' for Inactive)
REMARK    1  A    between atoms: C_1  and  S_2
REMARK    2  A    between atoms: S_2  and  C_3
REMARK    3  A    between atoms: C_6  and  C_7
REMARK    4  A    between atoms: C_8  and  C_9
REMARK    5  A    between atoms: N_16  and  C_17
REMARK                            x       y       z     vdW  Elec       q    Type
REMARK                         _______ _______ _______ _____ _____    ______ ____
ROOT
ATOM      1  C   UNL     1       2.763   5.225  17.884  0.00  0.00    +0.000 C 
ATOM      2  C   UNL     1       3.975   4.800  17.543  0.00  0.00    +0.000 C 
ATOM      3  C   UNL     1       3.831   3.477  16.901  0.00  0.00    +0.000 C 
ATOM      4  N   UNL     1       2.410   3.098  17.105  0.00  0.00    +0.000 NA
ATOM      5  C   UNL     1       2.271   2.132  18.195  0.00  0.00    +0.000 C 
ATOM      6  O   UNL     1       1.744   4.321  17.611  0.00  0.00    +0.000 OA
ENDROOT
BRANCH   1  10
ATOM      7  C   UNL     1       1.610   8.938  19.635  0.00  0.00    +0.000 A 
ATOM      8  C   UNL     1       1.865   8.847  18.263  0.00  0.00    +0.000 A 
ATOM      9  C   UNL     1       2.246   7.630  17.697  0.00  0.00    +0.000 A 
ATOM     10  C   UNL     1       2.384   6.490  18.497  0.00  0.00    +0.000 A 
ATOM     11  C   UNL     1       2.173   6.590  19.876  0.00  0.00    +0.000 A 
ATOM     12  C   UNL     1       1.790   7.811  20.441  0.00  0.00    +0.000 A 
BRANCH   7  14
ATOM     13  C   UNL     1       0.453   9.834  21.954  0.00  0.00    +0.000 C 
ATOM     14  S   UNL     1       1.072  10.470  20.371  0.00  0.00    +0.000 S 
ENDBRANCH   7  14
ENDBRANCH   1  10
BRANCH   2  15
ATOM     15  C   UNL     1       5.247   5.460  17.781  0.00  0.00    +0.000 A 
ATOM     16  C   UNL     1       6.023   5.080  18.883  0.00  0.00    +0.000 A 
ATOM     17  C   UNL     1       7.198   5.766  19.185  0.00  0.00    +0.000 A 
ATOM     18  C   UNL     1       7.605   6.834  18.387  0.00  0.00    +0.000 A 
ATOM     19  C   UNL     1       6.841   7.209  17.281  0.00  0.00    +0.000 A 
ATOM     20  C   UNL     1       5.665   6.524  16.979  0.00  0.00    +0.000 A 
ENDBRANCH   2  15
TORSDOF 3
ENDMDL
MODEL 4
REMARK VINA RESULT:      -7.2      2.146      3.995
REMARK  Name = 
REMARK  5 active torsions:
REMARK  status: ('A' for Active; 'I' for Inactive)
REMARK    1  A    between atoms: C_1  and  S_2
REMARK    2  A    between atoms: S_2  and  C_3
REMARK    3  A    between atoms: C_6  and  C_7
REMARK    4  A    between atoms: C_8  and  C_9
REMARK    5  A    between atoms: N_16  and  C_17
REMARK                            x       y       z     vdW  Elec       q    Type
REMARK                         _______ _______ _______ _____ _____    ______ ____
ROOT
ATOM      1  C   UNL     1       3.874   6.415  17.952  0.00  0.00    +0.000 C 
ATOM      2  C   UNL     1       3.902   5.097  18.127  0.00  0.00    +0.000 C 
ATOM      3  C   UNL     1       5.139   4.580  17.506  0.00  0.00    +0.000 C 
ATOM      4  N   UNL     1       5.715   5.733  16.769  0.00  0.00    +0.000 NA
ATOM      5  C   UNL     1       5.439   5.636  15.335  0.00  0.00    +0.000 C 
ATOM      6  O   UNL     1       4.938   6.914  17.213  0.00  0.00    +0.000 OA
ENDROOT
BRANCH   1  10
ATOM      7  C   UNL     1       1.014   9.229  19.396  0.00  0.00    +0.000 A 
ATOM      8  C   UNL     1       1.480   8.201  20.221  0.00  0.00    +0.000 A 
ATOM      9  C   UNL     1       2.413   7.281  19.742  0.00  0.00    +0.000 A 
ATOM     10  C   UNL     1       2.886   7.372  18.427  0.00  0.00    +0.000 A 
ATOM     11  C   UNL     1       2.387   8.373  17.588  0.00  0.00    +0.000 A 
ATOM     12  C   UNL     1       1.453   9.295  18.071  0.00  0.00    +0.000 A 
BRANCH   7  14
ATOM     13  C   UNL     1      -1.316  10.452  18.623  0.00  0.00    +0.000 C 
ATOM     14  S   UNL     1      -0.138  10.446  20.004  0.00  0.00    +0.000 S 
ENDBRANCH   7  14
ENDBRANCH   1  10
BRANCH   2  15
ATOM     15  C   UNL     1       2.896   4.265  18.764  0.00  0.00    +0.000 A 
ATOM     16  C   UNL     1       1.797   3.822  18.018  0.00  0.00    +0.000 A 
ATOM     17  C   UNL     1       0.772   3.106  18.634  0.00  0.00    +0.000 A 
ATOM     18  C   UNL     1       0.842   2.825  19.998  0.00  0.00    +0.000 A 
ATOM     19  C   UNL     1       1.942   3.254  20.743  0.00  0.00    +0.000 A 
ATOM     20  C   UNL     1       2.967   3.972  20.128  0.00  0.00    +0.000 A 
ENDBRANCH   2  15
TORSDOF 3
ENDMDL
MODEL 5
REMARK VINA RESULT:      -7.2      2.161      3.864
REMARK  Name = 
REMARK  5 active torsions:
REMARK  status: ('A' for Active; 'I' for Inactive)
REMARK    1  A    between atoms: C_1  and  S_2
REMARK    2  A    between atoms: S_2  and  C_3
REMARK    3  A    between atoms: C_6  and  C_7
REMARK    4  A    between atoms: C_8  and  C_9
REMARK    5  A    between atoms: N_16  and  C_17
REMARK                            x       y       z     vdW  Elec       q    Type
REMARK                         _______ _______ _______ _____ _____    ______ ____
ROOT
ATOM      1  C   UNL     1       3.843   6.470  17.941  0.00  0.00    +0.000 C 
ATOM      2  C   UNL     1       3.873   5.152  18.114  0.00  0.00    +0.000 C 
ATOM      3  C   UNL     1       5.102   4.636  17.477  0.00  0.00    +0.000 C 
ATOM      4  N   UNL     1       5.668   5.790  16.734  0.00  0.00    +0.000 NA
ATOM      5  C   UNL     1       5.374   5.695  15.303  0.00  0.00    +0.000 C 
ATOM      6  O   UNL     1       4.897   6.971  17.189  0.00  0.00    +0.000 OA
ENDROOT
BRANCH   1  10
ATOM      7  C   UNL     1       0.932   9.263  19.324  0.00  0.00    +0.000 A 
ATOM      8  C   UNL     1       1.447   9.356  18.027  0.00  0.00    +0.000 A 
ATOM      9  C   UNL     1       2.403   8.442  17.582  0.00  0.00    +0.000 A 
ATOM     10  C   UNL     1       2.861   7.427  18.431  0.00  0.00    +0.000 A 
ATOM     11  C   UNL     1       2.379   7.360  19.742  0.00  0.00    +0.000 A 
ATOM     12  C   UNL     1       1.420   8.277  20.186  0.00  0.00    +0.000 A 
BRANCH   7  14
ATOM     13  C   UNL     1      -1.380  10.427  18.419  0.00  0.00    +0.000 C 
ATOM     14  S   UNL     1      -0.326  10.388  19.896  0.00  0.00    +0.000 S 
ENDBRANCH   7  14
ENDBRANCH   1  10
BRANCH   2  15
ATOM     15  C   UNL     1       2.875   4.319  18.763  0.00  0.00    +0.000 A 
ATOM     16  C   UNL     1       1.773   3.868  18.028  0.00  0.00    +0.000 A 
ATOM     17  C   UNL     1       0.755   3.150  18.655  0.00  0.00    +0.000 A 
ATOM     18  C   UNL     1       0.836   2.877  20.020  0.00  0.00    +0.000 A 
ATOM     19  C   UNL     1       1.940   3.315  20.754  0.00  0.00    +0.000 A 
ATOM     20  C   UNL     1       2.957   4.034  20.128  0.00  0.00    +0.000 A 
ENDBRANCH   2  15
TORSDOF 3
ENDMDL
MODEL 6
REMARK VINA RESULT:      -7.2      2.143      4.148
REMARK  Name = 
REMARK  5 active torsions:
REMARK  status: ('A' for Active; 'I' for Inactive)
REMARK    1  A    between atoms: C_1  and  S_2
REMARK    2  A    between atoms: S_2  and  C_3
REMARK    3  A    between atoms: C_6  and  C_7
REMARK    4  A    between atoms: C_8  and  C_9
REMARK    5  A    between atoms: N_16  and  C_17
REMARK                            x       y       z     vdW  Elec       q    Type
REMARK                         _______ _______ _______ _____ _____    ______ ____
ROOT
ATOM      1  C   UNL     1       3.694   6.642  18.042  0.00  0.00    +0.000 C 
ATOM      2  C   UNL     1       3.721   5.327  18.240  0.00  0.00    +0.000 C 
ATOM      3  C   UNL     1       4.973   4.803  17.656  0.00  0.00    +0.000 C 
ATOM      4  N   UNL     1       5.563   5.945  16.912  0.00  0.00    +0.000 NA
ATOM      5  C   UNL     1       5.319   5.823  15.474  0.00  0.00    +0.000 C 
ATOM      6  O   UNL     1       4.774   7.131  17.318  0.00  0.00    +0.000 OA
ENDROOT
BRANCH   1  10
ATOM      7  C   UNL     1       0.798   9.474  19.375  0.00  0.00    +0.000 A 
ATOM      8  C   UNL     1       1.283   8.490  20.242  0.00  0.00    +0.000 A 
ATOM      9  C   UNL     1       2.227   7.564  19.799  0.00  0.00    +0.000 A 
ATOM     10  C   UNL     1       2.694   7.604  18.480  0.00  0.00    +0.000 A 
ATOM     11  C   UNL     1       2.177   8.560  17.599  0.00  0.00    +0.000 A 
ATOM     12  C   UNL     1       1.231   9.488  18.046  0.00  0.00    +0.000 A 
BRANCH   7  14
ATOM     13  C   UNL     1      -1.584  10.583  18.589  0.00  0.00    +0.000 C 
ATOM     14  S   UNL     1      -0.369  10.699  19.933  0.00  0.00    +0.000 S 
ENDBRANCH   7  14
ENDBRANCH   1  10
BRANCH   2  15
ATOM     15  C   UNL     1       2.703   4.503  18.869  0.00  0.00    +0.000 A 
ATOM     16  C   UNL     1       2.810   4.197  20.231  0.00  0.00    +0.000 A 
ATOM     17  C   UNL     1       1.899   3.329  20.830  0.00  0.00    +0.000 A 
ATOM     18  C   UNL     1       0.874   2.765  20.071  0.00  0.00    +0.000 A 
ATOM     19  C   UNL     1       0.756   3.077  18.716  0.00  0.00    +0.000 A 
ATOM     20  C   UNL     1       1.668   3.944  18.116  0.00  0.00    +0.000 A 
ENDBRANCH   2  15
TORSDOF 3
ENDMDL
MODEL 7
REMARK VINA RESULT:      -7.2      2.171      4.012
REMARK  Name = 
REMARK  5 active torsions:
REMARK  status: ('A' for Active; 'I' for Inactive)
REMARK    1  A    between atoms: C_1  and  S_2
REMARK    2  A    between atoms: S_2  and  C_3
REMARK    3  A    between atoms: C_6  and  C_7
REMARK    4  A    between atoms: C_8  and  C_9
REMARK    5  A    between atoms: N_16  and  C_17
REMARK                            x       y       z     vdW  Elec       q    Type
REMARK                         _______ _______ _______ _____ _____    ______ ____
ROOT
ATOM      1  C   UNL     1       3.650   6.668  18.065  0.00  0.00    +0.000 C 
ATOM      2  C   UNL     1       3.685   5.360  18.301  0.00  0.00    +0.000 C 
ATOM      3  C   UNL     1       4.920   4.820  17.695  0.00  0.00    +0.000 C 
ATOM      4  N   UNL     1       5.486   5.940  16.902  0.00  0.00    +0.000 NA
ATOM      5  C   UNL     1       5.200   5.776  15.475  0.00  0.00    +0.000 C 
ATOM      6  O   UNL     1       4.707   7.137  17.296  0.00  0.00    +0.000 OA
ENDROOT
BRANCH   1  10
ATOM      7  C   UNL     1       0.718   9.509  19.297  0.00  0.00    +0.000 A 
ATOM      8  C   UNL     1       1.218   9.524  17.992  0.00  0.00    +0.000 A 
ATOM      9  C   UNL     1       2.181   8.594  17.596  0.00  0.00    +0.000 A 
ATOM     10  C   UNL     1       2.661   7.642  18.503  0.00  0.00    +0.000 A 
ATOM     11  C   UNL     1       2.194   7.655  19.821  0.00  0.00    +0.000 A 
ATOM     12  C   UNL     1       1.228   8.587  20.216  0.00  0.00    +0.000 A 
BRANCH   7  14
ATOM     13  C   UNL     1      -1.661  10.521  18.382  0.00  0.00    +0.000 C 
ATOM     14  S   UNL     1      -0.549  10.652  19.810  0.00  0.00    +0.000 S 
ENDBRANCH   7  14
ENDBRANCH   1  10
BRANCH   2  15
ATOM     15  C   UNL     1       2.687   4.554  18.982  0.00  0.00    +0.000 A 
ATOM     16  C   UNL     1       2.778   4.372  20.367  0.00  0.00    +0.000 A 
ATOM     17  C   UNL     1       1.889   3.524  21.025  0.00  0.00    +0.000 A 
ATOM     18  C   UNL     1       0.902   2.855  20.303  0.00  0.00    +0.000 A 
ATOM     19  C   UNL     1       0.799   3.043  18.923  0.00  0.00    +0.000 A 
ATOM     20  C   UNL     1       1.689   3.890  18.264  0.00  0.00    +0.000 A 
ENDBRANCH   2  15
TORSDOF 3
ENDMDL
MODEL 8
REMARK VINA RESULT:      -7.1      0.799      1.756
REMARK  Name = 
REMARK  5 active torsions:
REMARK  status: ('A' for Active; 'I' for Inactive)
REMARK    1  A    between atoms: C_1  and  S_2
REMARK    2  A    between atoms: S_2  and  C_3
REMARK    3  A    between atoms: C_6  and  C_7
REMARK    4  A    between atoms: C_8  and  C_9
REMARK    5  A    between atoms: N_16  and  C_17
REMARK                            x       y       z     vdW  Elec       q    Type
REMARK                         _______ _______ _______ _____ _____    ______ ____
ROOT
ATOM      1  C   UNL     1       3.002   5.033  17.992  0.00  0.00    +0.000 C 
ATOM      2  C   UNL     1       4.243   4.664  17.692  0.00  0.00    +0.000 C 
ATOM      3  C   UNL     1       4.200   3.268  17.209  0.00  0.00    +0.000 C 
ATOM      4  N   UNL     1       2.812   2.810  17.468  0.00  0.00    +0.000 NA
ATOM      5  C   UNL     1       2.746   1.969  18.665  0.00  0.00    +0.000 C 
ATOM      6  O   UNL     1       2.055   4.030  17.835  0.00  0.00    +0.000 OA
ENDROOT
BRANCH   1  10
ATOM      7  C   UNL     1       1.659   8.828  19.399  0.00  0.00    +0.000 A 
ATOM      8  C   UNL     1       1.816   7.756  20.284  0.00  0.00    +0.000 A 
ATOM      9  C   UNL     1       2.252   6.516  19.816  0.00  0.00    +0.000 A 
ATOM     10  C   UNL     1       2.529   6.329  18.457  0.00  0.00    +0.000 A 
ATOM     11  C   UNL     1       2.330   7.388  17.565  0.00  0.00    +0.000 A 
ATOM     12  C   UNL     1       1.894   8.631  18.036  0.00  0.00    +0.000 A 
BRANCH   7  14
ATOM     13  C   UNL     1      -0.420  10.589  19.091  0.00  0.00    +0.000 C 
ATOM     14  S   UNL     1       1.154  10.435  19.982  0.00  0.00    +0.000 S 
ENDBRANCH   7  14
ENDBRANCH   1  10
BRANCH   2  15
ATOM     15  C   UNL     1       5.462   5.441  17.841  0.00  0.00    +0.000 A 
ATOM     16  C   UNL     1       6.351   5.133  18.878  0.00  0.00    +0.000 A 
ATOM     17  C   UNL     1       7.475   5.927  19.099  0.00  0.00    +0.000 A 
ATOM     18  C   UNL     1       7.718   7.031  18.283  0.00  0.00    +0.000 A 
ATOM     19  C   UNL     1       6.841   7.335  17.240  0.00  0.00    +0.000 A 
ATOM     20  C   UNL     1       5.715   6.542  17.020  0.00  0.00    +0.000 A 
ENDBRANCH   2  15
TORSDOF 3
ENDMDL
MODEL 9
REMARK VINA RESULT:      -6.9      2.994      5.751
REMARK  Name = 
REMARK  5 active torsions:
REMARK  status: ('A' for Active; 'I' for Inactive)
REMARK    1  A    between atoms: C_1  and  S_2
REMARK    2  A    between atoms: S_2  and  C_3
REMARK    3  A    between atoms: C_6  and  C_7
REMARK    4  A    between atoms: C_8  and  C_9
REMARK    5  A    between atoms: N_16  and  C_17
REMARK                            x       y       z     vdW  Elec       q    Type
REMARK                         _______ _______ _______ _____ _____    ______ ____
ROOT
ATOM      1  C   UNL     1       3.513   4.379  19.546  0.00  0.00    +0.000 C 
ATOM      2  C   UNL     1       2.704   5.304  20.053  0.00  0.00    +0.000 C 
ATOM      3  C   UNL     1       2.066   4.739  21.261  0.00  0.00    +0.000 C 
ATOM      4  N   UNL     1       2.446   3.304  21.266  0.00  0.00    +0.000 NA
ATOM      5  C   UNL     1       1.347   2.464  20.788  0.00  0.00    +0.000 C 
ATOM      6  O   UNL     1       3.491   3.168  20.225  0.00  0.00    +0.000 OA
ENDROOT
BRANCH   1  10
ATOM      7  C   UNL     1       6.049   4.698  16.132  0.00  0.00    +0.000 A 
ATOM      8  C   UNL     1       4.790   4.097  16.030  0.00  0.00    +0.000 A 
ATOM      9  C   UNL     1       3.967   3.992  17.152  0.00  0.00    +0.000 A 
ATOM     10  C   UNL     1       4.395   4.480  18.392  0.00  0.00    +0.000 A 
ATOM     11  C   UNL     1       5.671   5.041  18.505  0.00  0.00    +0.000 A 
ATOM     12  C   UNL     1       6.494   5.146  17.379  0.00  0.00    +0.000 A 
BRANCH   7  14
ATOM     13  C   UNL     1       6.202   3.822  13.538  0.00  0.00    +0.000 C 
ATOM     14  S   UNL     1       7.095   4.890  14.702  0.00  0.00    +0.000 S 
ENDBRANCH   7  14
ENDBRANCH   1  10
BRANCH   2  15
ATOM     15  C   UNL     1       2.427   6.628  19.524  0.00  0.00    +0.000 A 
ATOM     16  C   UNL     1       1.821   7.585  20.346  0.00  0.00    +0.000 A 
ATOM     17  C   UNL     1       1.458   8.828  19.830  0.00  0.00    +0.000 A 
ATOM     18  C   UNL     1       1.701   9.121  18.488  0.00  0.00    +0.000 A 
ATOM     19  C   UNL     1       2.315   8.174  17.668  0.00  0.00    +0.000 A 
ATOM     20  C   UNL     1       2.678   6.931  18.183  0.00  0.00    +0.000 A 
ENDBRANCH   2  15
TORSDOF 3
ENDMDL
