MODEL 1
REMARK VINA RESULT:      -9.3      0.000      0.000
REMARK  Name = 
REMARK  4 active torsions:
REMARK  status: ('A' for Active; 'I' for Inactive)
REMARK    1  A    between atoms: C_2  and  C_3
REMARK    2  A    between atoms: C_2  and  C_19
REMARK    3  A    between atoms: C_9  and  C_11
REMARK    4  A    between atoms: C_23  and  C_24
REMARK                            x       y       z     vdW  Elec       q    Type
REMARK                         _______ _______ _______ _____ _____    ______ ____
ROOT
ATOM      1  O   UNL     1      -0.039  11.200  22.223  0.00  0.00    +0.000 OA
ATOM      2  C   UNL     1       0.061  10.775  21.067  0.00  0.00    +0.000 C 
ENDROOT
BRANCH   2   3
ATOM      3  C   UNL     1       0.634   9.460  20.803  0.00  0.00    +0.000 A 
ATOM      4  C   UNL     1       0.388   8.417  21.678  0.00  0.00    +0.000 A 
ATOM      5  N   UNL     1       1.477   7.627  21.524  0.00  0.00    +0.000 N 
ATOM      6  C   UNL     1       1.736   7.573  20.175  0.00  0.00    +0.000 A 
ATOM      7  C   UNL     1       2.243   6.523  19.382  0.00  0.00    +0.000 A 
ATOM      8  C   UNL     1       2.577   6.896  18.068  0.00  0.00    +0.000 A 
ATOM      9  C   UNL     1       2.397   8.211  17.608  0.00  0.00    +0.000 A 
ATOM     10  C   UNL     1       1.817   9.196  18.425  0.00  0.00    +0.000 A 
ATOM     11  F   UNL     1       1.568  10.405  17.905  0.00  0.00    +0.000 F 
ATOM     12  C   UNL     1       1.409   8.865  19.729  0.00  0.00    +0.000 A 
ATOM     13  H   UNL     1       1.928   7.075  22.241  0.00  0.00    +0.000 HD
BRANCH   7  14
ATOM     14  C   UNL     1       2.223   5.132  19.883  0.00  0.00    +0.000 A 
ATOM     15  C   UNL     1       1.085   4.526  20.455  0.00  0.00    +0.000 A 
ATOM     16  C   UNL     1       1.146   3.219  20.949  0.00  0.00    +0.000 A 
ATOM     17  C   UNL     1       2.335   2.528  20.865  0.00  0.00    +0.000 A 
ATOM     18  N   UNL     1       3.448   3.056  20.326  0.00  0.00    +0.000 NA
ATOM     19  C   UNL     1       3.362   4.328  19.881  0.00  0.00    +0.000 A 
ENDBRANCH   7  14
ENDBRANCH   2   3
BRANCH   2  20
ATOM     20  C   UNL     1      -0.342  11.744  19.974  0.00  0.00    +0.000 C 
ATOM     21  O   UNL     1      -1.413  11.554  19.408  0.00  0.00    +0.000 OA
ATOM     22  N   UNL     1       0.553  12.773  19.664  0.00  0.00    +0.000 N 
ATOM     23  C   UNL     1       0.177  13.663  18.570  0.00  0.00    +0.000 C 
ATOM     24  C   UNL     1       0.798  15.050  18.735  0.00  0.00    +0.000 C 
ATOM     25  N   UNL     1       2.250  14.962  18.922  0.00  0.00    +0.000 N 
ATOM     26  C   UNL     1       3.039  15.929  18.296  0.00  0.00    +0.000 C 
ATOM     27  O   UNL     1       2.550  16.844  17.634  0.00  0.00    +0.000 OA
ATOM     28  C   UNL     1       2.635  14.111  20.059  0.00  0.00    +0.000 C 
ATOM     29  C   UNL     1       1.998  12.714  19.959  0.00  0.00    +0.000 C 
BRANCH  26  30
ATOM     30  C   UNL     1       4.522  15.883  18.389  0.00  0.00    +0.000 A 
ATOM     31  C   UNL     1       5.279  14.840  17.842  0.00  0.00    +0.000 A 
ATOM     32  C   UNL     1       6.669  14.849  17.956  0.00  0.00    +0.000 A 
ATOM     33  C   UNL     1       7.316  15.930  18.555  0.00  0.00    +0.000 A 
ATOM     34  C   UNL     1       6.572  17.008  19.035  0.00  0.00    +0.000 A 
ATOM     35  C   UNL     1       5.184  16.989  18.948  0.00  0.00    +0.000 A 
ENDBRANCH  26  30
ENDBRANCH   2  20
TORSDOF 4
ENDMDL
MODEL 2
REMARK VINA RESULT:      -9.1      0.496      1.173
REMARK  Name = 
REMARK  4 active torsions:
REMARK  status: ('A' for Active; 'I' for Inactive)
REMARK    1  A    between atoms: C_2  and  C_3
REMARK    2  A    between atoms: C_2  and  C_19
REMARK    3  A    between atoms: C_9  and  C_11
REMARK    4  A    between atoms: C_23  and  C_24
REMARK                            x       y       z     vdW  Elec       q    Type
REMARK                         _______ _______ _______ _____ _____    ______ ____
ROOT
ATOM      1  O   UNL     1       0.019  11.309  22.328  0.00  0.00    +0.000 OA
ATOM      2  C   UNL     1       0.106  10.896  21.167  0.00  0.00    +0.000 C 
ENDROOT
BRANCH   2   3
ATOM      3  C   UNL     1       0.701   9.596  20.880  0.00  0.00    +0.000 A 
ATOM      4  C   UNL     1       0.543   8.557  21.781  0.00  0.00    +0.000 A 
ATOM      5  N   UNL     1       1.643   7.797  21.566  0.00  0.00    +0.000 N 
ATOM      6  C   UNL     1       1.818   7.734  20.205  0.00  0.00    +0.000 A 
ATOM      7  C   UNL     1       2.305   6.690  19.392  0.00  0.00    +0.000 A 
ATOM      8  C   UNL     1       2.545   7.056  18.056  0.00  0.00    +0.000 A 
ATOM      9  C   UNL     1       2.297   8.359  17.594  0.00  0.00    +0.000 A 
ATOM     10  C   UNL     1       1.740   9.336  18.435  0.00  0.00    +0.000 A 
ATOM     11  F   UNL     1       1.421  10.531  17.920  0.00  0.00    +0.000 F 
ATOM     12  C   UNL     1       1.425   9.010  19.767  0.00  0.00    +0.000 A 
ATOM     13  H   UNL     1       2.155   7.269  22.260  0.00  0.00    +0.000 HD
BRANCH   7  14
ATOM     14  C   UNL     1       2.359   5.305  19.909  0.00  0.00    +0.000 A 
ATOM     15  C   UNL     1       3.474   4.456  19.751  0.00  0.00    +0.000 A 
ATOM     16  C   UNL     1       3.443   3.142  20.227  0.00  0.00    +0.000 A 
ATOM     17  C   UNL     1       2.306   2.688  20.860  0.00  0.00    +0.000 A 
ATOM     18  N   UNL     1       1.218   3.455  21.041  0.00  0.00    +0.000 NA
ATOM     19  C   UNL     1       1.271   4.711  20.547  0.00  0.00    +0.000 A 
ENDBRANCH   7  14
ENDBRANCH   2   3
BRANCH   2  20
ATOM     20  C   UNL     1      -0.337  11.866  20.089  0.00  0.00    +0.000 C 
ATOM     21  O   UNL     1      -1.423  11.670  19.555  0.00  0.00    +0.000 OA
ATOM     22  N   UNL     1       0.541  12.902  19.755  0.00  0.00    +0.000 N 
ATOM     23  C   UNL     1       0.125  13.793  18.677  0.00  0.00    +0.000 C 
ATOM     24  C   UNL     1       0.741  15.183  18.827  0.00  0.00    +0.000 C 
ATOM     25  N   UNL     1       2.198  15.105  18.970  0.00  0.00    +0.000 N 
ATOM     26  C   UNL     1       2.961  16.081  18.323  0.00  0.00    +0.000 C 
ATOM     27  O   UNL     1       2.445  16.994  17.679  0.00  0.00    +0.000 OA
ATOM     28  C   UNL     1       2.624  14.254  20.092  0.00  0.00    +0.000 C 
ATOM     29  C   UNL     1       1.995  12.852  20.007  0.00  0.00    +0.000 C 
BRANCH  26  30
ATOM     30  C   UNL     1       4.446  16.045  18.371  0.00  0.00    +0.000 A 
ATOM     31  C   UNL     1       5.200  16.990  19.080  0.00  0.00    +0.000 A 
ATOM     32  C   UNL     1       6.592  16.906  19.094  0.00  0.00    +0.000 A 
ATOM     33  C   UNL     1       7.237  15.844  18.461  0.00  0.00    +0.000 A 
ATOM     34  C   UNL     1       6.489  14.859  17.817  0.00  0.00    +0.000 A 
ATOM     35  C   UNL     1       5.102  14.954  17.777  0.00  0.00    +0.000 A 
ENDBRANCH  26  30
ENDBRANCH   2  20
TORSDOF 4
ENDMDL
MODEL 3
REMARK VINA RESULT:      -8.8      3.936      9.473
REMARK  Name = 
REMARK  4 active torsions:
REMARK  status: ('A' for Active; 'I' for Inactive)
REMARK    1  A    between atoms: C_2  and  C_3
REMARK    2  A    between atoms: C_2  and  C_19
REMARK    3  A    between atoms: C_9  and  C_11
REMARK    4  A    between atoms: C_23  and  C_24
REMARK                            x       y       z     vdW  Elec       q    Type
REMARK                         _______ _______ _______ _____ _____    ______ ____
ROOT
ATOM      1  O   UNL     1       1.202  11.835  21.171  0.00  0.00    +0.000 OA
ATOM      2  C   UNL     1       0.438  11.758  20.204  0.00  0.00    +0.000 C 
ENDROOT
BRANCH   2   3
ATOM      3  C   UNL     1      -0.975  12.095  20.339  0.00  0.00    +0.000 A 
ATOM      4  C   UNL     1      -1.763  12.210  19.208  0.00  0.00    +0.000 A 
ATOM      5  N   UNL     1      -2.725  13.082  19.593  0.00  0.00    +0.000 N 
ATOM      6  C   UNL     1      -3.096  12.720  20.866  0.00  0.00    +0.000 A 
ATOM      7  C   UNL     1      -4.353  12.777  21.504  0.00  0.00    +0.000 A 
ATOM      8  C   UNL     1      -4.317  12.518  22.885  0.00  0.00    +0.000 A 
ATOM      9  C   UNL     1      -3.115  12.217  23.546  0.00  0.00    +0.000 A 
ATOM     10  C   UNL     1      -1.905  12.101  22.841  0.00  0.00    +0.000 A 
ATOM     11  F   UNL     1      -0.807  11.706  23.499  0.00  0.00    +0.000 F 
ATOM     12  C   UNL     1      -1.892  12.291  21.448  0.00  0.00    +0.000 A 
ATOM     13  H   UNL     1      -3.177  13.776  19.013  0.00  0.00    +0.000 HD
BRANCH   7  14
ATOM     14  C   UNL     1      -5.590  12.914  20.704  0.00  0.00    +0.000 A 
ATOM     15  C   UNL     1      -6.108  11.888  19.887  0.00  0.00    +0.000 A 
ATOM     16  C   UNL     1      -7.260  12.098  19.123  0.00  0.00    +0.000 A 
ATOM     17  C   UNL     1      -7.886  13.324  19.183  0.00  0.00    +0.000 A 
ATOM     18  N   UNL     1      -7.438  14.334  19.948  0.00  0.00    +0.000 NA
ATOM     19  C   UNL     1      -6.310  14.107  20.653  0.00  0.00    +0.000 A 
ENDBRANCH   7  14
ENDBRANCH   2   3
BRANCH   2  20
ATOM     20  C   UNL     1       1.042  11.195  18.933  0.00  0.00    +0.000 C 
ATOM     21  O   UNL     1       1.096  11.928  17.952  0.00  0.00    +0.000 OA
ATOM     22  N   UNL     1       1.468   9.863  18.958  0.00  0.00    +0.000 N 
ATOM     23  C   UNL     1       1.994   9.318  17.711  0.00  0.00    +0.000 C 
ATOM     24  C   UNL     1       2.997   8.194  17.966  0.00  0.00    +0.000 C 
ATOM     25  N   UNL     1       2.427   7.164  18.841  0.00  0.00    +0.000 N 
ATOM     26  C   UNL     1       2.732   5.832  18.549  0.00  0.00    +0.000 C 
ATOM     27  O   UNL     1       3.473   5.520  17.618  0.00  0.00    +0.000 OA
ATOM     28  C   UNL     1       1.946   7.697  20.125  0.00  0.00    +0.000 C 
ATOM     29  C   UNL     1       0.962   8.863  19.919  0.00  0.00    +0.000 C 
BRANCH  26  30
ATOM     30  C   UNL     1       2.153   4.723  19.352  0.00  0.00    +0.000 A 
ATOM     31  C   UNL     1       1.341   3.730  18.789  0.00  0.00    +0.000 A 
ATOM     32  C   UNL     1       0.827   2.709  19.589  0.00  0.00    +0.000 A 
ATOM     33  C   UNL     1       1.174   2.633  20.938  0.00  0.00    +0.000 A 
ATOM     34  C   UNL     1       2.043   3.576  21.487  0.00  0.00    +0.000 A 
ATOM     35  C   UNL     1       2.535   4.612  20.699  0.00  0.00    +0.000 A 
ENDBRANCH  26  30
ENDBRANCH   2  20
TORSDOF 4
ENDMDL
MODEL 4
REMARK VINA RESULT:      -8.7      4.153      8.947
REMARK  Name = 
REMARK  4 active torsions:
REMARK  status: ('A' for Active; 'I' for Inactive)
REMARK    1  A    between atoms: C_2  and  C_3
REMARK    2  A    between atoms: C_2  and  C_19
REMARK    3  A    between atoms: C_9  and  C_11
REMARK    4  A    between atoms: C_23  and  C_24
REMARK                            x       y       z     vdW  Elec       q    Type
REMARK                         _______ _______ _______ _____ _____    ______ ____
ROOT
ATOM      1  O   UNL     1       0.935  12.257  19.070  0.00  0.00    +0.000 OA
ATOM      2  C   UNL     1       0.069  11.527  19.564  0.00  0.00    +0.000 C 
ENDROOT
BRANCH   2   3
ATOM      3  C   UNL     1      -1.338  11.704  19.225  0.00  0.00    +0.000 A 
ATOM      4  C   UNL     1      -2.061  12.726  19.816  0.00  0.00    +0.000 A 
ATOM      5  N   UNL     1      -3.329  12.250  19.803  0.00  0.00    +0.000 N 
ATOM      6  C   UNL     1      -3.516  11.665  18.574  0.00  0.00    +0.000 A 
ATOM      7  C   UNL     1      -4.667  11.591  17.762  0.00  0.00    +0.000 A 
ATOM      8  C   UNL     1      -4.546  10.727  16.659  0.00  0.00    +0.000 A 
ATOM      9  C   UNL     1      -3.359  10.019  16.405  0.00  0.00    +0.000 A 
ATOM     10  C   UNL     1      -2.221  10.193  17.210  0.00  0.00    +0.000 A 
ATOM     11  F   UNL     1      -1.082   9.579  16.864  0.00  0.00    +0.000 F 
ATOM     12  C   UNL     1      -2.266  11.090  18.293  0.00  0.00    +0.000 A 
ATOM     13  H   UNL     1      -4.040  12.412  20.503  0.00  0.00    +0.000 HD
BRANCH   7  14
ATOM     14  C   UNL     1      -5.803  12.509  17.992  0.00  0.00    +0.000 A 
ATOM     15  C   UNL     1      -6.360  13.327  16.988  0.00  0.00    +0.000 A 
ATOM     16  C   UNL     1      -7.407  14.206  17.283  0.00  0.00    +0.000 A 
ATOM     17  C   UNL     1      -7.892  14.257  18.571  0.00  0.00    +0.000 A 
ATOM     18  N   UNL     1      -7.402  13.496  19.565  0.00  0.00    +0.000 NA
ATOM     19  C   UNL     1      -6.374  12.678  19.253  0.00  0.00    +0.000 A 
ENDBRANCH   7  14
ENDBRANCH   2   3
BRANCH   2  20
ATOM     20  C   UNL     1       0.558  10.538  20.602  0.00  0.00    +0.000 C 
ATOM     21  O   UNL     1       0.427  10.838  21.784  0.00  0.00    +0.000 OA
ATOM     22  N   UNL     1       1.157   9.361  20.140  0.00  0.00    +0.000 N 
ATOM     23  C   UNL     1       1.674   8.446  21.152  0.00  0.00    +0.000 C 
ATOM     24  C   UNL     1       1.677   7.001  20.655  0.00  0.00    +0.000 C 
ATOM     25  N   UNL     1       2.375   6.883  19.371  0.00  0.00    +0.000 N 
ATOM     26  C   UNL     1       3.176   5.755  19.176  0.00  0.00    +0.000 C 
ATOM     27  O   UNL     1       3.279   4.871  20.025  0.00  0.00    +0.000 OA
ATOM     28  C   UNL     1       1.823   7.762  18.329  0.00  0.00    +0.000 C 
ATOM     29  C   UNL     1       1.761   9.226  18.800  0.00  0.00    +0.000 C 
BRANCH  26  30
ATOM     30  C   UNL     1       3.962   5.583  17.926  0.00  0.00    +0.000 A 
ATOM     31  C   UNL     1       4.707   6.622  17.355  0.00  0.00    +0.000 A 
ATOM     32  C   UNL     1       5.429   6.403  16.181  0.00  0.00    +0.000 A 
ATOM     33  C   UNL     1       5.468   5.132  15.609  0.00  0.00    +0.000 A 
ATOM     34  C   UNL     1       4.789   4.075  16.214  0.00  0.00    +0.000 A 
ATOM     35  C   UNL     1       4.045   4.296  17.369  0.00  0.00    +0.000 A 
ENDBRANCH  26  30
ENDBRANCH   2  20
TORSDOF 4
ENDMDL
MODEL 5
REMARK VINA RESULT:      -8.7      2.725      4.185
REMARK  Name = 
REMARK  4 active torsions:
REMARK  status: ('A' for Active; 'I' for Inactive)
REMARK    1  A    between atoms: C_2  and  C_3
REMARK    2  A    between atoms: C_2  and  C_19
REMARK    3  A    between atoms: C_9  and  C_11
REMARK    4  A    between atoms: C_23  and  C_24
REMARK                            x       y       z     vdW  Elec       q    Type
REMARK                         _______ _______ _______ _____ _____    ______ ____
ROOT
ATOM      1  O   UNL     1      -0.601  10.187  19.229  0.00  0.00    +0.000 OA
ATOM      2  C   UNL     1       0.579  10.114  19.587  0.00  0.00    +0.000 C 
ENDROOT
BRANCH   2   3
ATOM      3  C   UNL     1       1.455   9.073  19.062  0.00  0.00    +0.000 A 
ATOM      4  C   UNL     1       2.252   9.340  17.962  0.00  0.00    +0.000 A 
ATOM      5  N   UNL     1       2.408   8.120  17.396  0.00  0.00    +0.000 N 
ATOM      6  C   UNL     1       2.631   7.236  18.423  0.00  0.00    +0.000 A 
ATOM      7  C   UNL     1       3.439   6.080  18.478  0.00  0.00    +0.000 A 
ATOM      8  C   UNL     1       3.259   5.298  19.633  0.00  0.00    +0.000 A 
ATOM      9  C   UNL     1       2.351   5.669  20.638  0.00  0.00    +0.000 A 
ATOM     10  C   UNL     1       1.629   6.872  20.561  0.00  0.00    +0.000 A 
ATOM     11  F   UNL     1       0.858   7.233  21.595  0.00  0.00    +0.000 F 
ATOM     12  C   UNL     1       1.813   7.723  19.456  0.00  0.00    +0.000 A 
ATOM     13  H   UNL     1       2.483   7.919  16.407  0.00  0.00    +0.000 HD
BRANCH   7  14
ATOM     14  C   UNL     1       4.500   5.864  17.470  0.00  0.00    +0.000 A 
ATOM     15  C   UNL     1       4.581   4.714  16.658  0.00  0.00    +0.000 A 
ATOM     16  C   UNL     1       5.636   4.552  15.755  0.00  0.00    +0.000 A 
ATOM     17  C   UNL     1       6.595   5.538  15.665  0.00  0.00    +0.000 A 
ATOM     18  N   UNL     1       6.563   6.655  16.411  0.00  0.00    +0.000 NA
ATOM     19  C   UNL     1       5.546   6.769  17.291  0.00  0.00    +0.000 A 
ENDBRANCH   7  14
ENDBRANCH   2   3
BRANCH   2  20
ATOM     20  C   UNL     1       0.999  11.091  20.667  0.00  0.00    +0.000 C 
ATOM     21  O   UNL     1       1.077  10.673  21.817  0.00  0.00    +0.000 OA
ATOM     22  N   UNL     1       1.239  12.414  20.281  0.00  0.00    +0.000 N 
ATOM     23  C   UNL     1       1.587  13.354  21.341  0.00  0.00    +0.000 C 
ATOM     24  C   UNL     1       2.443  14.505  20.813  0.00  0.00    +0.000 C 
ATOM     25  N   UNL     1       1.807  15.155  19.663  0.00  0.00    +0.000 N 
ATOM     26  C   UNL     1       1.903  16.546  19.576  0.00  0.00    +0.000 C 
ATOM     27  O   UNL     1       2.519  17.212  20.407  0.00  0.00    +0.000 OA
ATOM     28  C   UNL     1       1.505  14.222  18.566  0.00  0.00    +0.000 C 
ATOM     29  C   UNL     1       0.678  13.021  19.058  0.00  0.00    +0.000 C 
BRANCH  26  30
ATOM     30  C   UNL     1       1.242  17.289  18.471  0.00  0.00    +0.000 A 
ATOM     31  C   UNL     1       1.909  17.632  17.289  0.00  0.00    +0.000 A 
ATOM     32  C   UNL     1       1.238  18.328  16.283  0.00  0.00    +0.000 A 
ATOM     33  C   UNL     1      -0.118  18.625  16.421  0.00  0.00    +0.000 A 
ATOM     34  C   UNL     1      -0.807  18.221  17.564  0.00  0.00    +0.000 A 
ATOM     35  C   UNL     1      -0.134  17.552  18.581  0.00  0.00    +0.000 A 
ENDBRANCH  26  30
ENDBRANCH   2  20
TORSDOF 4
ENDMDL
MODEL 6
REMARK VINA RESULT:      -8.6      4.007      9.594
REMARK  Name = 
REMARK  4 active torsions:
REMARK  status: ('A' for Active; 'I' for Inactive)
REMARK    1  A    between atoms: C_2  and  C_3
REMARK    2  A    between atoms: C_2  and  C_19
REMARK    3  A    between atoms: C_9  and  C_11
REMARK    4  A    between atoms: C_23  and  C_24
REMARK                            x       y       z     vdW  Elec       q    Type
REMARK                         _______ _______ _______ _____ _____    ______ ____
ROOT
ATOM      1  O   UNL     1       1.048  11.525  21.352  0.00  0.00    +0.000 OA
ATOM      2  C   UNL     1       0.322  11.610  20.357  0.00  0.00    +0.000 C 
ENDROOT
BRANCH   2   3
ATOM      3  C   UNL     1      -1.058  12.068  20.476  0.00  0.00    +0.000 A 
ATOM      4  C   UNL     1      -1.801  12.307  19.334  0.00  0.00    +0.000 A 
ATOM      5  N   UNL     1      -2.690  13.245  19.740  0.00  0.00    +0.000 N 
ATOM      6  C   UNL     1      -3.127  12.859  20.984  0.00  0.00    +0.000 A 
ATOM      7  C   UNL     1      -4.391  13.002  21.595  0.00  0.00    +0.000 A 
ATOM      8  C   UNL     1      -4.416  12.677  22.963  0.00  0.00    +0.000 A 
ATOM      9  C   UNL     1      -3.264  12.236  23.635  0.00  0.00    +0.000 A 
ATOM     10  C   UNL     1      -2.051  12.043  22.954  0.00  0.00    +0.000 A 
ATOM     11  F   UNL     1      -1.012  11.518  23.616  0.00  0.00    +0.000 F 
ATOM     12  C   UNL     1      -1.983  12.296  21.572  0.00  0.00    +0.000 A 
ATOM     13  H   UNL     1      -3.061  14.003  19.184  0.00  0.00    +0.000 HD
BRANCH   7  14
ATOM     14  C   UNL     1      -5.588  13.289  20.775  0.00  0.00    +0.000 A 
ATOM     15  C   UNL     1      -6.010  14.592  20.440  0.00  0.00    +0.000 A 
ATOM     16  C   UNL     1      -7.176  14.795  19.696  0.00  0.00    +0.000 A 
ATOM     17  C   UNL     1      -7.907  13.700  19.289  0.00  0.00    +0.000 A 
ATOM     18  N   UNL     1      -7.548  12.437  19.576  0.00  0.00    +0.000 NA
ATOM     19  C   UNL     1      -6.431  12.277  20.317  0.00  0.00    +0.000 A 
ENDBRANCH   7  14
ENDBRANCH   2   3
BRANCH   2  20
ATOM     20  C   UNL     1       0.924  11.108  19.059  0.00  0.00    +0.000 C 
ATOM     21  O   UNL     1       0.931  11.871  18.099  0.00  0.00    +0.000 OA
ATOM     22  N   UNL     1       1.402   9.794  19.037  0.00  0.00    +0.000 N 
ATOM     23  C   UNL     1       1.926   9.307  17.765  0.00  0.00    +0.000 C 
ATOM     24  C   UNL     1       2.976   8.216  17.970  0.00  0.00    +0.000 C 
ATOM     25  N   UNL     1       2.463   7.139  18.824  0.00  0.00    +0.000 N 
ATOM     26  C   UNL     1       2.814   5.830  18.487  0.00  0.00    +0.000 C 
ATOM     27  O   UNL     1       3.550   5.574  17.534  0.00  0.00    +0.000 OA
ATOM     28  C   UNL     1       1.986   7.615  20.131  0.00  0.00    +0.000 C 
ATOM     29  C   UNL     1       0.954   8.747  19.976  0.00  0.00    +0.000 C 
BRANCH  26  30
ATOM     30  C   UNL     1       2.294   4.675  19.266  0.00  0.00    +0.000 A 
ATOM     31  C   UNL     1       2.676   4.427  20.590  0.00  0.00    +0.000 A 
ATOM     32  C   UNL     1       2.153   3.330  21.275  0.00  0.00    +0.000 A 
ATOM     33  C   UNL     1       1.197   2.515  20.669  0.00  0.00    +0.000 A 
ATOM     34  C   UNL     1       0.757   2.801  19.377  0.00  0.00    +0.000 A 
ATOM     35  C   UNL     1       1.297   3.878  18.681  0.00  0.00    +0.000 A 
ENDBRANCH  26  30
ENDBRANCH   2  20
TORSDOF 4
ENDMDL
MODEL 7
REMARK VINA RESULT:      -8.6      2.736      4.190
REMARK  Name = 
REMARK  4 active torsions:
REMARK  status: ('A' for Active; 'I' for Inactive)
REMARK    1  A    between atoms: C_2  and  C_3
REMARK    2  A    between atoms: C_2  and  C_19
REMARK    3  A    between atoms: C_9  and  C_11
REMARK    4  A    between atoms: C_23  and  C_24
REMARK                            x       y       z     vdW  Elec       q    Type
REMARK                         _______ _______ _______ _____ _____    ______ ____
ROOT
ATOM      1  O   UNL     1       0.007   9.859  18.023  0.00  0.00    +0.000 OA
ATOM      2  C   UNL     1       0.877   9.637  18.870  0.00  0.00    +0.000 C 
ENDROOT
BRANCH   2   3
ATOM      3  C   UNL     1       1.824   8.541  18.699  0.00  0.00    +0.000 A 
ATOM      4  C   UNL     1       2.879   8.680  17.814  0.00  0.00    +0.000 A 
ATOM      5  N   UNL     1       3.134   7.403  17.440  0.00  0.00    +0.000 N 
ATOM      6  C   UNL     1       3.063   6.639  18.580  0.00  0.00    +0.000 A 
ATOM      7  C   UNL     1       3.795   5.495  18.961  0.00  0.00    +0.000 A 
ATOM      8  C   UNL     1       3.307   4.848  20.110  0.00  0.00    +0.000 A 
ATOM      9  C   UNL     1       2.188   5.332  20.808  0.00  0.00    +0.000 A 
ATOM     10  C   UNL     1       1.547   6.521  20.421  0.00  0.00    +0.000 A 
ATOM     11  F   UNL     1       0.553   6.999  21.182  0.00  0.00    +0.000 F 
ATOM     12  C   UNL     1       2.029   7.242  19.314  0.00  0.00    +0.000 A 
ATOM     13  H   UNL     1       3.447   7.093  16.530  0.00  0.00    +0.000 HD
BRANCH   7  14
ATOM     14  C   UNL     1       5.067   5.163  18.284  0.00  0.00    +0.000 A 
ATOM     15  C   UNL     1       6.337   5.475  18.813  0.00  0.00    +0.000 A 
ATOM     16  C   UNL     1       7.501   5.171  18.100  0.00  0.00    +0.000 A 
ATOM     17  C   UNL     1       7.390   4.556  16.872  0.00  0.00    +0.000 A 
ATOM     18  N   UNL     1       6.206   4.233  16.323  0.00  0.00    +0.000 NA
ATOM     19  C   UNL     1       5.101   4.563  17.025  0.00  0.00    +0.000 A 
ENDBRANCH   7  14
ENDBRANCH   2   3
BRANCH   2  20
ATOM     20  C   UNL     1       0.813  10.496  20.118  0.00  0.00    +0.000 C 
ATOM     21  O   UNL     1       0.571   9.939  21.183  0.00  0.00    +0.000 OA
ATOM     22  N   UNL     1       1.004  11.873  19.962  0.00  0.00    +0.000 N 
ATOM     23  C   UNL     1       0.883  12.692  21.164  0.00  0.00    +0.000 C 
ATOM     24  C   UNL     1       1.718  13.968  21.061  0.00  0.00    +0.000 C 
ATOM     25  N   UNL     1       1.407  14.708  19.834  0.00  0.00    +0.000 N 
ATOM     26  C   UNL     1       1.359  16.101  19.919  0.00  0.00    +0.000 C 
ATOM     27  O   UNL     1       1.595  16.702  20.966  0.00  0.00    +0.000 OA
ATOM     28  C   UNL     1       1.582  13.905  18.614  0.00  0.00    +0.000 C 
ATOM     29  C   UNL     1       0.791  12.587  18.688  0.00  0.00    +0.000 C 
BRANCH  26  30
ATOM     30  C   UNL     1       0.998  16.927  18.736  0.00  0.00    +0.000 A 
ATOM     31  C   UNL     1       1.940  17.321  17.777  0.00  0.00    +0.000 A 
ATOM     32  C   UNL     1       1.545  18.092  16.684  0.00  0.00    +0.000 A 
ATOM     33  C   UNL     1       0.201  18.417  16.504  0.00  0.00    +0.000 A 
ATOM     34  C   UNL     1      -0.753  17.964  17.415  0.00  0.00    +0.000 A 
ATOM     35  C   UNL     1      -0.359  17.218  18.522  0.00  0.00    +0.000 A 
ENDBRANCH  26  30
ENDBRANCH   2  20
TORSDOF 4
ENDMDL
MODEL 8
REMARK VINA RESULT:      -8.5      3.847      9.397
REMARK  Name = 
REMARK  4 active torsions:
REMARK  status: ('A' for Active; 'I' for Inactive)
REMARK    1  A    between atoms: C_2  and  C_3
REMARK    2  A    between atoms: C_2  and  C_19
REMARK    3  A    between atoms: C_9  and  C_11
REMARK    4  A    between atoms: C_23  and  C_24
REMARK                            x       y       z     vdW  Elec       q    Type
REMARK                         _______ _______ _______ _____ _____    ______ ____
ROOT
ATOM      1  O   UNL     1       1.362  11.973  21.364  0.00  0.00    +0.000 OA
ATOM      2  C   UNL     1       0.513  11.884  20.471  0.00  0.00    +0.000 C 
ENDROOT
BRANCH   2   3
ATOM      3  C   UNL     1      -0.887  12.194  20.739  0.00  0.00    +0.000 A 
ATOM      4  C   UNL     1      -1.221  12.948  21.850  0.00  0.00    +0.000 A 
ATOM      5  N   UNL     1      -2.476  12.529  22.137  0.00  0.00    +0.000 N 
ATOM      6  C   UNL     1      -3.139  12.427  20.938  0.00  0.00    +0.000 A 
ATOM      7  C   UNL     1      -4.492  12.668  20.616  0.00  0.00    +0.000 A 
ATOM      8  C   UNL     1      -4.865  12.255  19.325  0.00  0.00    +0.000 A 
ATOM      9  C   UNL     1      -3.942  11.667  18.445  0.00  0.00    +0.000 A 
ATOM     10  C   UNL     1      -2.590  11.521  18.797  0.00  0.00    +0.000 A 
ATOM     11  F   UNL     1      -1.729  11.054  17.884  0.00  0.00    +0.000 F 
ATOM     12  C   UNL     1      -2.147  11.970  20.054  0.00  0.00    +0.000 A 
ATOM     13  H   UNL     1      -2.887  12.440  23.056  0.00  0.00    +0.000 HD
BRANCH   7  14
ATOM     14  C   UNL     1      -5.345  13.461  21.527  0.00  0.00    +0.000 A 
ATOM     15  C   UNL     1      -6.103  12.897  22.574  0.00  0.00    +0.000 A 
ATOM     16  C   UNL     1      -6.924  13.699  23.373  0.00  0.00    +0.000 A 
ATOM     17  C   UNL     1      -6.978  15.054  23.125  0.00  0.00    +0.000 A 
ATOM     18  N   UNL     1      -6.273  15.643  22.144  0.00  0.00    +0.000 NA
ATOM     19  C   UNL     1      -5.511  14.837  21.375  0.00  0.00    +0.000 A 
ENDBRANCH   7  14
ENDBRANCH   2   3
BRANCH   2  20
ATOM     20  C   UNL     1       1.006  11.334  19.148  0.00  0.00    +0.000 C 
ATOM     21  O   UNL     1       0.992  12.083  18.177  0.00  0.00    +0.000 OA
ATOM     22  N   UNL     1       1.416   9.997  19.119  0.00  0.00    +0.000 N 
ATOM     23  C   UNL     1       1.834   9.467  17.825  0.00  0.00    +0.000 C 
ATOM     24  C   UNL     1       2.839   8.326  17.983  0.00  0.00    +0.000 C 
ATOM     25  N   UNL     1       2.327   7.289  18.884  0.00  0.00    +0.000 N 
ATOM     26  C   UNL     1       2.590   5.959  18.549  0.00  0.00    +0.000 C 
ATOM     27  O   UNL     1       3.250   5.652  17.557  0.00  0.00    +0.000 OA
ATOM     28  C   UNL     1       1.957   7.807  20.210  0.00  0.00    +0.000 C 
ATOM     29  C   UNL     1       0.975   8.987  20.101  0.00  0.00    +0.000 C 
BRANCH  26  30
ATOM     30  C   UNL     1       2.062   4.843  19.378  0.00  0.00    +0.000 A 
ATOM     31  C   UNL     1       1.169   3.889  18.876  0.00  0.00    +0.000 A 
ATOM     32  C   UNL     1       0.708   2.860  19.698  0.00  0.00    +0.000 A 
ATOM     33  C   UNL     1       1.187   2.738  21.002  0.00  0.00    +0.000 A 
ATOM     34  C   UNL     1       2.134   3.641  21.484  0.00  0.00    +0.000 A 
ATOM     35  C   UNL     1       2.574   4.685  20.676  0.00  0.00    +0.000 A 
ENDBRANCH  26  30
ENDBRANCH   2  20
TORSDOF 4
ENDMDL
MODEL 9
REMARK VINA RESULT:      -8.4      2.623      3.632
REMARK  Name = 
REMARK  4 active torsions:
REMARK  status: ('A' for Active; 'I' for Inactive)
REMARK    1  A    between atoms: C_2  and  C_3
REMARK    2  A    between atoms: C_2  and  C_19
REMARK    3  A    between atoms: C_9  and  C_11
REMARK    4  A    between atoms: C_23  and  C_24
REMARK                            x       y       z     vdW  Elec       q    Type
REMARK                         _______ _______ _______ _____ _____    ______ ____
ROOT
ATOM      1  O   UNL     1       0.962   9.514  20.768  0.00  0.00    +0.000 OA
ATOM      2  C   UNL     1       1.035   9.404  19.539  0.00  0.00    +0.000 C 
ENDROOT
BRANCH   2   3
ATOM      3  C   UNL     1       1.912   8.412  18.929  0.00  0.00    +0.000 A 
ATOM      4  C   UNL     1       2.707   8.770  17.854  0.00  0.00    +0.000 A 
ATOM      5  N   UNL     1       2.865   7.602  17.189  0.00  0.00    +0.000 N 
ATOM      6  C   UNL     1       3.090   6.636  18.140  0.00  0.00    +0.000 A 
ATOM      7  C   UNL     1       3.901   5.482  18.098  0.00  0.00    +0.000 A 
ATOM      8  C   UNL     1       3.724   4.607  19.185  0.00  0.00    +0.000 A 
ATOM      9  C   UNL     1       2.817   4.892  20.219  0.00  0.00    +0.000 A 
ATOM     10  C   UNL     1       2.092   6.095  20.241  0.00  0.00    +0.000 A 
ATOM     11  F   UNL     1       1.322   6.369  21.303  0.00  0.00    +0.000 F 
ATOM     12  C   UNL     1       2.273   7.035  19.210  0.00  0.00    +0.000 A 
ATOM     13  H   UNL     1       2.938   7.483  16.187  0.00  0.00    +0.000 HD
BRANCH   7  14
ATOM     14  C   UNL     1       4.961   5.351  17.075  0.00  0.00    +0.000 A 
ATOM     15  C   UNL     1       4.910   4.425  16.013  0.00  0.00    +0.000 A 
ATOM     16  C   UNL     1       5.968   4.323  15.104  0.00  0.00    +0.000 A 
ATOM     17  C   UNL     1       7.061   5.148  15.257  0.00  0.00    +0.000 A 
ATOM     18  N   UNL     1       7.159   6.052  16.247  0.00  0.00    +0.000 NA
ATOM     19  C   UNL     1       6.132   6.107  17.123  0.00  0.00    +0.000 A 
ENDBRANCH   7  14
ENDBRANCH   2   3
BRANCH   2  20
ATOM     20  C   UNL     1       0.250  10.427  18.741  0.00  0.00    +0.000 C 
ATOM     21  O   UNL     1      -0.616  10.014  17.978  0.00  0.00    +0.000 OA
ATOM     22  N   UNL     1       0.592  11.773  18.908  0.00  0.00    +0.000 N 
ATOM     23  C   UNL     1      -0.133  12.740  18.090  0.00  0.00    +0.000 C 
ATOM     24  C   UNL     1      -0.203  14.109  18.767  0.00  0.00    +0.000 C 
ATOM     25  N   UNL     1       1.132  14.578  19.153  0.00  0.00    +0.000 N 
ATOM     26  C   UNL     1       1.409  15.937  18.986  0.00  0.00    +0.000 C 
ATOM     27  O   UNL     1       0.568  16.729  18.563  0.00  0.00    +0.000 OA
ATOM     28  C   UNL     1       1.847  13.633  20.024  0.00  0.00    +0.000 C 
ATOM     29  C   UNL     1       1.906  12.226  19.403  0.00  0.00    +0.000 C 
BRANCH  26  30
ATOM     30  C   UNL     1       2.754  16.487  19.302  0.00  0.00    +0.000 A 
ATOM     31  C   UNL     1       3.038  17.137  20.509  0.00  0.00    +0.000 A 
ATOM     32  C   UNL     1       4.320  17.630  20.754  0.00  0.00    +0.000 A 
ATOM     33  C   UNL     1       5.341  17.419  19.828  0.00  0.00    +0.000 A 
ATOM     34  C   UNL     1       5.083  16.707  18.657  0.00  0.00    +0.000 A 
ATOM     35  C   UNL     1       3.799  16.238  18.397  0.00  0.00    +0.000 A 
ENDBRANCH  26  30
ENDBRANCH   2  20
TORSDOF 4
ENDMDL
