MODEL 1
REMARK VINA RESULT:      -7.7      0.000      0.000
REMARK  Name = 
REMARK  9 active torsions:
REMARK  status: ('A' for Active; 'I' for Inactive)
REMARK    1  A    between atoms: C_1  and  C_2
REMARK    2  A    between atoms: C_2  and  N_3
REMARK    3  A    between atoms: C_4  and  C_6
REMARK    4  A    between atoms: C_9  and  N_10
REMARK    5  A    between atoms: N_13  and  C_14
REMARK    6  A    between atoms: N_13  and  C_15
REMARK    7  A    between atoms: C_15  and  C_16
REMARK    8  A    between atoms: N_20  and  C_21
REMARK    9  A    between atoms: C_22  and  C_23
REMARK                            x       y       z     vdW  Elec       q    Type
REMARK                         _______ _______ _______ _____ _____    ______ ____
ROOT
ATOM      1  C   UNL     1       4.878   5.421  16.476  0.00  0.00    +0.000 A 
ATOM      2  C   UNL     1       4.928   6.820  16.457  0.00  0.00    +0.000 A 
ATOM      3  C   UNL     1       4.007   7.566  17.202  0.00  0.00    +0.000 A 
ATOM      4  C   UNL     1       3.004   6.934  17.957  0.00  0.00    +0.000 A 
ATOM      5  C   UNL     1       2.912   5.531  17.922  0.00  0.00    +0.000 A 
ATOM      6  C   UNL     1       1.751   4.774  18.506  0.00  0.00    +0.000 C 
ATOM      7  C   UNL     1       3.885   4.786  17.228  0.00  0.00    +0.000 A 
ENDROOT
BRANCH   4   8
ATOM      8  N   UNL     1       2.139   7.692  18.787  0.00  0.00    +0.000 N 
ATOM      9  C   UNL     1       1.773   8.993  18.503  0.00  0.00    +0.000 C 
ATOM     10  O   UNL     1       2.125   9.579  17.479  0.00  0.00    +0.000 OA
ATOM     11  N   UNL     1       0.937   9.594  19.443  0.00  0.00    +0.000 N 
ATOM     12  C   UNL     1       0.699   9.112  20.796  0.00  0.00    +0.000 C 
ATOM     13  H   UNL     1       1.427   7.170  19.274  0.00  0.00    +0.000 HD
BRANCH  11  14
ATOM     14  C   UNL     1       0.335  10.882  19.099  0.00  0.00    +0.000 C 
BRANCH  14  15
ATOM     15  C   UNL     1      -1.026  10.691  18.486  0.00  0.00    +0.000 A 
ATOM     16  C   UNL     1      -1.445   9.813  17.498  0.00  0.00    +0.000 A 
ATOM     17  C   UNL     1      -2.825  10.018  17.274  0.00  0.00    +0.000 A 
ATOM     18  C   UNL     1      -3.238  10.990  18.152  0.00  0.00    +0.000 A 
ATOM     19  N   UNL     1      -2.153  11.375  18.899  0.00  0.00    +0.000 N 
ATOM     20  C   UNL     1      -2.229  12.337  19.984  0.00  0.00    +0.000 C 
ENDBRANCH  14  15
ENDBRANCH  11  14
ENDBRANCH   4   8
BRANCH   1  22
ATOM     21  N   UNL     1       5.602   4.424  14.373  0.00  0.00    +0.000 N 
ATOM     22  C   UNL     1       5.846   4.574  15.723  0.00  0.00    +0.000 C 
ATOM     23  O   UNL     1       6.769   4.028  16.315  0.00  0.00    +0.000 OA
ATOM     24  H   UNL     1       4.672   4.649  14.038  0.00  0.00    +0.000 HD
BRANCH  21  26
ATOM     25  C   UNL     1       5.753   3.280  12.215  0.00  0.00    +0.000 C 
ATOM     26  C   UNL     1       6.426   3.565  13.545  0.00  0.00    +0.000 C 
ENDBRANCH  21  26
ENDBRANCH   1  22
TORSDOF 5
ENDMDL
MODEL 2
REMARK VINA RESULT:      -7.4      1.657      2.274
REMARK  Name = 
REMARK  9 active torsions:
REMARK  status: ('A' for Active; 'I' for Inactive)
REMARK    1  A    between atoms: C_1  and  C_2
REMARK    2  A    between atoms: C_2  and  N_3
REMARK    3  A    between atoms: C_4  and  C_6
REMARK    4  A    between atoms: C_9  and  N_10
REMARK    5  A    between atoms: N_13  and  C_14
REMARK    6  A    between atoms: N_13  and  C_15
REMARK    7  A    between atoms: C_15  and  C_16
REMARK    8  A    between atoms: N_20  and  C_21
REMARK    9  A    between atoms: C_22  and  C_23
REMARK                            x       y       z     vdW  Elec       q    Type
REMARK                         _______ _______ _______ _____ _____    ______ ____
ROOT
ATOM      1  C   UNL     1       5.249   5.369  16.114  0.00  0.00    +0.000 A 
ATOM      2  C   UNL     1       5.381   6.738  16.376  0.00  0.00    +0.000 A 
ATOM      3  C   UNL     1       4.506   7.370  17.268  0.00  0.00    +0.000 A 
ATOM      4  C   UNL     1       3.467   6.658  17.892  0.00  0.00    +0.000 A 
ATOM      5  C   UNL     1       3.293   5.299  17.577  0.00  0.00    +0.000 A 
ATOM      6  C   UNL     1       2.090   4.507  18.011  0.00  0.00    +0.000 C 
ATOM      7  C   UNL     1       4.220   4.654  16.735  0.00  0.00    +0.000 A 
ENDROOT
BRANCH   4   8
ATOM      8  N   UNL     1       2.649   7.282  18.868  0.00  0.00    +0.000 N 
ATOM      9  C   UNL     1       1.911   8.420  18.614  0.00  0.00    +0.000 C 
ATOM     10  O   UNL     1       1.862   8.953  17.505  0.00  0.00    +0.000 OA
ATOM     11  N   UNL     1       1.183   8.911  19.698  0.00  0.00    +0.000 N 
ATOM     12  C   UNL     1       1.388   8.543  21.092  0.00  0.00    +0.000 C 
ATOM     13  H   UNL     1       2.221   6.666  19.542  0.00  0.00    +0.000 HD
BRANCH  11  14
ATOM     14  C   UNL     1       0.213   9.977  19.445  0.00  0.00    +0.000 C 
BRANCH  14  15
ATOM     15  C   UNL     1       0.804  11.324  19.765  0.00  0.00    +0.000 A 
ATOM     16  C   UNL     1       1.665  12.121  19.025  0.00  0.00    +0.000 A 
ATOM     17  C   UNL     1       1.925  13.300  19.759  0.00  0.00    +0.000 A 
ATOM     18  C   UNL     1       1.192  13.225  20.918  0.00  0.00    +0.000 A 
ATOM     19  N   UNL     1       0.497  12.042  20.905  0.00  0.00    +0.000 N 
ATOM     20  C   UNL     1      -0.445  11.655  21.940  0.00  0.00    +0.000 C 
ENDBRANCH  14  15
ENDBRANCH  11  14
ENDBRANCH   4   8
BRANCH   1  22
ATOM     21  N   UNL     1       5.613   4.198  14.008  0.00  0.00    +0.000 N 
ATOM     22  C   UNL     1       6.164   4.637  15.194  0.00  0.00    +0.000 C 
ATOM     23  O   UNL     1       7.324   4.425  15.529  0.00  0.00    +0.000 OA
ATOM     24  H   UNL     1       4.603   4.148  13.952  0.00  0.00    +0.000 HD
BRANCH  21  26
ATOM     25  C   UNL     1       7.107   4.299  12.072  0.00  0.00    +0.000 C 
ATOM     26  C   UNL     1       6.379   3.409  13.063  0.00  0.00    +0.000 C 
ENDBRANCH  21  26
ENDBRANCH   1  22
TORSDOF 5
ENDMDL
MODEL 3
REMARK VINA RESULT:      -7.3      1.553      2.407
REMARK  Name = 
REMARK  9 active torsions:
REMARK  status: ('A' for Active; 'I' for Inactive)
REMARK    1  A    between atoms: C_1  and  C_2
REMARK    2  A    between atoms: C_2  and  N_3
REMARK    3  A    between atoms: C_4  and  C_6
REMARK    4  A    between atoms: C_9  and  N_10
REMARK    5  A    between atoms: N_13  and  C_14
REMARK    6  A    between atoms: N_13  and  C_15
REMARK    7  A    between atoms: C_15  and  C_16
REMARK    8  A    between atoms: N_20  and  C_21
REMARK    9  A    between atoms: C_22  and  C_23
REMARK                            x       y       z     vdW  Elec       q    Type
REMARK                         _______ _______ _______ _____ _____    ______ ____
ROOT
ATOM      1  C   UNL     1       5.063   5.311  16.278  0.00  0.00    +0.000 A 
ATOM      2  C   UNL     1       5.228   6.690  16.455  0.00  0.00    +0.000 A 
ATOM      3  C   UNL     1       4.367   7.398  17.302  0.00  0.00    +0.000 A 
ATOM      4  C   UNL     1       3.310   6.752  17.966  0.00  0.00    +0.000 A 
ATOM      5  C   UNL     1       3.104   5.380  17.735  0.00  0.00    +0.000 A 
ATOM      6  C   UNL     1       1.880   4.646  18.213  0.00  0.00    +0.000 C 
ATOM      7  C   UNL     1       4.017   4.662  16.939  0.00  0.00    +0.000 A 
ENDROOT
BRANCH   4   8
ATOM      8  N   UNL     1       2.505   7.455  18.898  0.00  0.00    +0.000 N 
ATOM      9  C   UNL     1       1.778   8.580  18.565  0.00  0.00    +0.000 C 
ATOM     10  O   UNL     1       1.727   9.030  17.420  0.00  0.00    +0.000 OA
ATOM     11  N   UNL     1       1.063   9.157  19.614  0.00  0.00    +0.000 N 
ATOM     12  C   UNL     1       1.273   8.890  21.030  0.00  0.00    +0.000 C 
ATOM     13  H   UNL     1       2.075   6.895  19.618  0.00  0.00    +0.000 HD
BRANCH  11  14
ATOM     14  C   UNL     1       0.103  10.212  19.289  0.00  0.00    +0.000 C 
BRANCH  14  15
ATOM     15  C   UNL     1       0.443  11.486  20.015  0.00  0.00    +0.000 A 
ATOM     16  C   UNL     1      -0.028  11.980  21.223  0.00  0.00    +0.000 A 
ATOM     17  C   UNL     1       0.603  13.219  21.476  0.00  0.00    +0.000 A 
ATOM     18  C   UNL     1       1.478  13.446  20.441  0.00  0.00    +0.000 A 
ATOM     19  N   UNL     1       1.396  12.385  19.575  0.00  0.00    +0.000 N 
ATOM     20  C   UNL     1       2.233  12.246  18.398  0.00  0.00    +0.000 C 
ENDBRANCH  14  15
ENDBRANCH  11  14
ENDBRANCH   4   8
BRANCH   1  22
ATOM     21  N   UNL     1       5.527   4.280  14.120  0.00  0.00    +0.000 N 
ATOM     22  C   UNL     1       5.963   4.502  15.409  0.00  0.00    +0.000 C 
ATOM     23  O   UNL     1       7.004   4.044  15.867  0.00  0.00    +0.000 OA
ATOM     24  H   UNL     1       4.542   4.427  13.927  0.00  0.00    +0.000 HD
BRANCH  21  26
ATOM     25  C   UNL     1       5.486   3.192  11.927  0.00  0.00    +0.000 C 
ATOM     26  C   UNL     1       6.274   3.445  13.200  0.00  0.00    +0.000 C 
ENDBRANCH  21  26
ENDBRANCH   1  22
TORSDOF 5
ENDMDL
MODEL 4
REMARK VINA RESULT:      -7.1      1.150      1.943
REMARK  Name = 
REMARK  9 active torsions:
REMARK  status: ('A' for Active; 'I' for Inactive)
REMARK    1  A    between atoms: C_1  and  C_2
REMARK    2  A    between atoms: C_2  and  N_3
REMARK    3  A    between atoms: C_4  and  C_6
REMARK    4  A    between atoms: C_9  and  N_10
REMARK    5  A    between atoms: N_13  and  C_14
REMARK    6  A    between atoms: N_13  and  C_15
REMARK    7  A    between atoms: C_15  and  C_16
REMARK    8  A    between atoms: N_20  and  C_21
REMARK    9  A    between atoms: C_22  and  C_23
REMARK                            x       y       z     vdW  Elec       q    Type
REMARK                         _______ _______ _______ _____ _____    ______ ____
ROOT
ATOM      1  C   UNL     1       5.044   5.436  16.385  0.00  0.00    +0.000 A 
ATOM      2  C   UNL     1       5.199   6.805  16.633  0.00  0.00    +0.000 A 
ATOM      3  C   UNL     1       4.344   7.457  17.531  0.00  0.00    +0.000 A 
ATOM      4  C   UNL     1       3.304   6.765  18.174  0.00  0.00    +0.000 A 
ATOM      5  C   UNL     1       3.106   5.406  17.873  0.00  0.00    +0.000 A 
ATOM      6  C   UNL     1       1.898   4.635  18.329  0.00  0.00    +0.000 C 
ATOM      7  C   UNL     1       4.013   4.741  17.025  0.00  0.00    +0.000 A 
ENDROOT
BRANCH   4   8
ATOM      8  N   UNL     1       2.506   7.409  19.156  0.00  0.00    +0.000 N 
ATOM      9  C   UNL     1       1.625   8.428  18.858  0.00  0.00    +0.000 C 
ATOM     10  O   UNL     1       1.420   8.822  17.709  0.00  0.00    +0.000 OA
ATOM     11  N   UNL     1       0.942   8.962  19.950  0.00  0.00    +0.000 N 
ATOM     12  C   UNL     1       1.307   8.780  21.348  0.00  0.00    +0.000 C 
ATOM     13  H   UNL     1       2.211   6.834  19.929  0.00  0.00    +0.000 HD
BRANCH  11  14
ATOM     14  C   UNL     1      -0.161   9.886  19.683  0.00  0.00    +0.000 C 
BRANCH  14  15
ATOM     15  C   UNL     1       0.354  11.281  19.452  0.00  0.00    +0.000 A 
ATOM     16  C   UNL     1       1.535  11.878  19.868  0.00  0.00    +0.000 A 
ATOM     17  C   UNL     1       1.555  13.208  19.389  0.00  0.00    +0.000 A 
ATOM     18  C   UNL     1       0.408  13.393  18.658  0.00  0.00    +0.000 A 
ATOM     19  N   UNL     1      -0.302  12.219  18.678  0.00  0.00    +0.000 N 
ATOM     20  C   UNL     1      -1.539  12.019  17.946  0.00  0.00    +0.000 C 
ENDBRANCH  14  15
ENDBRANCH  11  14
ENDBRANCH   4   8
BRANCH   1  22
ATOM     21  N   UNL     1       5.425   4.407  14.209  0.00  0.00    +0.000 N 
ATOM     22  C   UNL     1       5.937   4.684  15.460  0.00  0.00    +0.000 C 
ATOM     23  O   UNL     1       7.042   4.316  15.842  0.00  0.00    +0.000 OA
ATOM     24  H   UNL     1       4.420   4.474  14.090  0.00  0.00    +0.000 HD
BRANCH  21  26
ATOM     25  C   UNL     1       5.298   3.257  12.053  0.00  0.00    +0.000 C 
ATOM     26  C   UNL     1       6.165   3.616  13.245  0.00  0.00    +0.000 C 
ENDBRANCH  21  26
ENDBRANCH   1  22
TORSDOF 5
ENDMDL
MODEL 5
REMARK VINA RESULT:      -7.1      2.766      4.305
REMARK  Name = 
REMARK  9 active torsions:
REMARK  status: ('A' for Active; 'I' for Inactive)
REMARK    1  A    between atoms: C_1  and  C_2
REMARK    2  A    between atoms: C_2  and  N_3
REMARK    3  A    between atoms: C_4  and  C_6
REMARK    4  A    between atoms: C_9  and  N_10
REMARK    5  A    between atoms: N_13  and  C_14
REMARK    6  A    between atoms: N_13  and  C_15
REMARK    7  A    between atoms: C_15  and  C_16
REMARK    8  A    between atoms: N_20  and  C_21
REMARK    9  A    between atoms: C_22  and  C_23
REMARK                            x       y       z     vdW  Elec       q    Type
REMARK                         _______ _______ _______ _____ _____    ______ ____
ROOT
ATOM      1  C   UNL     1       2.581   6.965  18.907  0.00  0.00    +0.000 A 
ATOM      2  C   UNL     1       2.384   7.870  17.857  0.00  0.00    +0.000 A 
ATOM      3  C   UNL     1       1.759   9.100  18.096  0.00  0.00    +0.000 A 
ATOM      4  C   UNL     1       1.293   9.438  19.378  0.00  0.00    +0.000 A 
ATOM      5  C   UNL     1       1.430   8.501  20.418  0.00  0.00    +0.000 A 
ATOM      6  C   UNL     1       0.772   8.669  21.761  0.00  0.00    +0.000 C 
ATOM      7  C   UNL     1       2.123   7.298  20.185  0.00  0.00    +0.000 A 
ENDROOT
BRANCH   4   8
ATOM      8  N   UNL     1       0.751  10.724  19.634  0.00  0.00    +0.000 N 
ATOM      9  C   UNL     1      -0.585  11.025  19.461  0.00  0.00    +0.000 C 
ATOM     10  O   UNL     1      -1.422  10.186  19.124  0.00  0.00    +0.000 OA
ATOM     11  N   UNL     1      -0.938  12.345  19.735  0.00  0.00    +0.000 N 
ATOM     12  C   UNL     1      -0.010  13.462  19.856  0.00  0.00    +0.000 C 
ATOM     13  H   UNL     1       1.189  11.246  20.377  0.00  0.00    +0.000 HD
BRANCH  11  14
ATOM     14  C   UNL     1      -2.361  12.678  19.787  0.00  0.00    +0.000 C 
BRANCH  14  15
ATOM     15  C   UNL     1      -2.876  12.606  21.200  0.00  0.00    +0.000 A 
ATOM     16  C   UNL     1      -2.225  12.248  22.371  0.00  0.00    +0.000 A 
ATOM     17  C   UNL     1      -3.143  12.345  23.441  0.00  0.00    +0.000 A 
ATOM     18  C   UNL     1      -4.330  12.795  22.916  0.00  0.00    +0.000 A 
ATOM     19  N   UNL     1      -4.156  12.975  21.566  0.00  0.00    +0.000 N 
ATOM     20  C   UNL     1      -5.181  13.515  20.692  0.00  0.00    +0.000 C 
ENDBRANCH  14  15
ENDBRANCH  11  14
ENDBRANCH   4   8
BRANCH   1  22
ATOM     21  N   UNL     1       2.892   4.932  17.601  0.00  0.00    +0.000 N 
ATOM     22  C   UNL     1       3.261   5.653  18.717  0.00  0.00    +0.000 C 
ATOM     23  O   UNL     1       4.068   5.258  19.551  0.00  0.00    +0.000 OA
ATOM     24  H   UNL     1       2.021   5.184  17.148  0.00  0.00    +0.000 HD
BRANCH  21  26
ATOM     25  C   UNL     1       2.442   2.532  17.769  0.00  0.00    +0.000 C 
ATOM     26  C   UNL     1       3.425   3.608  17.344  0.00  0.00    +0.000 C 
ENDBRANCH  21  26
ENDBRANCH   1  22
TORSDOF 5
ENDMDL
MODEL 6
REMARK VINA RESULT:      -7.0      1.335      1.576
REMARK  Name = 
REMARK  9 active torsions:
REMARK  status: ('A' for Active; 'I' for Inactive)
REMARK    1  A    between atoms: C_1  and  C_2
REMARK    2  A    between atoms: C_2  and  N_3
REMARK    3  A    between atoms: C_4  and  C_6
REMARK    4  A    between atoms: C_9  and  N_10
REMARK    5  A    between atoms: N_13  and  C_14
REMARK    6  A    between atoms: N_13  and  C_15
REMARK    7  A    between atoms: C_15  and  C_16
REMARK    8  A    between atoms: N_20  and  C_21
REMARK    9  A    between atoms: C_22  and  C_23
REMARK                            x       y       z     vdW  Elec       q    Type
REMARK                         _______ _______ _______ _____ _____    ______ ____
ROOT
ATOM      1  C   UNL     1       4.132   5.862  17.980  0.00  0.00    +0.000 A 
ATOM      2  C   UNL     1       3.865   7.094  17.369  0.00  0.00    +0.000 A 
ATOM      3  C   UNL     1       2.923   7.966  17.928  0.00  0.00    +0.000 A 
ATOM      4  C   UNL     1       2.211   7.617  19.088  0.00  0.00    +0.000 A 
ATOM      5  C   UNL     1       2.431   6.352  19.663  0.00  0.00    +0.000 A 
ATOM      6  C   UNL     1       1.569   5.794  20.763  0.00  0.00    +0.000 C 
ATOM      7  C   UNL     1       3.430   5.511  19.136  0.00  0.00    +0.000 A 
ENDROOT
BRANCH   4   8
ATOM      8  N   UNL     1       1.332   8.545  19.704  0.00  0.00    +0.000 N 
ATOM      9  C   UNL     1       1.037   9.777  19.156  0.00  0.00    +0.000 C 
ATOM     10  O   UNL     1       1.469  10.145  18.062  0.00  0.00    +0.000 OA
ATOM     11  N   UNL     1       0.175  10.572  19.910  0.00  0.00    +0.000 N 
ATOM     12  C   UNL     1      -0.157  10.366  21.313  0.00  0.00    +0.000 C 
ATOM     13  H   UNL     1       0.573   8.148  20.235  0.00  0.00    +0.000 HD
BRANCH  11  14
ATOM     14  C   UNL     1      -0.354  11.788  19.291  0.00  0.00    +0.000 C 
BRANCH  14  15
ATOM     15  C   UNL     1      -1.705  11.533  18.680  0.00  0.00    +0.000 A 
ATOM     16  C   UNL     1      -2.061  10.755  17.588  0.00  0.00    +0.000 A 
ATOM     17  C   UNL     1      -3.461  10.838  17.418  0.00  0.00    +0.000 A 
ATOM     18  C   UNL     1      -3.946  11.632  18.428  0.00  0.00    +0.000 A 
ATOM     19  N   UNL     1      -2.885  12.029  19.202  0.00  0.00    +0.000 N 
ATOM     20  C   UNL     1      -3.028  12.822  20.409  0.00  0.00    +0.000 C 
ENDBRANCH  14  15
ENDBRANCH  11  14
ENDBRANCH   4   8
BRANCH   1  22
ATOM     21  N   UNL     1       5.172   4.757  16.074  0.00  0.00    +0.000 N 
ATOM     22  C   UNL     1       5.140   4.905  17.445  0.00  0.00    +0.000 C 
ATOM     23  O   UNL     1       5.854   4.275  18.217  0.00  0.00    +0.000 OA
ATOM     24  H   UNL     1       4.364   5.072  15.551  0.00  0.00    +0.000 HD
BRANCH  21  26
ATOM     25  C   UNL     1       6.096   4.012  13.933  0.00  0.00    +0.000 C 
ATOM     26  C   UNL     1       6.055   3.800  15.436  0.00  0.00    +0.000 C 
ENDBRANCH  21  26
ENDBRANCH   1  22
TORSDOF 5
ENDMDL
MODEL 7
REMARK VINA RESULT:      -6.9      2.191      2.952
REMARK  Name = 
REMARK  9 active torsions:
REMARK  status: ('A' for Active; 'I' for Inactive)
REMARK    1  A    between atoms: C_1  and  C_2
REMARK    2  A    between atoms: C_2  and  N_3
REMARK    3  A    between atoms: C_4  and  C_6
REMARK    4  A    between atoms: C_9  and  N_10
REMARK    5  A    between atoms: N_13  and  C_14
REMARK    6  A    between atoms: N_13  and  C_15
REMARK    7  A    between atoms: C_15  and  C_16
REMARK    8  A    between atoms: N_20  and  C_21
REMARK    9  A    between atoms: C_22  and  C_23
REMARK                            x       y       z     vdW  Elec       q    Type
REMARK                         _______ _______ _______ _____ _____    ______ ____
ROOT
ATOM      1  C   UNL     1       3.845   5.068  17.857  0.00  0.00    +0.000 A 
ATOM      2  C   UNL     1       3.848   6.443  17.591  0.00  0.00    +0.000 A 
ATOM      3  C   UNL     1       3.153   7.323  18.429  0.00  0.00    +0.000 A 
ATOM      4  C   UNL     1       2.419   6.848  19.529  0.00  0.00    +0.000 A 
ATOM      5  C   UNL     1       2.360   5.462  19.758  0.00  0.00    +0.000 A 
ATOM      6  C   UNL     1       1.431   4.838  20.763  0.00  0.00    +0.000 C 
ATOM      7  C   UNL     1       3.120   4.590  18.953  0.00  0.00    +0.000 A 
ENDROOT
BRANCH   4   8
ATOM      8  N   UNL     1       1.800   7.753  20.430  0.00  0.00    +0.000 N 
ATOM      9  C   UNL     1       1.172   8.911  20.019  0.00  0.00    +0.000 C 
ATOM     10  O   UNL     1       1.051   9.223  18.833  0.00  0.00    +0.000 OA
ATOM     11  N   UNL     1       0.641   9.696  21.042  0.00  0.00    +0.000 N 
ATOM     12  C   UNL     1       0.969   9.578  22.456  0.00  0.00    +0.000 C 
ATOM     13  H   UNL     1       1.389   7.343  21.254  0.00  0.00    +0.000 HD
BRANCH  11  14
ATOM     14  C   UNL     1      -0.224  10.815  20.669  0.00  0.00    +0.000 C 
BRANCH  14  15
ATOM     15  C   UNL     1       0.491  12.127  20.851  0.00  0.00    +0.000 A 
ATOM     16  C   UNL     1       1.581  12.653  20.172  0.00  0.00    +0.000 A 
ATOM     17  C   UNL     1       1.874  13.924  20.715  0.00  0.00    +0.000 A 
ATOM     18  C   UNL     1       0.940  14.174  21.690  0.00  0.00    +0.000 A 
ATOM     19  N   UNL     1       0.092  13.096  21.751  0.00  0.00    +0.000 N 
ATOM     20  C   UNL     1      -1.069  13.039  22.621  0.00  0.00    +0.000 C 
ENDBRANCH  14  15
ENDBRANCH  11  14
ENDBRANCH   4   8
BRANCH   1  22
ATOM     21  N   UNL     1       5.493   4.615  16.121  0.00  0.00    +0.000 N 
ATOM     22  C   UNL     1       4.586   4.087  17.016  0.00  0.00    +0.000 C 
ATOM     23  O   UNL     1       4.343   2.890  17.117  0.00  0.00    +0.000 OA
ATOM     24  H   UNL     1       5.407   5.599  15.894  0.00  0.00    +0.000 HD
BRANCH  21  26
ATOM     25  C   UNL     1       5.858   4.099  13.757  0.00  0.00    +0.000 C 
ATOM     26  C   UNL     1       6.221   3.771  15.194  0.00  0.00    +0.000 C 
ENDBRANCH  21  26
ENDBRANCH   1  22
TORSDOF 5
ENDMDL
MODEL 8
REMARK VINA RESULT:      -6.9      2.629      8.693
REMARK  Name = 
REMARK  9 active torsions:
REMARK  status: ('A' for Active; 'I' for Inactive)
REMARK    1  A    between atoms: C_1  and  C_2
REMARK    2  A    between atoms: C_2  and  N_3
REMARK    3  A    between atoms: C_4  and  C_6
REMARK    4  A    between atoms: C_9  and  N_10
REMARK    5  A    between atoms: N_13  and  C_14
REMARK    6  A    between atoms: N_13  and  C_15
REMARK    7  A    between atoms: C_15  and  C_16
REMARK    8  A    between atoms: N_20  and  C_21
REMARK    9  A    between atoms: C_22  and  C_23
REMARK                            x       y       z     vdW  Elec       q    Type
REMARK                         _______ _______ _______ _____ _____    ______ ____
ROOT
ATOM      1  C   UNL     1       1.363  10.500  19.154  0.00  0.00    +0.000 A 
ATOM      2  C   UNL     1       1.892  10.111  17.917  0.00  0.00    +0.000 A 
ATOM      3  C   UNL     1       2.181   8.763  17.670  0.00  0.00    +0.000 A 
ATOM      4  C   UNL     1       1.977   7.785  18.658  0.00  0.00    +0.000 A 
ATOM      5  C   UNL     1       1.509   8.186  19.922  0.00  0.00    +0.000 A 
ATOM      6  C   UNL     1       1.468   7.262  21.109  0.00  0.00    +0.000 C 
ATOM      7  C   UNL     1       1.153   9.531  20.139  0.00  0.00    +0.000 A 
ENDROOT
BRANCH   4   8
ATOM      8  N   UNL     1       2.178   6.411  18.367  0.00  0.00    +0.000 N 
ATOM      9  C   UNL     1       3.427   5.862  18.159  0.00  0.00    +0.000 C 
ATOM     10  O   UNL     1       4.469   6.510  18.263  0.00  0.00    +0.000 OA
ATOM     11  N   UNL     1       3.436   4.500  17.858  0.00  0.00    +0.000 N 
ATOM     12  C   UNL     1       2.282   3.720  17.434  0.00  0.00    +0.000 C 
ATOM     13  H   UNL     1       1.521   5.771  18.787  0.00  0.00    +0.000 HD
BRANCH  11  14
ATOM     14  C   UNL     1       4.725   3.810  17.844  0.00  0.00    +0.000 C 
BRANCH  14  15
ATOM     15  C   UNL     1       5.502   4.155  16.601  0.00  0.00    +0.000 A 
ATOM     16  C   UNL     1       5.086   4.234  15.281  0.00  0.00    +0.000 A 
ATOM     17  C   UNL     1       6.195   4.601  14.485  0.00  0.00    +0.000 A 
ATOM     18  C   UNL     1       7.261   4.777  15.332  0.00  0.00    +0.000 A 
ATOM     19  N   UNL     1       6.832   4.531  16.612  0.00  0.00    +0.000 N 
ATOM     20  C   UNL     1       7.673   4.692  17.784  0.00  0.00    +0.000 C 
ENDBRANCH  14  15
ENDBRANCH  11  14
ENDBRANCH   4   8
BRANCH   1  22
ATOM     21  N   UNL     1       1.497  12.414  20.657  0.00  0.00    +0.000 N 
ATOM     22  C   UNL     1       1.013  11.914  19.465  0.00  0.00    +0.000 C 
ATOM     23  O   UNL     1       0.299  12.550  18.698  0.00  0.00    +0.000 OA
ATOM     24  H   UNL     1       1.807  11.745  21.353  0.00  0.00    +0.000 HD
BRANCH  21  26
ATOM     25  C   UNL     1      -0.079  13.737  21.982  0.00  0.00    +0.000 C 
ATOM     26  C   UNL     1       1.164  13.750  21.110  0.00  0.00    +0.000 C 
ENDBRANCH  21  26
ENDBRANCH   1  22
TORSDOF 5
ENDMDL
MODEL 9
REMARK VINA RESULT:      -6.8      3.011      4.875
REMARK  Name = 
REMARK  9 active torsions:
REMARK  status: ('A' for Active; 'I' for Inactive)
REMARK    1  A    between atoms: C_1  and  C_2
REMARK    2  A    between atoms: C_2  and  N_3
REMARK    3  A    between atoms: C_4  and  C_6
REMARK    4  A    between atoms: C_9  and  N_10
REMARK    5  A    between atoms: N_13  and  C_14
REMARK    6  A    between atoms: N_13  and  C_15
REMARK    7  A    between atoms: C_15  and  C_16
REMARK    8  A    between atoms: N_20  and  C_21
REMARK    9  A    between atoms: C_22  and  C_23
REMARK                            x       y       z     vdW  Elec       q    Type
REMARK                         _______ _______ _______ _____ _____    ______ ____
ROOT
ATOM      1  C   UNL     1       2.305   7.633  18.701  0.00  0.00    +0.000 A 
ATOM      2  C   UNL     1       2.098   8.705  17.825  0.00  0.00    +0.000 A 
ATOM      3  C   UNL     1       1.446   9.861  18.271  0.00  0.00    +0.000 A 
ATOM      4  C   UNL     1       0.965   9.959  19.588  0.00  0.00    +0.000 A 
ATOM      5  C   UNL     1       1.114   8.856  20.448  0.00  0.00    +0.000 A 
ATOM      6  C   UNL     1       0.444   8.772  21.792  0.00  0.00    +0.000 C 
ATOM      7  C   UNL     1       1.833   7.726  20.013  0.00  0.00    +0.000 A 
ENDROOT
BRANCH   4   8
ATOM      8  N   UNL     1       0.395  11.169  20.062  0.00  0.00    +0.000 N 
ATOM      9  C   UNL     1      -0.937  11.489  19.895  0.00  0.00    +0.000 C 
ATOM     10  O   UNL     1      -1.748  10.725  19.371  0.00  0.00    +0.000 OA
ATOM     11  N   UNL     1      -1.319  12.731  20.400  0.00  0.00    +0.000 N 
ATOM     12  C   UNL     1      -0.412  13.810  20.769  0.00  0.00    +0.000 C 
ATOM     13  H   UNL     1       0.797  11.543  20.907  0.00  0.00    +0.000 HD
BRANCH  11  14
ATOM     14  C   UNL     1      -2.748  13.038  20.456  0.00  0.00    +0.000 C 
BRANCH  14  15
ATOM     15  C   UNL     1      -3.210  13.170  21.883  0.00  0.00    +0.000 A 
ATOM     16  C   UNL     1      -3.165  12.256  22.925  0.00  0.00    +0.000 A 
ATOM     17  C   UNL     1      -3.722  12.861  24.074  0.00  0.00    +0.000 A 
ATOM     18  C   UNL     1      -4.065  14.146  23.730  0.00  0.00    +0.000 A 
ATOM     19  N   UNL     1      -3.731  14.335  22.412  0.00  0.00    +0.000 N 
ATOM     20  C   UNL     1      -3.882  15.604  21.723  0.00  0.00    +0.000 C 
ENDBRANCH  14  15
ENDBRANCH  11  14
ENDBRANCH   4   8
BRANCH   1  22
ATOM     21  N   UNL     1       2.574   5.217  18.869  0.00  0.00    +0.000 N 
ATOM     22  C   UNL     1       3.013   6.388  18.289  0.00  0.00    +0.000 C 
ATOM     23  O   UNL     1       3.955   6.452  17.507  0.00  0.00    +0.000 OA
ATOM     24  H   UNL     1       2.015   5.293  19.712  0.00  0.00    +0.000 HD
BRANCH  21  26
ATOM     25  C   UNL     1       2.573   3.223  17.450  0.00  0.00    +0.000 C 
ATOM     26  C   UNL     1       3.229   3.950  18.610  0.00  0.00    +0.000 C 
ENDBRANCH  21  26
ENDBRANCH   1  22
TORSDOF 5
ENDMDL
