MODEL 1
REMARK VINA RESULT:      -8.3      0.000      0.000
REMARK  Name = 
REMARK  8 active torsions:
REMARK  status: ('A' for Active; 'I' for Inactive)
REMARK    1  A    between atoms: C_1  and  S_2
REMARK    2  A    between atoms: S_2  and  C_5
REMARK    3  A    between atoms: C_10  and  N_11
REMARK    4  A    between atoms: C_12  and  C_14
REMARK    5  A    between atoms: C_14  and  O_15
REMARK    6  A    between atoms: O_15  and  C_16
REMARK    7  A    between atoms: C_16  and  C_18
REMARK    8  A    between atoms: C_19  and  C_20
REMARK                            x       y       z     vdW  Elec       q    Type
REMARK                         _______ _______ _______ _____ _____    ______ ____
ROOT
ATOM      1  C   UNL     1       1.463   8.991  19.113  0.00  0.00    +0.000 C 
ENDROOT
BRANCH   1   3
ATOM      2  N   UNL     1       2.575   6.842  18.714  0.00  0.00    +0.000 N 
ATOM      3  C   UNL     1       2.383   8.136  18.239  0.00  0.00    +0.000 C 
ATOM      4  O   UNL     1       2.807   8.601  17.188  0.00  0.00    +0.000 OA
ATOM      5  H   UNL     1       1.957   6.574  19.473  0.00  0.00    +0.000 HD
BRANCH   2  11
ATOM      6  C   UNL     1       5.549   5.082  17.328  0.00  0.00    +0.000 A 
ATOM      7  C   UNL     1       5.072   3.817  17.011  0.00  0.00    +0.000 A 
ATOM      8  C   UNL     1       3.726   3.537  17.210  0.00  0.00    +0.000 A 
ATOM      9  C   UNL     1       2.845   4.507  17.726  0.00  0.00    +0.000 A 
ATOM     10 CL   UNL     1       1.182   4.048  17.611  0.00  0.00    +0.000 Cl
ATOM     11  C   UNL     1       3.324   5.779  18.117  0.00  0.00    +0.000 A 
ATOM     12  C   UNL     1       4.692   6.059  17.870  0.00  0.00    +0.000 A 
BRANCH   6  14
ATOM     13  C   UNL     1       7.633   6.852  17.943  0.00  0.00    +0.000 C 
ATOM     14  S   UNL     1       7.244   5.460  16.918  0.00  0.00    +0.000 S 
ATOM     15  O   UNL     1       7.264   5.892  15.534  0.00  0.00    +0.000 OA
ATOM     16  O   UNL     1       8.051   4.342  17.352  0.00  0.00    +0.000 OA
ENDBRANCH   6  14
ENDBRANCH   2  11
ENDBRANCH   1   3
BRANCH   1  17
ATOM     17  O   UNL     1       1.073  10.147  18.362  0.00  0.00    +0.000 OA
BRANCH  17  18
ATOM     18  C   UNL     1       0.754  11.255  19.063  0.00  0.00    +0.000 C 
ATOM     19  O   UNL     1       1.530  12.035  19.588  0.00  0.00    +0.000 OA
BRANCH  18  20
ATOM     20  C   UNL     1      -0.718  11.321  19.151  0.00  0.00    +0.000 C 
ATOM     21  C   UNL     1      -1.463  11.488  18.045  0.00  0.00    +0.000 C 
BRANCH  21  22
ATOM     22  C   UNL     1      -2.926  11.608  18.068  0.00  0.00    +0.000 A 
ATOM     23  C   UNL     1      -3.689  11.353  16.936  0.00  0.00    +0.000 A 
ATOM     24  N   UNL     1      -5.036  11.483  16.909  0.00  0.00    +0.000 NA
ATOM     25  C   UNL     1      -5.624  11.875  18.056  0.00  0.00    +0.000 A 
ATOM     26  C   UNL     1      -7.004  12.043  18.103  0.00  0.00    +0.000 A 
ATOM     27  C   UNL     1      -7.649  12.451  19.273  0.00  0.00    +0.000 A 
ATOM     28  C   UNL     1      -6.902  12.688  20.419  0.00  0.00    +0.000 A 
ATOM     29  C   UNL     1      -5.516  12.520  20.383  0.00  0.00    +0.000 A 
ATOM     30  C   UNL     1      -4.858  12.126  19.221  0.00  0.00    +0.000 A 
ATOM     31  N   UNL     1      -3.513  11.997  19.226  0.00  0.00    +0.000 NA
ENDBRANCH  21  22
ENDBRANCH  18  20
ENDBRANCH  17  18
ENDBRANCH   1  17
TORSDOF 7
ENDMDL
MODEL 2
REMARK VINA RESULT:      -8.3      1.242      1.442
REMARK  Name = 
REMARK  8 active torsions:
REMARK  status: ('A' for Active; 'I' for Inactive)
REMARK    1  A    between atoms: C_1  and  S_2
REMARK    2  A    between atoms: S_2  and  C_5
REMARK    3  A    between atoms: C_10  and  N_11
REMARK    4  A    between atoms: C_12  and  C_14
REMARK    5  A    between atoms: C_14  and  O_15
REMARK    6  A    between atoms: O_15  and  C_16
REMARK    7  A    between atoms: C_16  and  C_18
REMARK    8  A    between atoms: C_19  and  C_20
REMARK                            x       y       z     vdW  Elec       q    Type
REMARK                         _______ _______ _______ _____ _____    ______ ____
ROOT
ATOM      1  C   UNL     1       1.521   8.555  19.916  0.00  0.00    +0.000 C 
ENDROOT
BRANCH   1   3
ATOM      2  N   UNL     1       2.665   6.974  18.430  0.00  0.00    +0.000 N 
ATOM      3  C   UNL     1       2.139   7.171  19.703  0.00  0.00    +0.000 C 
ATOM      4  O   UNL     1       2.195   6.393  20.648  0.00  0.00    +0.000 OA
ATOM      5  H   UNL     1       2.729   7.814  17.865  0.00  0.00    +0.000 HD
BRANCH   2  11
ATOM      6  C   UNL     1       5.493   5.000  17.026  0.00  0.00    +0.000 A 
ATOM      7  C   UNL     1       4.992   3.708  16.947  0.00  0.00    +0.000 A 
ATOM      8  C   UNL     1       3.673   3.474  17.318  0.00  0.00    +0.000 A 
ATOM      9  C   UNL     1       2.845   4.517  17.771  0.00  0.00    +0.000 A 
ATOM     10 CL   UNL     1       1.181   4.065  17.891  0.00  0.00    +0.000 Cl
ATOM     11  C   UNL     1       3.355   5.828  17.923  0.00  0.00    +0.000 A 
ATOM     12  C   UNL     1       4.690   6.055  17.503  0.00  0.00    +0.000 A 
BRANCH   6  14
ATOM     13  C   UNL     1       7.017   4.904  14.677  0.00  0.00    +0.000 C 
ATOM     14  S   UNL     1       7.137   5.296  16.399  0.00  0.00    +0.000 S 
ATOM     15  O   UNL     1       8.016   4.328  17.028  0.00  0.00    +0.000 OA
ATOM     16  O   UNL     1       7.395   6.713  16.522  0.00  0.00    +0.000 OA
ENDBRANCH   6  14
ENDBRANCH   2  11
ENDBRANCH   1   3
BRANCH   1  17
ATOM     17  O   UNL     1       1.182   9.099  18.634  0.00  0.00    +0.000 OA
BRANCH  17  18
ATOM     18  C   UNL     1       1.160  10.444  18.526  0.00  0.00    +0.000 C 
ATOM     19  O   UNL     1       2.126  11.185  18.447  0.00  0.00    +0.000 OA
BRANCH  18  20
ATOM     20  C   UNL     1      -0.249  10.877  18.594  0.00  0.00    +0.000 C 
ATOM     21  C   UNL     1      -1.142  10.447  17.688  0.00  0.00    +0.000 C 
BRANCH  21  22
ATOM     22  C   UNL     1      -2.547  10.875  17.672  0.00  0.00    +0.000 A 
ATOM     23  C   UNL     1      -3.345  10.687  16.552  0.00  0.00    +0.000 A 
ATOM     24  N   UNL     1      -4.635  11.096  16.488  0.00  0.00    +0.000 NA
ATOM     25  C   UNL     1      -5.126  11.704  17.585  0.00  0.00    +0.000 A 
ATOM     26  C   UNL     1      -6.440  12.164  17.591  0.00  0.00    +0.000 A 
ATOM     27  C   UNL     1      -6.983  12.801  18.708  0.00  0.00    +0.000 A 
ATOM     28  C   UNL     1      -6.203  12.976  19.843  0.00  0.00    +0.000 A 
ATOM     29  C   UNL     1      -4.884  12.517  19.849  0.00  0.00    +0.000 A 
ATOM     30  C   UNL     1      -4.325  11.890  18.739  0.00  0.00    +0.000 A 
ATOM     31  N   UNL     1      -3.038  11.481  18.780  0.00  0.00    +0.000 NA
ENDBRANCH  21  22
ENDBRANCH  18  20
ENDBRANCH  17  18
ENDBRANCH   1  17
TORSDOF 7
ENDMDL
MODEL 3
REMARK VINA RESULT:      -8.2      4.035     10.943
REMARK  Name = 
REMARK  8 active torsions:
REMARK  status: ('A' for Active; 'I' for Inactive)
REMARK    1  A    between atoms: C_1  and  S_2
REMARK    2  A    between atoms: S_2  and  C_5
REMARK    3  A    between atoms: C_10  and  N_11
REMARK    4  A    between atoms: C_12  and  C_14
REMARK    5  A    between atoms: C_14  and  O_15
REMARK    6  A    between atoms: O_15  and  C_16
REMARK    7  A    between atoms: C_16  and  C_18
REMARK    8  A    between atoms: C_19  and  C_20
REMARK                            x       y       z     vdW  Elec       q    Type
REMARK                         _______ _______ _______ _____ _____    ______ ____
ROOT
ATOM      1  C   UNL     1       2.403   7.876  17.804  0.00  0.00    +0.000 C 
ENDROOT
BRANCH   1   3
ATOM      2  N   UNL     1       0.482   9.193  18.571  0.00  0.00    +0.000 N 
ATOM      3  C   UNL     1       1.720   9.239  17.936  0.00  0.00    +0.000 C 
ATOM      4  O   UNL     1       2.315  10.242  17.560  0.00  0.00    +0.000 OA
ATOM      5  H   UNL     1       0.267   8.306  19.013  0.00  0.00    +0.000 HD
BRANCH   2  11
ATOM      6  C   UNL     1      -0.902  12.005  20.580  0.00  0.00    +0.000 A 
ATOM      7  C   UNL     1      -1.911  12.524  19.779  0.00  0.00    +0.000 A 
ATOM      8  C   UNL     1      -2.186  11.911  18.563  0.00  0.00    +0.000 A 
ATOM      9  C   UNL     1      -1.461  10.784  18.131  0.00  0.00    +0.000 A 
ATOM     10 CL   UNL     1      -2.158  10.013  16.750  0.00  0.00    +0.000 Cl
ATOM     11  C   UNL     1      -0.386  10.281  18.901  0.00  0.00    +0.000 A 
ATOM     12  C   UNL     1      -0.146  10.895  20.156  0.00  0.00    +0.000 A 
BRANCH   6  14
ATOM     13  C   UNL     1      -2.144  13.674  22.458  0.00  0.00    +0.000 C 
ATOM     14  S   UNL     1      -0.676  12.717  22.201  0.00  0.00    +0.000 S 
ATOM     15  O   UNL     1       0.453  13.625  22.116  0.00  0.00    +0.000 OA
ATOM     16  O   UNL     1      -0.675  11.629  23.152  0.00  0.00    +0.000 OA
ENDBRANCH   6  14
ENDBRANCH   2  11
ENDBRANCH   1   3
BRANCH   1  17
ATOM     17  O   UNL     1       2.356   7.222  19.078  0.00  0.00    +0.000 OA
BRANCH  17  18
ATOM     18  C   UNL     1       3.037   6.063  19.197  0.00  0.00    +0.000 C 
ATOM     19  O   UNL     1       3.164   5.392  20.208  0.00  0.00    +0.000 OA
BRANCH  18  20
ATOM     20  C   UNL     1       3.673   5.780  17.896  0.00  0.00    +0.000 C 
ATOM     21  C   UNL     1       4.987   5.515  17.819  0.00  0.00    +0.000 C 
BRANCH  21  22
ATOM     22  C   UNL     1       5.689   5.271  16.552  0.00  0.00    +0.000 A 
ATOM     23  C   UNL     1       6.965   5.770  16.326  0.00  0.00    +0.000 A 
ATOM     24  N   UNL     1       7.631   5.593  15.161  0.00  0.00    +0.000 NA
ATOM     25  C   UNL     1       6.992   4.890  14.206  0.00  0.00    +0.000 A 
ATOM     26  C   UNL     1       7.607   4.677  12.976  0.00  0.00    +0.000 A 
ATOM     27  C   UNL     1       6.975   3.957  11.960  0.00  0.00    +0.000 A 
ATOM     28  C   UNL     1       5.708   3.433  12.180  0.00  0.00    +0.000 A 
ATOM     29  C   UNL     1       5.083   3.639  13.411  0.00  0.00    +0.000 A 
ATOM     30  C   UNL     1       5.695   4.365  14.428  0.00  0.00    +0.000 A 
ATOM     31  N   UNL     1       5.044   4.559  15.597  0.00  0.00    +0.000 NA
ENDBRANCH  21  22
ENDBRANCH  18  20
ENDBRANCH  17  18
ENDBRANCH   1  17
TORSDOF 7
ENDMDL
MODEL 4
REMARK VINA RESULT:      -8.2      2.394      2.879
REMARK  Name = 
REMARK  8 active torsions:
REMARK  status: ('A' for Active; 'I' for Inactive)
REMARK    1  A    between atoms: C_1  and  S_2
REMARK    2  A    between atoms: S_2  and  C_5
REMARK    3  A    between atoms: C_10  and  N_11
REMARK    4  A    between atoms: C_12  and  C_14
REMARK    5  A    between atoms: C_14  and  O_15
REMARK    6  A    between atoms: O_15  and  C_16
REMARK    7  A    between atoms: C_16  and  C_18
REMARK    8  A    between atoms: C_19  and  C_20
REMARK                            x       y       z     vdW  Elec       q    Type
REMARK                         _______ _______ _______ _____ _____    ______ ____
ROOT
ATOM      1  C   UNL     1       1.485   9.163  19.348  0.00  0.00    +0.000 C 
ENDROOT
BRANCH   1   3
ATOM      2  N   UNL     1       2.681   7.060  18.949  0.00  0.00    +0.000 N 
ATOM      3  C   UNL     1       2.215   8.238  18.372  0.00  0.00    +0.000 C 
ATOM      4  O   UNL     1       2.270   8.546  17.188  0.00  0.00    +0.000 OA
ATOM      5  H   UNL     1       2.336   6.883  19.886  0.00  0.00    +0.000 HD
BRANCH   2  11
ATOM      6  C   UNL     1       5.535   5.082  17.606  0.00  0.00    +0.000 A 
ATOM      7  C   UNL     1       4.947   3.904  17.162  0.00  0.00    +0.000 A 
ATOM      8  C   UNL     1       3.568   3.764  17.258  0.00  0.00    +0.000 A 
ATOM      9  C   UNL     1       2.764   4.787  17.796  0.00  0.00    +0.000 A 
ATOM     10 CL   UNL     1       1.073   4.529  17.547  0.00  0.00    +0.000 Cl
ATOM     11  C   UNL     1       3.350   5.966  18.314  0.00  0.00    +0.000 A 
ATOM     12  C   UNL     1       4.753   6.107  18.172  0.00  0.00    +0.000 A 
BRANCH   6  14
ATOM     13  C   UNL     1       7.620   6.925  17.933  0.00  0.00    +0.000 C 
ATOM     14  S   UNL     1       7.285   5.295  17.329  0.00  0.00    +0.000 S 
ATOM     15  O   UNL     1       7.495   5.287  15.893  0.00  0.00    +0.000 OA
ATOM     16  O   UNL     1       7.973   4.349  18.178  0.00  0.00    +0.000 OA
ENDBRANCH   6  14
ENDBRANCH   2  11
ENDBRANCH   1   3
BRANCH   1  17
ATOM     17  O   UNL     1       1.298   8.461  20.583  0.00  0.00    +0.000 OA
BRANCH  17  18
ATOM     18  C   UNL     1       1.094   9.207  21.688  0.00  0.00    +0.000 C 
ATOM     19  O   UNL     1       1.801   9.250  22.681  0.00  0.00    +0.000 OA
BRANCH  18  20
ATOM     20  C   UNL     1      -0.189   9.918  21.519  0.00  0.00    +0.000 C 
ATOM     21  C   UNL     1      -0.432  11.058  22.185  0.00  0.00    +0.000 C 
BRANCH  21  22
ATOM     22  C   UNL     1      -1.704  11.789  22.097  0.00  0.00    +0.000 A 
ATOM     23  C   UNL     1      -2.089  12.426  20.926  0.00  0.00    +0.000 A 
ATOM     24  N   UNL     1      -3.238  13.136  20.815  0.00  0.00    +0.000 NA
ATOM     25  C   UNL     1      -4.014  13.195  21.915  0.00  0.00    +0.000 A 
ATOM     26  C   UNL     1      -5.203  13.917  21.883  0.00  0.00    +0.000 A 
ATOM     27  C   UNL     1      -6.032  14.005  23.003  0.00  0.00    +0.000 A 
ATOM     28  C   UNL     1      -5.670  13.353  24.174  0.00  0.00    +0.000 A 
ATOM     29  C   UNL     1      -4.479  12.626  24.217  0.00  0.00    +0.000 A 
ATOM     30  C   UNL     1      -3.637  12.539  23.112  0.00  0.00    +0.000 A 
ATOM     31  N   UNL     1      -2.483  11.842  23.204  0.00  0.00    +0.000 NA
ENDBRANCH  21  22
ENDBRANCH  18  20
ENDBRANCH  17  18
ENDBRANCH   1  17
TORSDOF 7
ENDMDL
MODEL 5
REMARK VINA RESULT:      -8.1      6.626     10.688
REMARK  Name = 
REMARK  8 active torsions:
REMARK  status: ('A' for Active; 'I' for Inactive)
REMARK    1  A    between atoms: C_1  and  S_2
REMARK    2  A    between atoms: S_2  and  C_5
REMARK    3  A    between atoms: C_10  and  N_11
REMARK    4  A    between atoms: C_12  and  C_14
REMARK    5  A    between atoms: C_14  and  O_15
REMARK    6  A    between atoms: O_15  and  C_16
REMARK    7  A    between atoms: C_16  and  C_18
REMARK    8  A    between atoms: C_19  and  C_20
REMARK                            x       y       z     vdW  Elec       q    Type
REMARK                         _______ _______ _______ _____ _____    ______ ____
ROOT
ATOM      1  C   UNL     1       7.943   5.766  18.299  0.00  0.00    +0.000 C 
ENDROOT
BRANCH   1   3
ATOM      2  N   UNL     1       5.500   5.785  18.091  0.00  0.00    +0.000 N 
ATOM      3  C   UNL     1       6.574   5.540  18.942  0.00  0.00    +0.000 C 
ATOM      4  O   UNL     1       6.518   5.104  20.086  0.00  0.00    +0.000 OA
ATOM      5  H   UNL     1       5.754   5.915  17.118  0.00  0.00    +0.000 HD
BRANCH   2  11
ATOM      6  C   UNL     1       2.358   4.020  19.026  0.00  0.00    +0.000 A 
ATOM      7  C   UNL     1       1.395   5.020  19.011  0.00  0.00    +0.000 A 
ATOM      8  C   UNL     1       1.767   6.306  18.639  0.00  0.00    +0.000 A 
ATOM      9  C   UNL     1       3.094   6.609  18.282  0.00  0.00    +0.000 A 
ATOM     10 CL   UNL     1       3.270   8.177  17.574  0.00  0.00    +0.000 Cl
ATOM     11  C   UNL     1       4.103   5.620  18.355  0.00  0.00    +0.000 A 
ATOM     12  C   UNL     1       3.698   4.306  18.699  0.00  0.00    +0.000 A 
BRANCH   6  14
ATOM     13  C   UNL     1       1.688   2.285  21.122  0.00  0.00    +0.000 C 
ATOM     14  S   UNL     1       1.821   2.351  19.358  0.00  0.00    +0.000 S 
ATOM     15  O   UNL     1       2.895   1.466  18.947  0.00  0.00    +0.000 OA
ATOM     16  O   UNL     1       0.495   2.207  18.800  0.00  0.00    +0.000 OA
ENDBRANCH   6  14
ENDBRANCH   2  11
ENDBRANCH   1   3
BRANCH   1  17
ATOM     17  O   UNL     1       8.302   7.143  18.473  0.00  0.00    +0.000 OA
BRANCH  17  18
ATOM     18  C   UNL     1       7.743   8.034  17.627  0.00  0.00    +0.000 C 
ATOM     19  O   UNL     1       6.941   7.793  16.740  0.00  0.00    +0.000 OA
BRANCH  18  20
ATOM     20  C   UNL     1       8.331   9.356  17.915  0.00  0.00    +0.000 C 
ATOM     21  C   UNL     1       8.957   9.587  19.081  0.00  0.00    +0.000 C 
BRANCH  21  22
ATOM     22  C   UNL     1       9.524  10.891  19.448  0.00  0.00    +0.000 A 
ATOM     23  C   UNL     1       9.553  11.319  20.769  0.00  0.00    +0.000 A 
ATOM     24  N   UNL     1      10.037  12.527  21.143  0.00  0.00    +0.000 NA
ATOM     25  C   UNL     1      10.508  13.315  20.157  0.00  0.00    +0.000 A 
ATOM     26  C   UNL     1      11.011  14.577  20.462  0.00  0.00    +0.000 A 
ATOM     27  C   UNL     1      11.505  15.424  19.468  0.00  0.00    +0.000 A 
ATOM     28  C   UNL     1      11.503  15.000  18.146  0.00  0.00    +0.000 A 
ATOM     29  C   UNL     1      11.002  13.736  17.829  0.00  0.00    +0.000 A 
ATOM     30  C   UNL     1      10.496  12.885  18.808  0.00  0.00    +0.000 A 
ATOM     31  N   UNL     1      10.001  11.678  18.454  0.00  0.00    +0.000 NA
ENDBRANCH  21  22
ENDBRANCH  18  20
ENDBRANCH  17  18
ENDBRANCH   1  17
TORSDOF 7
ENDMDL
MODEL 6
REMARK VINA RESULT:      -8.1      3.402      3.657
REMARK  Name = 
REMARK  8 active torsions:
REMARK  status: ('A' for Active; 'I' for Inactive)
REMARK    1  A    between atoms: C_1  and  S_2
REMARK    2  A    between atoms: S_2  and  C_5
REMARK    3  A    between atoms: C_10  and  N_11
REMARK    4  A    between atoms: C_12  and  C_14
REMARK    5  A    between atoms: C_14  and  O_15
REMARK    6  A    between atoms: O_15  and  C_16
REMARK    7  A    between atoms: C_16  and  C_18
REMARK    8  A    between atoms: C_19  and  C_20
REMARK                            x       y       z     vdW  Elec       q    Type
REMARK                         _______ _______ _______ _____ _____    ______ ____
ROOT
ATOM      1  C   UNL     1       1.197   8.942  19.922  0.00  0.00    +0.000 C 
ENDROOT
BRANCH   1   3
ATOM      2  N   UNL     1       2.592   7.309  18.739  0.00  0.00    +0.000 N 
ATOM      3  C   UNL     1       1.819   7.545  19.871  0.00  0.00    +0.000 C 
ATOM      4  O   UNL     1       1.664   6.790  20.824  0.00  0.00    +0.000 OA
ATOM      5  H   UNL     1       2.786   8.134  18.181  0.00  0.00    +0.000 HD
BRANCH   2  11
ATOM      6  C   UNL     1       5.616   5.202  18.216  0.00  0.00    +0.000 A 
ATOM      7  C   UNL     1       5.103   3.955  17.884  0.00  0.00    +0.000 A 
ATOM      8  C   UNL     1       3.726   3.802  17.779  0.00  0.00    +0.000 A 
ATOM      9  C   UNL     1       2.850   4.881  18.005  0.00  0.00    +0.000 A 
ATOM     10 CL   UNL     1       1.221   4.548  17.533  0.00  0.00    +0.000 Cl
ATOM     11  C   UNL     1       3.350   6.141  18.409  0.00  0.00    +0.000 A 
ATOM     12  C   UNL     1       4.758   6.288  18.473  0.00  0.00    +0.000 A 
BRANCH   6  14
ATOM     13  C   UNL     1       7.623   7.068  17.629  0.00  0.00    +0.000 C 
ATOM     14  S   UNL     1       7.389   5.405  18.193  0.00  0.00    +0.000 S 
ATOM     15  O   UNL     1       7.910   4.503  17.184  0.00  0.00    +0.000 OA
ATOM     16  O   UNL     1       7.849   5.325  19.560  0.00  0.00    +0.000 OA
ENDBRANCH   6  14
ENDBRANCH   2  11
ENDBRANCH   1   3
BRANCH   1  17
ATOM     17  O   UNL     1       0.230   8.968  20.980  0.00  0.00    +0.000 OA
BRANCH  17  18
ATOM     18  C   UNL     1       0.511   9.744  22.048  0.00  0.00    +0.000 C 
ATOM     19  O   UNL     1       1.337   9.519  22.916  0.00  0.00    +0.000 OA
BRANCH  18  20
ATOM     20  C   UNL     1      -0.417  10.891  22.025  0.00  0.00    +0.000 C 
ATOM     21  C   UNL     1      -1.174  11.180  23.096  0.00  0.00    +0.000 C 
BRANCH  21  22
ATOM     22  C   UNL     1      -2.150  12.278  23.123  0.00  0.00    +0.000 A 
ATOM     23  C   UNL     1      -1.778  13.581  22.820  0.00  0.00    +0.000 A 
ATOM     24  N   UNL     1      -2.641  14.624  22.864  0.00  0.00    +0.000 NA
ATOM     25  C   UNL     1      -3.909  14.338  23.218  0.00  0.00    +0.000 A 
ATOM     26  C   UNL     1      -4.850  15.360  23.298  0.00  0.00    +0.000 A 
ATOM     27  C   UNL     1      -6.173  15.104  23.664  0.00  0.00    +0.000 A 
ATOM     28  C   UNL     1      -6.565  13.802  23.948  0.00  0.00    +0.000 A 
ATOM     29  C   UNL     1      -5.628  12.769  23.869  0.00  0.00    +0.000 A 
ATOM     30  C   UNL     1      -4.303  13.011  23.517  0.00  0.00    +0.000 A 
ATOM     31  N   UNL     1      -3.425  11.985  23.474  0.00  0.00    +0.000 NA
ENDBRANCH  21  22
ENDBRANCH  18  20
ENDBRANCH  17  18
ENDBRANCH   1  17
TORSDOF 7
ENDMDL
MODEL 7
REMARK VINA RESULT:      -8.0      1.230      1.502
REMARK  Name = 
REMARK  8 active torsions:
REMARK  status: ('A' for Active; 'I' for Inactive)
REMARK    1  A    between atoms: C_1  and  S_2
REMARK    2  A    between atoms: S_2  and  C_5
REMARK    3  A    between atoms: C_10  and  N_11
REMARK    4  A    between atoms: C_12  and  C_14
REMARK    5  A    between atoms: C_14  and  O_15
REMARK    6  A    between atoms: O_15  and  C_16
REMARK    7  A    between atoms: C_16  and  C_18
REMARK    8  A    between atoms: C_19  and  C_20
REMARK                            x       y       z     vdW  Elec       q    Type
REMARK                         _______ _______ _______ _____ _____    ______ ____
ROOT
ATOM      1  C   UNL     1       1.160   9.282  18.440  0.00  0.00    +0.000 C 
ENDROOT
BRANCH   1   3
ATOM      2  N   UNL     1       2.602   7.338  18.051  0.00  0.00    +0.000 N 
ATOM      3  C   UNL     1       1.960   8.111  19.014  0.00  0.00    +0.000 C 
ATOM      4  O   UNL     1       2.040   7.984  20.230  0.00  0.00    +0.000 OA
ATOM      5  H   UNL     1       2.603   7.738  17.119  0.00  0.00    +0.000 HD
BRANCH   2  11
ATOM      6  C   UNL     1       5.637   5.218  17.652  0.00  0.00    +0.000 A 
ATOM      7  C   UNL     1       5.413   4.147  18.508  0.00  0.00    +0.000 A 
ATOM      8  C   UNL     1       4.213   4.085  19.206  0.00  0.00    +0.000 A 
ATOM      9  C   UNL     1       3.230   5.083  19.063  0.00  0.00    +0.000 A 
ATOM     10 CL   UNL     1       1.717   4.658  19.782  0.00  0.00    +0.000 Cl
ATOM     11  C   UNL     1       3.467   6.214  18.248  0.00  0.00    +0.000 A 
ATOM     12  C   UNL     1       4.679   6.241  17.514  0.00  0.00    +0.000 A 
BRANCH   6  14
ATOM     13  C   UNL     1       6.582   4.507  15.111  0.00  0.00    +0.000 C 
ATOM     14  S   UNL     1       7.117   5.191  16.655  0.00  0.00    +0.000 S 
ATOM     15  O   UNL     1       8.034   4.254  17.276  0.00  0.00    +0.000 OA
ATOM     16  O   UNL     1       7.507   6.564  16.429  0.00  0.00    +0.000 OA
ENDBRANCH   6  14
ENDBRANCH   2  11
ENDBRANCH   1   3
BRANCH   1  17
ATOM     17  O   UNL     1       1.525  10.470  19.153  0.00  0.00    +0.000 OA
BRANCH  17  18
ATOM     18  C   UNL     1       0.770  10.800  20.223  0.00  0.00    +0.000 C 
ATOM     19  O   UNL     1       1.168  11.033  21.351  0.00  0.00    +0.000 OA
BRANCH  18  20
ATOM     20  C   UNL     1      -0.644  10.756  19.804  0.00  0.00    +0.000 C 
ATOM     21  C   UNL     1      -1.196  11.790  19.148  0.00  0.00    +0.000 C 
BRANCH  21  22
ATOM     22  C   UNL     1      -2.608  11.830  18.744  0.00  0.00    +0.000 A 
ATOM     23  C   UNL     1      -3.001  11.475  17.461  0.00  0.00    +0.000 A 
ATOM     24  N   UNL     1      -4.288  11.529  17.042  0.00  0.00    +0.000 NA
ATOM     25  C   UNL     1      -5.195  11.946  17.947  0.00  0.00    +0.000 A 
ATOM     26  C   UNL     1      -6.536  12.040  17.586  0.00  0.00    +0.000 A 
ATOM     27  C   UNL     1      -7.506  12.471  18.494  0.00  0.00    +0.000 A 
ATOM     28  C   UNL     1      -7.130  12.808  19.788  0.00  0.00    +0.000 A 
ATOM     29  C   UNL     1      -5.787  12.716  20.160  0.00  0.00    +0.000 A 
ATOM     30  C   UNL     1      -4.808  12.299  19.263  0.00  0.00    +0.000 A 
ATOM     31  N   UNL     1      -3.517  12.245  19.659  0.00  0.00    +0.000 NA
ENDBRANCH  21  22
ENDBRANCH  18  20
ENDBRANCH  17  18
ENDBRANCH   1  17
TORSDOF 7
ENDMDL
MODEL 8
REMARK VINA RESULT:      -8.0      3.418      4.456
REMARK  Name = 
REMARK  8 active torsions:
REMARK  status: ('A' for Active; 'I' for Inactive)
REMARK    1  A    between atoms: C_1  and  S_2
REMARK    2  A    between atoms: S_2  and  C_5
REMARK    3  A    between atoms: C_10  and  N_11
REMARK    4  A    between atoms: C_12  and  C_14
REMARK    5  A    between atoms: C_14  and  O_15
REMARK    6  A    between atoms: O_15  and  C_16
REMARK    7  A    between atoms: C_16  and  C_18
REMARK    8  A    between atoms: C_19  and  C_20
REMARK                            x       y       z     vdW  Elec       q    Type
REMARK                         _______ _______ _______ _____ _____    ______ ____
ROOT
ATOM      1  C   UNL     1       1.310   7.745  21.267  0.00  0.00    +0.000 C 
ENDROOT
BRANCH   1   3
ATOM      2  N   UNL     1       2.707   6.084  20.126  0.00  0.00    +0.000 N 
ATOM      3  C   UNL     1       2.086   7.325  20.017  0.00  0.00    +0.000 C 
ATOM      4  O   UNL     1       2.046   8.041  19.023  0.00  0.00    +0.000 OA
ATOM      5  H   UNL     1       2.433   5.544  20.939  0.00  0.00    +0.000 HD
BRANCH   2  11
ATOM      6  C   UNL     1       5.717   4.921  18.267  0.00  0.00    +0.000 A 
ATOM      7  C   UNL     1       5.208   4.036  17.326  0.00  0.00    +0.000 A 
ATOM      8  C   UNL     1       3.833   3.844  17.259  0.00  0.00    +0.000 A 
ATOM      9  C   UNL     1       2.956   4.524  18.124  0.00  0.00    +0.000 A 
ATOM     10 CL   UNL     1       1.295   4.366  17.674  0.00  0.00    +0.000 Cl
ATOM     11  C   UNL     1       3.459   5.378  19.133  0.00  0.00    +0.000 A 
ATOM     12  C   UNL     1       4.860   5.592  19.161  0.00  0.00    +0.000 A 
BRANCH   6  14
ATOM     13  C   UNL     1       7.566   6.927  17.628  0.00  0.00    +0.000 C 
ATOM     14  S   UNL     1       7.468   5.264  18.228  0.00  0.00    +0.000 S 
ATOM     15  O   UNL     1       8.053   4.384  17.233  0.00  0.00    +0.000 OA
ATOM     16  O   UNL     1       7.940   5.248  19.593  0.00  0.00    +0.000 OA
ENDBRANCH   6  14
ENDBRANCH   2  11
ENDBRANCH   1   3
BRANCH   1  17
ATOM     17  O   UNL     1       0.560   8.926  20.957  0.00  0.00    +0.000 OA
BRANCH  17  18
ATOM     18  C   UNL     1       0.660   9.960  21.819  0.00  0.00    +0.000 C 
ATOM     19  O   UNL     1       0.781   9.890  23.031  0.00  0.00    +0.000 OA
BRANCH  18  20
ATOM     20  C   UNL     1       0.523  11.207  21.042  0.00  0.00    +0.000 C 
ATOM     21  C   UNL     1      -0.002  12.308  21.603  0.00  0.00    +0.000 C 
BRANCH  21  22
ATOM     22  C   UNL     1      -0.209  13.566  20.873  0.00  0.00    +0.000 A 
ATOM     23  C   UNL     1      -1.454  14.178  20.829  0.00  0.00    +0.000 A 
ATOM     24  N   UNL     1      -1.692  15.320  20.141  0.00  0.00    +0.000 NA
ATOM     25  C   UNL     1      -0.641  15.856  19.489  0.00  0.00    +0.000 A 
ATOM     26  C   UNL     1      -0.810  17.023  18.749  0.00  0.00    +0.000 A 
ATOM     27  C   UNL     1       0.253  17.607  18.058  0.00  0.00    +0.000 A 
ATOM     28  C   UNL     1       1.510  17.018  18.112  0.00  0.00    +0.000 A 
ATOM     29  C   UNL     1       1.690  15.848  18.852  0.00  0.00    +0.000 A 
ATOM     30  C   UNL     1       0.637  15.248  19.538  0.00  0.00    +0.000 A 
ATOM     31  N   UNL     1       0.852  14.104  20.224  0.00  0.00    +0.000 NA
ENDBRANCH  21  22
ENDBRANCH  18  20
ENDBRANCH  17  18
ENDBRANCH   1  17
TORSDOF 7
ENDMDL
MODEL 9
REMARK VINA RESULT:      -7.9      3.529      4.558
REMARK  Name = 
REMARK  8 active torsions:
REMARK  status: ('A' for Active; 'I' for Inactive)
REMARK    1  A    between atoms: C_1  and  S_2
REMARK    2  A    between atoms: S_2  and  C_5
REMARK    3  A    between atoms: C_10  and  N_11
REMARK    4  A    between atoms: C_12  and  C_14
REMARK    5  A    between atoms: C_14  and  O_15
REMARK    6  A    between atoms: O_15  and  C_16
REMARK    7  A    between atoms: C_16  and  C_18
REMARK    8  A    between atoms: C_19  and  C_20
REMARK                            x       y       z     vdW  Elec       q    Type
REMARK                         _______ _______ _______ _____ _____    ______ ____
ROOT
ATOM      1  C   UNL     1       1.601   8.063  20.759  0.00  0.00    +0.000 C 
ENDROOT
BRANCH   1   3
ATOM      2  N   UNL     1       2.820   6.211  19.711  0.00  0.00    +0.000 N 
ATOM      3  C   UNL     1       2.211   7.445  19.500  0.00  0.00    +0.000 C 
ATOM      4  O   UNL     1       2.063   8.014  18.425  0.00  0.00    +0.000 OA
ATOM      5  H   UNL     1       2.637   5.800  20.621  0.00  0.00    +0.000 HD
BRANCH   2  11
ATOM      6  C   UNL     1       5.463   4.933  17.422  0.00  0.00    +0.000 A 
ATOM      7  C   UNL     1       4.920   3.764  16.904  0.00  0.00    +0.000 A 
ATOM      8  C   UNL     1       3.631   3.400  17.273  0.00  0.00    +0.000 A 
ATOM      9  C   UNL     1       2.874   4.189  18.159  0.00  0.00    +0.000 A 
ATOM     10 CL   UNL     1       1.213   3.716  18.245  0.00  0.00    +0.000 Cl
ATOM     11  C   UNL     1       3.432   5.347  18.749  0.00  0.00    +0.000 A 
ATOM     12  C   UNL     1       4.733   5.723  18.331  0.00  0.00    +0.000 A 
BRANCH   6  14
ATOM     13  C   UNL     1       7.484   6.827  17.844  0.00  0.00    +0.000 C 
ATOM     14  S   UNL     1       7.056   5.453  16.811  0.00  0.00    +0.000 S 
ATOM     15  O   UNL     1       6.858   5.942  15.460  0.00  0.00    +0.000 OA
ATOM     16  O   UNL     1       7.989   4.382  17.076  0.00  0.00    +0.000 OA
ENDBRANCH   6  14
ENDBRANCH   2  11
ENDBRANCH   1   3
BRANCH   1  17
ATOM     17  O   UNL     1       1.031   9.330  20.409  0.00  0.00    +0.000 OA
BRANCH  17  18
ATOM     18  C   UNL     1       0.811  10.203  21.415  0.00  0.00    +0.000 C 
ATOM     19  O   UNL     1       0.944   9.989  22.608  0.00  0.00    +0.000 OA
BRANCH  18  20
ATOM     20  C   UNL     1       0.304  11.455  20.820  0.00  0.00    +0.000 C 
ATOM     21  C   UNL     1       1.132  12.486  20.586  0.00  0.00    +0.000 C 
BRANCH  21  22
ATOM     22  C   UNL     1       0.684  13.774  20.039  0.00  0.00    +0.000 A 
ATOM     23  C   UNL     1      -0.622  14.212  20.206  0.00  0.00    +0.000 A 
ATOM     24  N   UNL     1      -1.081  15.378  19.690  0.00  0.00    +0.000 NA
ATOM     25  C   UNL     1      -0.194  16.116  18.996  0.00  0.00    +0.000 A 
ATOM     26  C   UNL     1      -0.594  17.321  18.425  0.00  0.00    +0.000 A 
ATOM     27  C   UNL     1       0.295  18.112  17.696  0.00  0.00    +0.000 A 
ATOM     28  C   UNL     1       1.611  17.697  17.541  0.00  0.00    +0.000 A 
ATOM     29  C   UNL     1       2.024  16.491  18.111  0.00  0.00    +0.000 A 
ATOM     30  C   UNL     1       1.145  15.685  18.830  0.00  0.00    +0.000 A 
ATOM     31  N   UNL     1       1.581  14.515  19.347  0.00  0.00    +0.000 NA
ENDBRANCH  21  22
ENDBRANCH  18  20
ENDBRANCH  17  18
ENDBRANCH   1  17
TORSDOF 7
ENDMDL
