MODEL 1
REMARK VINA RESULT:      -8.0      0.000      0.000
REMARK  Name = 
REMARK  9 active torsions:
REMARK  status: ('A' for Active; 'I' for Inactive)
REMARK    1  A    between atoms: C_1  and  O_2
REMARK    2  A    between atoms: O_2  and  C_3
REMARK    3  A    between atoms: C_3  and  C_5
REMARK    4  A    between atoms: C_11  and  C_12
REMARK    5  A    between atoms: C_15  and  C_16
REMARK    6  A    between atoms: C_16  and  N_17
REMARK    7  A    between atoms: C_18  and  C_20
REMARK    8  A    between atoms: C_20  and  N_21
REMARK    9  A    between atoms: C_22  and  C_23
REMARK                            x       y       z     vdW  Elec       q    Type
REMARK                         _______ _______ _______ _____ _____    ______ ____
ROOT
ATOM      1  C   UNL     1       2.649   7.340  18.442  0.00  0.00    +0.000 A 
ATOM      2  C   UNL     1       2.054   8.410  17.754  0.00  0.00    +0.000 A 
ATOM      3  C   UNL     1       1.295   9.383  18.418  0.00  0.00    +0.000 A 
ATOM      4  C   UNL     1       1.051   9.278  19.790  0.00  0.00    +0.000 A 
ATOM      5  C   UNL     1       1.550   8.169  20.464  0.00  0.00    +0.000 A 
ATOM      6  F   UNL     1       1.286   7.996  21.766  0.00  0.00    +0.000 F 
ATOM      7  C   UNL     1       2.347   7.221  19.812  0.00  0.00    +0.000 A 
ENDROOT
BRANCH   1  14
ATOM      8  C   UNL     1       3.314   4.983  17.645  0.00  0.00    +0.000 A 
ATOM      9  C   UNL     1       4.236   4.153  16.990  0.00  0.00    +0.000 A 
ATOM     10  F   UNL     1       4.001   2.839  16.840  0.00  0.00    +0.000 F 
ATOM     11  C   UNL     1       5.406   4.662  16.439  0.00  0.00    +0.000 A 
ATOM     12  C   UNL     1       5.669   6.019  16.532  0.00  0.00    +0.000 A 
ATOM     13  C   UNL     1       4.767   6.858  17.196  0.00  0.00    +0.000 A 
ATOM     14  C   UNL     1       3.565   6.376  17.770  0.00  0.00    +0.000 A 
BRANCH   8  15
ATOM     15  C   UNL     1       2.049   4.352  18.086  0.00  0.00    +0.000 C 
ATOM     16  O   UNL     1       1.028   4.317  17.420  0.00  0.00    +0.000 OA
BRANCH  15  18
ATOM     17  C   UNL     1       0.959   3.754  20.079  0.00  0.00    +0.000 C 
ATOM     18  O   UNL     1       2.186   3.891  19.356  0.00  0.00    +0.000 OA
ENDBRANCH  15  18
ENDBRANCH   8  15
ENDBRANCH   1  14
BRANCH   4  19
ATOM     19  C   UNL     1       0.261  10.334  20.500  0.00  0.00    +0.000 C 
BRANCH  19  20
ATOM     20  N   UNL     1       0.263  11.582  19.782  0.00  0.00    +0.000 N 
ATOM     21  C   UNL     1       0.727  12.731  20.374  0.00  0.00    +0.000 C 
ATOM     22  O   UNL     1       1.164  12.809  21.510  0.00  0.00    +0.000 OA
ATOM     23  H   UNL     1       0.101  11.597  18.779  0.00  0.00    +0.000 HD
BRANCH  21  24
ATOM     24  C   UNL     1       0.703  13.945  19.472  0.00  0.00    +0.000 C 
ATOM     25  C   UNL     1      -0.461  14.093  18.507  0.00  0.00    +0.000 C 
ATOM     26  C   UNL     1      -0.399  14.965  19.720  0.00  0.00    +0.000 C 
BRANCH  24  27
ATOM     27  N   UNL     1       2.005  14.467  19.115  0.00  0.00    +0.000 N 
ATOM     28  C   UNL     1       2.933  13.713  18.433  0.00  0.00    +0.000 C 
ATOM     29  C   UNL     1       4.283  14.371  18.301  0.00  0.00    +0.000 C 
ATOM     30  O   UNL     1       2.700  12.600  17.968  0.00  0.00    +0.000 OA
ATOM     31  H   UNL     1       2.317  15.282  19.631  0.00  0.00    +0.000 HD
ENDBRANCH  24  27
ENDBRANCH  21  24
ENDBRANCH  19  20
ENDBRANCH   4  19
TORSDOF 7
ENDMDL
MODEL 2
REMARK VINA RESULT:      -7.8      3.535      8.221
REMARK  Name = 
REMARK  9 active torsions:
REMARK  status: ('A' for Active; 'I' for Inactive)
REMARK    1  A    between atoms: C_1  and  O_2
REMARK    2  A    between atoms: O_2  and  C_3
REMARK    3  A    between atoms: C_3  and  C_5
REMARK    4  A    between atoms: C_11  and  C_12
REMARK    5  A    between atoms: C_15  and  C_16
REMARK    6  A    between atoms: C_16  and  N_17
REMARK    7  A    between atoms: C_18  and  C_20
REMARK    8  A    between atoms: C_20  and  N_21
REMARK    9  A    between atoms: C_22  and  C_23
REMARK                            x       y       z     vdW  Elec       q    Type
REMARK                         _______ _______ _______ _____ _____    ______ ____
ROOT
ATOM      1  C   UNL     1       1.154   8.338  20.499  0.00  0.00    +0.000 A 
ATOM      2  C   UNL     1       1.845   8.585  19.302  0.00  0.00    +0.000 A 
ATOM      3  C   UNL     1       2.490   7.559  18.598  0.00  0.00    +0.000 A 
ATOM      4  C   UNL     1       2.521   6.259  19.109  0.00  0.00    +0.000 A 
ATOM      5  C   UNL     1       1.928   6.024  20.344  0.00  0.00    +0.000 A 
ATOM      6  F   UNL     1       1.990   4.807  20.901  0.00  0.00    +0.000 F 
ATOM      7  C   UNL     1       1.243   7.036  21.025  0.00  0.00    +0.000 A 
ENDROOT
BRANCH   1  14
ATOM      8  C   UNL     1      -0.205  10.526  20.536  0.00  0.00    +0.000 A 
ATOM      9  C   UNL     1      -0.947  11.466  21.266  0.00  0.00    +0.000 A 
ATOM     10  F   UNL     1      -1.505  12.528  20.663  0.00  0.00    +0.000 F 
ATOM     11  C   UNL     1      -1.168  11.315  22.630  0.00  0.00    +0.000 A 
ATOM     12  C   UNL     1      -0.648  10.210  23.286  0.00  0.00    +0.000 A 
ATOM     13  C   UNL     1       0.109   9.272  22.575  0.00  0.00    +0.000 A 
ATOM     14  C   UNL     1       0.354   9.393  21.185  0.00  0.00    +0.000 A 
BRANCH   8  15
ATOM     15  C   UNL     1      -0.137  10.727  19.070  0.00  0.00    +0.000 C 
ATOM     16  O   UNL     1       0.650  11.475  18.514  0.00  0.00    +0.000 OA
BRANCH  15  18
ATOM     17  C   UNL     1      -2.161  10.806  17.881  0.00  0.00    +0.000 C 
ATOM     18  O   UNL     1      -1.122  10.015  18.465  0.00  0.00    +0.000 OA
ENDBRANCH  15  18
ENDBRANCH   8  15
ENDBRANCH   1  14
BRANCH   4  19
ATOM     19  C   UNL     1       3.191   5.162  18.341  0.00  0.00    +0.000 C 
BRANCH  19  20
ATOM     20  N   UNL     1       4.511   5.538  17.904  0.00  0.00    +0.000 N 
ATOM     21  C   UNL     1       5.616   4.838  18.325  0.00  0.00    +0.000 C 
ATOM     22  O   UNL     1       5.593   3.875  19.074  0.00  0.00    +0.000 OA
ATOM     23  H   UNL     1       4.630   6.196  17.140  0.00  0.00    +0.000 HD
BRANCH  21  24
ATOM     24  C   UNL     1       6.920   5.331  17.740  0.00  0.00    +0.000 C 
ATOM     25  C   UNL     1       7.382   6.731  18.110  0.00  0.00    +0.000 C 
ATOM     26  C   UNL     1       8.071   5.548  18.712  0.00  0.00    +0.000 C 
BRANCH  24  27
ATOM     27  N   UNL     1       7.257   4.780  16.445  0.00  0.00    +0.000 N 
ATOM     28  C   UNL     1       6.604   5.164  15.295  0.00  0.00    +0.000 C 
ATOM     29  C   UNL     1       6.981   4.360  14.077  0.00  0.00    +0.000 C 
ATOM     30  O   UNL     1       5.785   6.078  15.248  0.00  0.00    +0.000 OA
ATOM     31  H   UNL     1       7.770   3.906  16.451  0.00  0.00    +0.000 HD
ENDBRANCH  24  27
ENDBRANCH  21  24
ENDBRANCH  19  20
ENDBRANCH   4  19
TORSDOF 7
ENDMDL
MODEL 3
REMARK VINA RESULT:      -7.8      3.184      8.399
REMARK  Name = 
REMARK  9 active torsions:
REMARK  status: ('A' for Active; 'I' for Inactive)
REMARK    1  A    between atoms: C_1  and  O_2
REMARK    2  A    between atoms: O_2  and  C_3
REMARK    3  A    between atoms: C_3  and  C_5
REMARK    4  A    between atoms: C_11  and  C_12
REMARK    5  A    between atoms: C_15  and  C_16
REMARK    6  A    between atoms: C_16  and  N_17
REMARK    7  A    between atoms: C_18  and  C_20
REMARK    8  A    between atoms: C_20  and  N_21
REMARK    9  A    between atoms: C_22  and  C_23
REMARK                            x       y       z     vdW  Elec       q    Type
REMARK                         _______ _______ _______ _____ _____    ______ ____
ROOT
ATOM      1  C   UNL     1       0.819   9.816  19.198  0.00  0.00    +0.000 A 
ATOM      2  C   UNL     1       1.521   9.589  18.003  0.00  0.00    +0.000 A 
ATOM      3  C   UNL     1       2.266   8.421  17.796  0.00  0.00    +0.000 A 
ATOM      4  C   UNL     1       2.388   7.468  18.811  0.00  0.00    +0.000 A 
ATOM      5  C   UNL     1       1.781   7.729  20.034  0.00  0.00    +0.000 A 
ATOM      6  F   UNL     1       1.926   6.873  21.054  0.00  0.00    +0.000 F 
ATOM      7  C   UNL     1       0.998   8.872  20.226  0.00  0.00    +0.000 A 
ENDROOT
BRANCH   1  14
ATOM      8  C   UNL     1       0.338  12.260  19.853  0.00  0.00    +0.000 A 
ATOM      9  C   UNL     1      -0.585  13.308  19.987  0.00  0.00    +0.000 A 
ATOM     10  F   UNL     1      -0.197  14.522  20.408  0.00  0.00    +0.000 F 
ATOM     11  C   UNL     1      -1.923  13.142  19.652  0.00  0.00    +0.000 A 
ATOM     12  C   UNL     1      -2.359  11.917  19.172  0.00  0.00    +0.000 A 
ATOM     13  C   UNL     1      -1.454  10.857  19.048  0.00  0.00    +0.000 A 
ATOM     14  C   UNL     1      -0.083  10.989  19.378  0.00  0.00    +0.000 A 
BRANCH   8  15
ATOM     15  C   UNL     1       1.758  12.586  20.124  0.00  0.00    +0.000 C 
ATOM     16  O   UNL     1       2.242  12.676  21.240  0.00  0.00    +0.000 OA
BRANCH  15  18
ATOM     17  C   UNL     1       2.876  14.178  18.808  0.00  0.00    +0.000 C 
ATOM     18  O   UNL     1       2.401  12.837  18.955  0.00  0.00    +0.000 OA
ENDBRANCH  15  18
ENDBRANCH   8  15
ENDBRANCH   1  14
BRANCH   4  19
ATOM     19  C   UNL     1       3.166   6.210  18.576  0.00  0.00    +0.000 C 
BRANCH  19  20
ATOM     20  N   UNL     1       4.448   6.473  17.973  0.00  0.00    +0.000 N 
ATOM     21  C   UNL     1       5.558   5.756  18.345  0.00  0.00    +0.000 C 
ATOM     22  O   UNL     1       5.573   4.867  19.181  0.00  0.00    +0.000 OA
ATOM     23  H   UNL     1       4.514   7.052  17.142  0.00  0.00    +0.000 HD
BRANCH  21  24
ATOM     24  C   UNL     1       6.814   6.123  17.587  0.00  0.00    +0.000 C 
ATOM     25  C   UNL     1       7.237   7.583  17.574  0.00  0.00    +0.000 C 
ATOM     26  C   UNL     1       7.999   6.606  18.412  0.00  0.00    +0.000 C 
BRANCH  24  27
ATOM     27  N   UNL     1       7.113   5.276  16.452  0.00  0.00    +0.000 N 
ATOM     28  C   UNL     1       6.358   5.303  15.302  0.00  0.00    +0.000 C 
ATOM     29  C   UNL     1       6.724   4.235  14.302  0.00  0.00    +0.000 C 
ATOM     30  O   UNL     1       5.463   6.117  15.091  0.00  0.00    +0.000 OA
ATOM     31  H   UNL     1       7.698   4.469  16.639  0.00  0.00    +0.000 HD
ENDBRANCH  24  27
ENDBRANCH  21  24
ENDBRANCH  19  20
ENDBRANCH   4  19
TORSDOF 7
ENDMDL
MODEL 4
REMARK VINA RESULT:      -7.8      3.176      8.250
REMARK  Name = 
REMARK  9 active torsions:
REMARK  status: ('A' for Active; 'I' for Inactive)
REMARK    1  A    between atoms: C_1  and  O_2
REMARK    2  A    between atoms: O_2  and  C_3
REMARK    3  A    between atoms: C_3  and  C_5
REMARK    4  A    between atoms: C_11  and  C_12
REMARK    5  A    between atoms: C_15  and  C_16
REMARK    6  A    between atoms: C_16  and  N_17
REMARK    7  A    between atoms: C_18  and  C_20
REMARK    8  A    between atoms: C_20  and  N_21
REMARK    9  A    between atoms: C_22  and  C_23
REMARK                            x       y       z     vdW  Elec       q    Type
REMARK                         _______ _______ _______ _____ _____    ______ ____
ROOT
ATOM      1  C   UNL     1       0.667   9.580  19.100  0.00  0.00    +0.000 A 
ATOM      2  C   UNL     1       1.485   9.364  17.979  0.00  0.00    +0.000 A 
ATOM      3  C   UNL     1       2.337   8.255  17.890  0.00  0.00    +0.000 A 
ATOM      4  C   UNL     1       2.447   7.358  18.956  0.00  0.00    +0.000 A 
ATOM      5  C   UNL     1       1.719   7.617  20.112  0.00  0.00    +0.000 A 
ATOM      6  F   UNL     1       1.844   6.820  21.181  0.00  0.00    +0.000 F 
ATOM      7  C   UNL     1       0.833   8.698  20.184  0.00  0.00    +0.000 A 
ENDROOT
BRANCH   1  14
ATOM      8  C   UNL     1      -0.095  11.965  19.702  0.00  0.00    +0.000 A 
ATOM      9  C   UNL     1      -1.105  12.939  19.700  0.00  0.00    +0.000 A 
ATOM     10  F   UNL     1      -0.882  14.168  20.194  0.00  0.00    +0.000 F 
ATOM     11  C   UNL     1      -2.356  12.686  19.152  0.00  0.00    +0.000 A 
ATOM     12  C   UNL     1      -2.616  11.445  18.591  0.00  0.00    +0.000 A 
ATOM     13  C   UNL     1      -1.625  10.457  18.600  0.00  0.00    +0.000 A 
ATOM     14  C   UNL     1      -0.338  10.679  19.148  0.00  0.00    +0.000 A 
BRANCH   8  15
ATOM     15  C   UNL     1       1.234  12.386  20.202  0.00  0.00    +0.000 C 
ATOM     16  O   UNL     1       1.632  12.198  21.339  0.00  0.00    +0.000 OA
BRANCH  15  18
ATOM     17  C   UNL     1       2.983  13.869  19.695  0.00  0.00    +0.000 C 
ATOM     18  O   UNL     1       1.894  13.067  19.231  0.00  0.00    +0.000 OA
ENDBRANCH  15  18
ENDBRANCH   8  15
ENDBRANCH   1  14
BRANCH   4  19
ATOM     19  C   UNL     1       3.341   6.161  18.847  0.00  0.00    +0.000 C 
BRANCH  19  20
ATOM     20  N   UNL     1       4.390   6.358  17.880  0.00  0.00    +0.000 N 
ATOM     21  C   UNL     1       5.262   5.342  17.574  0.00  0.00    +0.000 C 
ATOM     22  O   UNL     1       5.238   4.225  18.063  0.00  0.00    +0.000 OA
ATOM     23  H   UNL     1       4.386   7.177  17.279  0.00  0.00    +0.000 HD
BRANCH  21  24
ATOM     24  C   UNL     1       6.274   5.696  16.508  0.00  0.00    +0.000 C 
ATOM     25  C   UNL     1       7.051   4.563  15.859  0.00  0.00    +0.000 C 
ATOM     26  C   UNL     1       5.966   5.244  15.088  0.00  0.00    +0.000 C 
BRANCH  24  27
ATOM     27  N   UNL     1       6.889   6.998  16.657  0.00  0.00    +0.000 N 
ATOM     28  C   UNL     1       7.655   7.323  17.754  0.00  0.00    +0.000 C 
ATOM     29  C   UNL     1       8.068   8.772  17.807  0.00  0.00    +0.000 C 
ATOM     30  O   UNL     1       7.981   6.517  18.622  0.00  0.00    +0.000 OA
ATOM     31  H   UNL     1       6.502   7.743  16.089  0.00  0.00    +0.000 HD
ENDBRANCH  24  27
ENDBRANCH  21  24
ENDBRANCH  19  20
ENDBRANCH   4  19
TORSDOF 7
ENDMDL
MODEL 5
REMARK VINA RESULT:      -7.8      2.523      3.965
REMARK  Name = 
REMARK  9 active torsions:
REMARK  status: ('A' for Active; 'I' for Inactive)
REMARK    1  A    between atoms: C_1  and  O_2
REMARK    2  A    between atoms: O_2  and  C_3
REMARK    3  A    between atoms: C_3  and  C_5
REMARK    4  A    between atoms: C_11  and  C_12
REMARK    5  A    between atoms: C_15  and  C_16
REMARK    6  A    between atoms: C_16  and  N_17
REMARK    7  A    between atoms: C_18  and  C_20
REMARK    8  A    between atoms: C_20  and  N_21
REMARK    9  A    between atoms: C_22  and  C_23
REMARK                            x       y       z     vdW  Elec       q    Type
REMARK                         _______ _______ _______ _____ _____    ______ ____
ROOT
ATOM      1  C   UNL     1       2.252   6.045  19.518  0.00  0.00    +0.000 A 
ATOM      2  C   UNL     1       2.422   6.330  18.154  0.00  0.00    +0.000 A 
ATOM      3  C   UNL     1       2.345   7.639  17.659  0.00  0.00    +0.000 A 
ATOM      4  C   UNL     1       2.026   8.701  18.509  0.00  0.00    +0.000 A 
ATOM      5  C   UNL     1       1.755   8.418  19.843  0.00  0.00    +0.000 A 
ATOM      6  F   UNL     1       1.383   9.396  20.679  0.00  0.00    +0.000 F 
ATOM      7  C   UNL     1       1.878   7.118  20.348  0.00  0.00    +0.000 A 
ENDROOT
BRANCH   1  14
ATOM      8  C   UNL     1       3.633   3.900  19.870  0.00  0.00    +0.000 A 
ATOM      9  C   UNL     1       3.742   2.622  20.438  0.00  0.00    +0.000 A 
ATOM     10  F   UNL     1       4.852   1.884  20.276  0.00  0.00    +0.000 F 
ATOM     11  C   UNL     1       2.726   2.087  21.221  0.00  0.00    +0.000 A 
ATOM     12  C   UNL     1       1.580   2.831  21.451  0.00  0.00    +0.000 A 
ATOM     13  C   UNL     1       1.449   4.101  20.878  0.00  0.00    +0.000 A 
ATOM     14  C   UNL     1       2.463   4.679  20.075  0.00  0.00    +0.000 A 
BRANCH   8  15
ATOM     15  C   UNL     1       4.825   4.413  19.156  0.00  0.00    +0.000 C 
ATOM     16  O   UNL     1       5.581   5.260  19.601  0.00  0.00    +0.000 OA
BRANCH  15  18
ATOM     17  C   UNL     1       5.401   4.717  16.900  0.00  0.00    +0.000 C 
ATOM     18  O   UNL     1       4.896   3.853  17.922  0.00  0.00    +0.000 OA
ENDBRANCH  15  18
ENDBRANCH   8  15
ENDBRANCH   1  14
BRANCH   4  19
ATOM     19  C   UNL     1       1.968  10.101  17.980  0.00  0.00    +0.000 C 
BRANCH  19  20
ATOM     20  N   UNL     1       0.645  10.661  18.080  0.00  0.00    +0.000 N 
ATOM     21  C   UNL     1       0.425  11.820  18.784  0.00  0.00    +0.000 C 
ATOM     22  O   UNL     1       1.284  12.461  19.368  0.00  0.00    +0.000 OA
ATOM     23  H   UNL     1      -0.102  10.320  17.483  0.00  0.00    +0.000 HD
BRANCH  21  24
ATOM     24  C   UNL     1      -1.009  12.298  18.754  0.00  0.00    +0.000 C 
ATOM     25  C   UNL     1      -1.813  12.221  20.042  0.00  0.00    +0.000 C 
ATOM     26  C   UNL     1      -1.333  13.552  19.556  0.00  0.00    +0.000 C 
BRANCH  24  27
ATOM     27  N   UNL     1      -1.677  12.151  17.479  0.00  0.00    +0.000 N 
ATOM     28  C   UNL     1      -2.285  10.975  17.104  0.00  0.00    +0.000 C 
ATOM     29  C   UNL     1      -2.778  10.965  15.679  0.00  0.00    +0.000 C 
ATOM     30  O   UNL     1      -2.422  10.009  17.850  0.00  0.00    +0.000 OA
ATOM     31  H   UNL     1      -1.429  12.827  16.765  0.00  0.00    +0.000 HD
ENDBRANCH  24  27
ENDBRANCH  21  24
ENDBRANCH  19  20
ENDBRANCH   4  19
TORSDOF 7
ENDMDL
MODEL 6
REMARK VINA RESULT:      -7.7      1.543      1.883
REMARK  Name = 
REMARK  9 active torsions:
REMARK  status: ('A' for Active; 'I' for Inactive)
REMARK    1  A    between atoms: C_1  and  O_2
REMARK    2  A    between atoms: O_2  and  C_3
REMARK    3  A    between atoms: C_3  and  C_5
REMARK    4  A    between atoms: C_11  and  C_12
REMARK    5  A    between atoms: C_15  and  C_16
REMARK    6  A    between atoms: C_16  and  N_17
REMARK    7  A    between atoms: C_18  and  C_20
REMARK    8  A    between atoms: C_20  and  N_21
REMARK    9  A    between atoms: C_22  and  C_23
REMARK                            x       y       z     vdW  Elec       q    Type
REMARK                         _______ _______ _______ _____ _____    ______ ____
ROOT
ATOM      1  C   UNL     1       2.764   7.112  18.454  0.00  0.00    +0.000 A 
ATOM      2  C   UNL     1       2.210   8.263  17.870  0.00  0.00    +0.000 A 
ATOM      3  C   UNL     1       1.471   9.187  18.620  0.00  0.00    +0.000 A 
ATOM      4  C   UNL     1       1.202   8.952  19.971  0.00  0.00    +0.000 A 
ATOM      5  C   UNL     1       1.659   7.766  20.536  0.00  0.00    +0.000 A 
ATOM      6  F   UNL     1       1.369   7.471  21.810  0.00  0.00    +0.000 F 
ATOM      7  C   UNL     1       2.437   6.865  19.801  0.00  0.00    +0.000 A 
ENDROOT
BRANCH   1  14
ATOM      8  C   UNL     1       3.419   4.806  17.514  0.00  0.00    +0.000 A 
ATOM      9  C   UNL     1       4.322   4.019  16.784  0.00  0.00    +0.000 A 
ATOM     10  F   UNL     1       4.093   2.712  16.577  0.00  0.00    +0.000 F 
ATOM     11  C   UNL     1       5.464   4.568  16.213  0.00  0.00    +0.000 A 
ATOM     12  C   UNL     1       5.718   5.922  16.364  0.00  0.00    +0.000 A 
ATOM     13  C   UNL     1       4.835   6.717  17.104  0.00  0.00    +0.000 A 
ATOM     14  C   UNL     1       3.661   6.193  17.699  0.00  0.00    +0.000 A 
BRANCH   8  15
ATOM     15  C   UNL     1       2.178   4.138  17.972  0.00  0.00    +0.000 C 
ATOM     16  O   UNL     1       1.112   4.189  17.382  0.00  0.00    +0.000 OA
BRANCH  15  18
ATOM     17  C   UNL     1       1.218   3.287  19.939  0.00  0.00    +0.000 C 
ATOM     18  O   UNL     1       2.397   3.535  19.169  0.00  0.00    +0.000 OA
ENDBRANCH  15  18
ENDBRANCH   8  15
ENDBRANCH   1  14
BRANCH   4  19
ATOM     19  C   UNL     1       0.432   9.955  20.774  0.00  0.00    +0.000 C 
BRANCH  19  20
ATOM     20  N   UNL     1      -0.418  10.770  19.945  0.00  0.00    +0.000 N 
ATOM     21  C   UNL     1      -1.239  11.721  20.502  0.00  0.00    +0.000 C 
ATOM     22  O   UNL     1      -1.327  11.960  21.695  0.00  0.00    +0.000 OA
ATOM     23  H   UNL     1      -0.288  10.788  18.938  0.00  0.00    +0.000 HD
BRANCH  21  24
ATOM     24  C   UNL     1      -2.032  12.521  19.494  0.00  0.00    +0.000 C 
ATOM     25  C   UNL     1      -2.680  11.772  18.341  0.00  0.00    +0.000 C 
ATOM     26  C   UNL     1      -3.535  12.283  19.456  0.00  0.00    +0.000 C 
BRANCH  24  27
ATOM     27  N   UNL     1      -1.584  13.884  19.305  0.00  0.00    +0.000 N 
ATOM     28  C   UNL     1      -0.355  14.181  18.761  0.00  0.00    +0.000 C 
ATOM     29  C   UNL     1      -0.002  15.646  18.801  0.00  0.00    +0.000 C 
ATOM     30  O   UNL     1       0.401  13.339  18.282  0.00  0.00    +0.000 OA
ATOM     31  H   UNL     1      -2.065  14.592  19.849  0.00  0.00    +0.000 HD
ENDBRANCH  24  27
ENDBRANCH  21  24
ENDBRANCH  19  20
ENDBRANCH   4  19
TORSDOF 7
ENDMDL
MODEL 7
REMARK VINA RESULT:      -7.7      2.221      3.241
REMARK  Name = 
REMARK  9 active torsions:
REMARK  status: ('A' for Active; 'I' for Inactive)
REMARK    1  A    between atoms: C_1  and  O_2
REMARK    2  A    between atoms: O_2  and  C_3
REMARK    3  A    between atoms: C_3  and  C_5
REMARK    4  A    between atoms: C_11  and  C_12
REMARK    5  A    between atoms: C_15  and  C_16
REMARK    6  A    between atoms: C_16  and  N_17
REMARK    7  A    between atoms: C_18  and  C_20
REMARK    8  A    between atoms: C_20  and  N_21
REMARK    9  A    between atoms: C_22  and  C_23
REMARK                            x       y       z     vdW  Elec       q    Type
REMARK                         _______ _______ _______ _____ _____    ______ ____
ROOT
ATOM      1  C   UNL     1       2.883   7.116  18.255  0.00  0.00    +0.000 A 
ATOM      2  C   UNL     1       2.461   8.212  17.484  0.00  0.00    +0.000 A 
ATOM      3  C   UNL     1       1.708   9.255  18.038  0.00  0.00    +0.000 A 
ATOM      4  C   UNL     1       1.293   9.201  19.371  0.00  0.00    +0.000 A 
ATOM      5  C   UNL     1       1.619   8.073  20.116  0.00  0.00    +0.000 A 
ATOM      6  F   UNL     1       1.188   7.951  21.378  0.00  0.00    +0.000 F 
ATOM      7  C   UNL     1       2.411   7.053  19.579  0.00  0.00    +0.000 A 
ENDROOT
BRANCH   1  14
ATOM      8  C   UNL     1       3.484   4.684  17.656  0.00  0.00    +0.000 A 
ATOM      9  C   UNL     1       4.406   3.771  17.123  0.00  0.00    +0.000 A 
ATOM     10  F   UNL     1       4.116   2.463  17.038  0.00  0.00    +0.000 F 
ATOM     11  C   UNL     1       5.636   4.189  16.627  0.00  0.00    +0.000 A 
ATOM     12  C   UNL     1       5.959   5.536  16.654  0.00  0.00    +0.000 A 
ATOM     13  C   UNL     1       5.056   6.457  17.198  0.00  0.00    +0.000 A 
ATOM     14  C   UNL     1       3.795   6.069  17.711  0.00  0.00    +0.000 A 
BRANCH   8  15
ATOM     15  C   UNL     1       2.161   4.141  18.043  0.00  0.00    +0.000 C 
ATOM     16  O   UNL     1       1.162   4.200  17.345  0.00  0.00    +0.000 OA
BRANCH  15  18
ATOM     17  C   UNL     1       1.296   2.587  19.576  0.00  0.00    +0.000 C 
ATOM     18  O   UNL     1       2.222   3.642  19.304  0.00  0.00    +0.000 OA
ENDBRANCH  15  18
ENDBRANCH   8  15
ENDBRANCH   1  14
BRANCH   4  19
ATOM     19  C   UNL     1       0.509  10.331  19.965  0.00  0.00    +0.000 C 
BRANCH  19  20
ATOM     20  N   UNL     1      -0.803  10.440  19.383  0.00  0.00    +0.000 N 
ATOM     21  C   UNL     1      -1.151  11.540  18.637  0.00  0.00    +0.000 C 
ATOM     22  O   UNL     1      -0.420  12.489  18.403  0.00  0.00    +0.000 OA
ATOM     23  H   UNL     1      -1.420   9.634  19.354  0.00  0.00    +0.000 HD
BRANCH  21  24
ATOM     24  C   UNL     1      -2.547  11.480  18.060  0.00  0.00    +0.000 C 
ATOM     25  C   UNL     1      -2.700  11.060  16.607  0.00  0.00    +0.000 C 
ATOM     26  C   UNL     1      -3.081  10.103  17.691  0.00  0.00    +0.000 C 
BRANCH  24  27
ATOM     27  N   UNL     1      -3.491  12.409  18.644  0.00  0.00    +0.000 N 
ATOM     28  C   UNL     1      -3.568  12.615  20.002  0.00  0.00    +0.000 C 
ATOM     29  C   UNL     1      -4.720  13.489  20.428  0.00  0.00    +0.000 C 
ATOM     30  O   UNL     1      -2.776  12.137  20.811  0.00  0.00    +0.000 OA
ATOM     31  H   UNL     1      -4.277  12.672  18.061  0.00  0.00    +0.000 HD
ENDBRANCH  24  27
ENDBRANCH  21  24
ENDBRANCH  19  20
ENDBRANCH   4  19
TORSDOF 7
ENDMDL
MODEL 8
REMARK VINA RESULT:      -7.7      2.490      3.125
REMARK  Name = 
REMARK  9 active torsions:
REMARK  status: ('A' for Active; 'I' for Inactive)
REMARK    1  A    between atoms: C_1  and  O_2
REMARK    2  A    between atoms: O_2  and  C_3
REMARK    3  A    between atoms: C_3  and  C_5
REMARK    4  A    between atoms: C_11  and  C_12
REMARK    5  A    between atoms: C_15  and  C_16
REMARK    6  A    between atoms: C_16  and  N_17
REMARK    7  A    between atoms: C_18  and  C_20
REMARK    8  A    between atoms: C_20  and  N_21
REMARK    9  A    between atoms: C_22  and  C_23
REMARK                            x       y       z     vdW  Elec       q    Type
REMARK                         _______ _______ _______ _____ _____    ______ ____
ROOT
ATOM      1  C   UNL     1       2.531   7.505  18.393  0.00  0.00    +0.000 A 
ATOM      2  C   UNL     1       1.938   8.540  17.652  0.00  0.00    +0.000 A 
ATOM      3  C   UNL     1       1.172   9.541  18.264  0.00  0.00    +0.000 A 
ATOM      4  C   UNL     1       0.918   9.500  19.637  0.00  0.00    +0.000 A 
ATOM      5  C   UNL     1       1.415   8.425  20.366  0.00  0.00    +0.000 A 
ATOM      6  F   UNL     1       1.142   8.312  21.672  0.00  0.00    +0.000 F 
ATOM      7  C   UNL     1       2.218   7.450  19.765  0.00  0.00    +0.000 A 
ENDROOT
BRANCH   1  14
ATOM      8  C   UNL     1       3.200   5.118  17.697  0.00  0.00    +0.000 A 
ATOM      9  C   UNL     1       4.130   4.260  17.090  0.00  0.00    +0.000 A 
ATOM     10  F   UNL     1       3.891   2.943  16.985  0.00  0.00    +0.000 F 
ATOM     11  C   UNL     1       5.310   4.744  16.540  0.00  0.00    +0.000 A 
ATOM     12  C   UNL     1       5.577   6.103  16.586  0.00  0.00    +0.000 A 
ATOM     13  C   UNL     1       4.667   6.970  17.203  0.00  0.00    +0.000 A 
ATOM     14  C   UNL     1       3.454   6.513  17.773  0.00  0.00    +0.000 A 
BRANCH   8  15
ATOM     15  C   UNL     1       1.924   4.508  18.140  0.00  0.00    +0.000 C 
ATOM     16  O   UNL     1       0.942   4.375  17.429  0.00  0.00    +0.000 OA
BRANCH  15  18
ATOM     17  C   UNL     1       0.920   3.396  19.948  0.00  0.00    +0.000 C 
ATOM     18  O   UNL     1       2.001   4.194  19.458  0.00  0.00    +0.000 OA
ENDBRANCH  15  18
ENDBRANCH   8  15
ENDBRANCH   1  14
BRANCH   4  19
ATOM     19  C   UNL     1       0.119  10.586  20.291  0.00  0.00    +0.000 C 
BRANCH  19  20
ATOM     20  N   UNL     1      -1.197  10.704  19.720  0.00  0.00    +0.000 N 
ATOM     21  C   UNL     1      -1.667  11.920  19.286  0.00  0.00    +0.000 C 
ATOM     22  O   UNL     1      -1.048  12.971  19.337  0.00  0.00    +0.000 OA
ATOM     23  H   UNL     1      -1.719   9.874  19.457  0.00  0.00    +0.000 HD
BRANCH  21  24
ATOM     24  C   UNL     1      -3.047  11.866  18.672  0.00  0.00    +0.000 C 
ATOM     25  C   UNL     1      -4.179  11.296  19.511  0.00  0.00    +0.000 C 
ATOM     26  C   UNL     1      -4.108  12.772  19.282  0.00  0.00    +0.000 C 
BRANCH  24  27
ATOM     27  N   UNL     1      -3.071  11.714  17.232  0.00  0.00    +0.000 N 
ATOM     28  C   UNL     1      -2.921  10.489  16.625  0.00  0.00    +0.000 C 
ATOM     29  C   UNL     1      -2.807  10.557  15.123  0.00  0.00    +0.000 C 
ATOM     30  O   UNL     1      -2.880   9.424  17.236  0.00  0.00    +0.000 OA
ATOM     31  H   UNL     1      -2.906  12.555  16.692  0.00  0.00    +0.000 HD
ENDBRANCH  24  27
ENDBRANCH  21  24
ENDBRANCH  19  20
ENDBRANCH   4  19
TORSDOF 7
ENDMDL
MODEL 9
REMARK VINA RESULT:      -7.7      1.055      2.039
REMARK  Name = 
REMARK  9 active torsions:
REMARK  status: ('A' for Active; 'I' for Inactive)
REMARK    1  A    between atoms: C_1  and  O_2
REMARK    2  A    between atoms: O_2  and  C_3
REMARK    3  A    between atoms: C_3  and  C_5
REMARK    4  A    between atoms: C_11  and  C_12
REMARK    5  A    between atoms: C_15  and  C_16
REMARK    6  A    between atoms: C_16  and  N_17
REMARK    7  A    between atoms: C_18  and  C_20
REMARK    8  A    between atoms: C_20  and  N_21
REMARK    9  A    between atoms: C_22  and  C_23
REMARK                            x       y       z     vdW  Elec       q    Type
REMARK                         _______ _______ _______ _____ _____    ______ ____
ROOT
ATOM      1  C   UNL     1       2.690   7.286  18.389  0.00  0.00    +0.000 A 
ATOM      2  C   UNL     1       2.160   8.333  17.618  0.00  0.00    +0.000 A 
ATOM      3  C   UNL     1       1.393   9.356  18.192  0.00  0.00    +0.000 A 
ATOM      4  C   UNL     1       1.074   9.325  19.552  0.00  0.00    +0.000 A 
ATOM      5  C   UNL     1       1.508   8.240  20.305  0.00  0.00    +0.000 A 
ATOM      6  F   UNL     1       1.172   8.139  21.598  0.00  0.00    +0.000 F 
ATOM      7  C   UNL     1       2.313   7.243  19.744  0.00  0.00    +0.000 A 
ENDROOT
BRANCH   1  14
ATOM      8  C   UNL     1       3.317   4.884  17.704  0.00  0.00    +0.000 A 
ATOM      9  C   UNL     1       4.253   4.000  17.145  0.00  0.00    +0.000 A 
ATOM     10  F   UNL     1       3.975   2.693  17.008  0.00  0.00    +0.000 F 
ATOM     11  C   UNL     1       5.482   4.447  16.675  0.00  0.00    +0.000 A 
ATOM     12  C   UNL     1       5.793   5.795  16.756  0.00  0.00    +0.000 A 
ATOM     13  C   UNL     1       4.877   6.687  17.326  0.00  0.00    +0.000 A 
ATOM     14  C   UNL     1       3.615   6.268  17.814  0.00  0.00    +0.000 A 
BRANCH   8  15
ATOM     15  C   UNL     1       1.996   4.315  18.059  0.00  0.00    +0.000 C 
ATOM     16  O   UNL     1       1.027   4.313  17.319  0.00  0.00    +0.000 OA
BRANCH  15  18
ATOM     17  C   UNL     1       0.942   2.997  19.692  0.00  0.00    +0.000 C 
ATOM     18  O   UNL     1       2.019   3.871  19.342  0.00  0.00    +0.000 OA
ENDBRANCH  15  18
ENDBRANCH   8  15
ENDBRANCH   1  14
BRANCH   4  19
ATOM     19  C   UNL     1       0.275  10.433  20.166  0.00  0.00    +0.000 C 
BRANCH  19  20
ATOM     20  N   UNL     1       0.994  11.681  20.166  0.00  0.00    +0.000 N 
ATOM     21  C   UNL     1       0.595  12.721  19.363  0.00  0.00    +0.000 C 
ATOM     22  O   UNL     1      -0.362  12.697  18.606  0.00  0.00    +0.000 OA
ATOM     23  H   UNL     1       1.682  11.876  20.886  0.00  0.00    +0.000 HD
BRANCH  21  24
ATOM     24  C   UNL     1       1.428  13.974  19.514  0.00  0.00    +0.000 C 
ATOM     25  C   UNL     1       2.937  13.820  19.601  0.00  0.00    +0.000 C 
ATOM     26  C   UNL     1       2.326  14.349  18.343  0.00  0.00    +0.000 C 
BRANCH  24  27
ATOM     27  N   UNL     1       0.774  15.064  20.207  0.00  0.00    +0.000 N 
ATOM     28  C   UNL     1       0.494  15.010  21.553  0.00  0.00    +0.000 C 
ATOM     29  C   UNL     1      -0.335  16.165  22.056  0.00  0.00    +0.000 C 
ATOM     30  O   UNL     1       0.879  14.110  22.295  0.00  0.00    +0.000 OA
ATOM     31  H   UNL     1       0.271  15.725  19.626  0.00  0.00    +0.000 HD
ENDBRANCH  24  27
ENDBRANCH  21  24
ENDBRANCH  19  20
ENDBRANCH   4  19
TORSDOF 7
ENDMDL
