MODEL 1
REMARK VINA RESULT:      -6.8      0.000      0.000
REMARK  Name = 
REMARK  8 active torsions:
REMARK  status: ('A' for Active; 'I' for Inactive)
REMARK    1  A    between atoms: C_1  and  N_2
REMARK    2  A    between atoms: N_2  and  C_3
REMARK    3  A    between atoms: N_2  and  C_14
REMARK    4  A    between atoms: C_3  and  C_4
REMARK    5  A    between atoms: C_6  and  C_7
REMARK    6  A    between atoms: C_14  and  C_15
REMARK    7  A    between atoms: C_15  and  O_16
REMARK    8  A    between atoms: C_15  and  C_17
REMARK                            x       y       z     vdW  Elec       q    Type
REMARK                         _______ _______ _______ _____ _____    ______ ____
ROOT
ATOM      1  C   UNL     1       7.630   6.598  18.631  0.00  0.00    +0.000 C 
ATOM      2  N   UNL     1       6.658   5.662  18.052  0.00  0.00    +0.000 NA
ENDROOT
BRANCH   2   3
ATOM      3  C   UNL     1       7.349   4.600  17.281  0.00  0.00    +0.000 C 
BRANCH   3   4
ATOM      4  C   UNL     1       7.022   4.553  15.822  0.00  0.00    +0.000 A 
ATOM      5  N   UNL     1       6.243   3.723  15.158  0.00  0.00    +0.000 NA
ATOM      6  C   UNL     1       6.435   4.124  13.856  0.00  0.00    +0.000 A 
ATOM      7  N   UNL     1       7.302   5.139  13.712  0.00  0.00    +0.000 NA
ATOM      8  O   UNL     1       7.685   5.432  15.018  0.00  0.00    +0.000 OA
BRANCH   6   9
ATOM      9  C   UNL     1       5.750   3.474  12.696  0.00  0.00    +0.000 A 
ATOM     10  C   UNL     1       4.494   3.820  12.236  0.00  0.00    +0.000 A 
ATOM     11  C   UNL     1       4.087   3.018  11.131  0.00  0.00    +0.000 A 
ATOM     12  C   UNL     1       5.046   2.089  10.787  0.00  0.00    +0.000 A 
ATOM     13  S   UNL     1       6.436   2.206  11.780  0.00  0.00    +0.000 S 
ENDBRANCH   6   9
ENDBRANCH   3   4
ENDBRANCH   2   3
BRANCH   2  14
ATOM     14  C   UNL     1       5.774   5.149  19.127  0.00  0.00    +0.000 C 
BRANCH  14  15
ATOM     15  C   UNL     1       4.282   5.605  19.144  0.00  0.00    +0.000 C 
BRANCH  15  16
ATOM     16  C   UNL     1       3.363   4.413  18.948  0.00  0.00    +0.000 A 
ATOM     17  C   UNL     1       3.766   3.327  18.158  0.00  0.00    +0.000 A 
ATOM     18  C   UNL     1       2.900   2.255  17.934  0.00  0.00    +0.000 A 
ATOM     19  C   UNL     1       1.624   2.255  18.499  0.00  0.00    +0.000 A 
ATOM     20  C   UNL     1       1.217   3.315  19.303  0.00  0.00    +0.000 A 
ATOM     21  C   UNL     1       2.083   4.382  19.534  0.00  0.00    +0.000 A 
ENDBRANCH  15  16
BRANCH  15  22
ATOM     22  O   UNL     1       3.963   6.559  18.134  0.00  0.00    +0.000 OA
ATOM     23  H   UNL     1       4.776   7.061  17.929  0.00  0.00    +0.000 HD
ENDBRANCH  15  22
ENDBRANCH  14  15
ENDBRANCH   2  14
TORSDOF 7
ENDMDL
MODEL 2
REMARK VINA RESULT:      -6.8      4.473      7.304
REMARK  Name = 
REMARK  8 active torsions:
REMARK  status: ('A' for Active; 'I' for Inactive)
REMARK    1  A    between atoms: C_1  and  N_2
REMARK    2  A    between atoms: N_2  and  C_3
REMARK    3  A    between atoms: N_2  and  C_14
REMARK    4  A    between atoms: C_3  and  C_4
REMARK    5  A    between atoms: C_6  and  C_7
REMARK    6  A    between atoms: C_14  and  C_15
REMARK    7  A    between atoms: C_15  and  O_16
REMARK    8  A    between atoms: C_15  and  C_17
REMARK                            x       y       z     vdW  Elec       q    Type
REMARK                         _______ _______ _______ _____ _____    ______ ____
ROOT
ATOM      1  C   UNL     1       5.810   5.184  16.958  0.00  0.00    +0.000 C 
ATOM      2  N   UNL     1       4.989   5.772  18.025  0.00  0.00    +0.000 NA
ENDROOT
BRANCH   2   3
ATOM      3  C   UNL     1       3.613   6.042  17.539  0.00  0.00    +0.000 C 
BRANCH   3   4
ATOM      4  C   UNL     1       2.911   7.182  18.207  0.00  0.00    +0.000 A 
ATOM      5  N   UNL     1       2.339   7.242  19.393  0.00  0.00    +0.000 NA
ATOM      6  C   UNL     1       1.785   8.502  19.384  0.00  0.00    +0.000 A 
ATOM      7  N   UNL     1       1.985   9.186  18.246  0.00  0.00    +0.000 NA
ATOM      8  O   UNL     1       2.743   8.314  17.467  0.00  0.00    +0.000 OA
BRANCH   6   9
ATOM      9  C   UNL     1       1.011   9.057  20.536  0.00  0.00    +0.000 A 
ATOM     10  C   UNL     1       1.254   8.751  21.861  0.00  0.00    +0.000 A 
ATOM     11  C   UNL     1       0.347   9.411  22.740  0.00  0.00    +0.000 A 
ATOM     12  C   UNL     1      -0.555  10.197  22.056  0.00  0.00    +0.000 A 
ATOM     13  S   UNL     1      -0.288  10.153  20.365  0.00  0.00    +0.000 S 
ENDBRANCH   6   9
ENDBRANCH   3   4
ENDBRANCH   2   3
BRANCH   2  14
ATOM     14  C   UNL     1       5.046   4.899  19.223  0.00  0.00    +0.000 C 
BRANCH  14  15
ATOM     15  C   UNL     1       4.591   3.414  19.083  0.00  0.00    +0.000 C 
BRANCH  15  16
ATOM     16  C   UNL     1       3.106   3.287  19.370  0.00  0.00    +0.000 A 
ATOM     17  C   UNL     1       2.590   3.653  20.621  0.00  0.00    +0.000 A 
ATOM     18  C   UNL     1       1.233   3.485  20.904  0.00  0.00    +0.000 A 
ATOM     19  C   UNL     1       0.377   2.953  19.939  0.00  0.00    +0.000 A 
ATOM     20  C   UNL     1       0.870   2.605  18.686  0.00  0.00    +0.000 A 
ATOM     21  C   UNL     1       2.223   2.779  18.399  0.00  0.00    +0.000 A 
ENDBRANCH  15  16
BRANCH  15  22
ATOM     22  O   UNL     1       5.273   2.521  19.960  0.00  0.00    +0.000 OA
ATOM     23  H   UNL     1       6.104   2.951  20.238  0.00  0.00    +0.000 HD
ENDBRANCH  15  22
ENDBRANCH  14  15
ENDBRANCH   2  14
TORSDOF 7
ENDMDL
MODEL 3
REMARK VINA RESULT:      -6.8      1.080      1.354
REMARK  Name = 
REMARK  8 active torsions:
REMARK  status: ('A' for Active; 'I' for Inactive)
REMARK    1  A    between atoms: C_1  and  N_2
REMARK    2  A    between atoms: N_2  and  C_3
REMARK    3  A    between atoms: N_2  and  C_14
REMARK    4  A    between atoms: C_3  and  C_4
REMARK    5  A    between atoms: C_6  and  C_7
REMARK    6  A    between atoms: C_14  and  C_15
REMARK    7  A    between atoms: C_15  and  O_16
REMARK    8  A    between atoms: C_15  and  C_17
REMARK                            x       y       z     vdW  Elec       q    Type
REMARK                         _______ _______ _______ _____ _____    ______ ____
ROOT
ATOM      1  C   UNL     1       7.678   6.243  18.990  0.00  0.00    +0.000 C 
ATOM      2  N   UNL     1       6.711   5.729  18.011  0.00  0.00    +0.000 NA
ENDROOT
BRANCH   2   3
ATOM      3  C   UNL     1       7.276   4.571  17.277  0.00  0.00    +0.000 C 
BRANCH   3   4
ATOM      4  C   UNL     1       6.961   4.525  15.815  0.00  0.00    +0.000 A 
ATOM      5  N   UNL     1       6.219   3.672  15.138  0.00  0.00    +0.000 NA
ATOM      6  C   UNL     1       6.404   4.092  13.840  0.00  0.00    +0.000 A 
ATOM      7  N   UNL     1       7.233   5.140  13.712  0.00  0.00    +0.000 NA
ATOM      8  O   UNL     1       7.595   5.436  15.024  0.00  0.00    +0.000 OA
BRANCH   6   9
ATOM      9  C   UNL     1       5.753   3.427  12.670  0.00  0.00    +0.000 A 
ATOM     10  C   UNL     1       4.497   3.744  12.190  0.00  0.00    +0.000 A 
ATOM     11  C   UNL     1       4.126   2.933  11.078  0.00  0.00    +0.000 A 
ATOM     12  C   UNL     1       5.111   2.026  10.750  0.00  0.00    +0.000 A 
ATOM     13  S   UNL     1       6.482   2.174  11.765  0.00  0.00    +0.000 S 
ENDBRANCH   6   9
ENDBRANCH   3   4
ENDBRANCH   2   3
BRANCH   2  14
ATOM     14  C   UNL     1       5.427   5.443  18.695  0.00  0.00    +0.000 C 
BRANCH  14  15
ATOM     15  C   UNL     1       4.835   4.003  18.593  0.00  0.00    +0.000 C 
BRANCH  15  16
ATOM     16  C   UNL     1       3.420   3.974  19.143  0.00  0.00    +0.000 A 
ATOM     17  C   UNL     1       2.415   3.255  18.481  0.00  0.00    +0.000 A 
ATOM     18  C   UNL     1       1.103   3.272  18.956  0.00  0.00    +0.000 A 
ATOM     19  C   UNL     1       0.781   4.004  20.099  0.00  0.00    +0.000 A 
ATOM     20  C   UNL     1       1.771   4.705  20.780  0.00  0.00    +0.000 A 
ATOM     21  C   UNL     1       3.084   4.683  20.312  0.00  0.00    +0.000 A 
ENDBRANCH  15  16
BRANCH  15  22
ATOM     22  O   UNL     1       5.589   3.023  19.303  0.00  0.00    +0.000 OA
ATOM     23  H   UNL     1       4.959   2.386  19.692  0.00  0.00    +0.000 HD
ENDBRANCH  15  22
ENDBRANCH  14  15
ENDBRANCH   2  14
TORSDOF 7
ENDMDL
MODEL 4
REMARK VINA RESULT:      -6.7      4.676      7.327
REMARK  Name = 
REMARK  8 active torsions:
REMARK  status: ('A' for Active; 'I' for Inactive)
REMARK    1  A    between atoms: C_1  and  N_2
REMARK    2  A    between atoms: N_2  and  C_3
REMARK    3  A    between atoms: N_2  and  C_14
REMARK    4  A    between atoms: C_3  and  C_4
REMARK    5  A    between atoms: C_6  and  C_7
REMARK    6  A    between atoms: C_14  and  C_15
REMARK    7  A    between atoms: C_15  and  O_16
REMARK    8  A    between atoms: C_15  and  C_17
REMARK                            x       y       z     vdW  Elec       q    Type
REMARK                         _______ _______ _______ _____ _____    ______ ____
ROOT
ATOM      1  C   UNL     1       6.198   6.560  17.389  0.00  0.00    +0.000 C 
ATOM      2  N   UNL     1       4.998   6.225  18.166  0.00  0.00    +0.000 NA
ENDROOT
BRANCH   2   3
ATOM      3  C   UNL     1       3.770   6.570  17.409  0.00  0.00    +0.000 C 
BRANCH   3   4
ATOM      4  C   UNL     1       2.915   7.631  18.027  0.00  0.00    +0.000 A 
ATOM      5  N   UNL     1       2.407   7.704  19.241  0.00  0.00    +0.000 NA
ATOM      6  C   UNL     1       1.640   8.845  19.165  0.00  0.00    +0.000 A 
ATOM      7  N   UNL     1       1.653   9.442  17.963  0.00  0.00    +0.000 NA
ATOM      8  O   UNL     1       2.509   8.643  17.208  0.00  0.00    +0.000 OA
BRANCH   6   9
ATOM      9  C   UNL     1       0.844   9.366  20.319  0.00  0.00    +0.000 A 
ATOM     10  C   UNL     1       0.071  10.510  20.282  0.00  0.00    +0.000 A 
ATOM     11  C   UNL     1      -0.559  10.774  21.533  0.00  0.00    +0.000 A 
ATOM     12  C   UNL     1      -0.244   9.822  22.480  0.00  0.00    +0.000 A 
ATOM     13  S   UNL     1       0.785   8.608  21.849  0.00  0.00    +0.000 S 
ENDBRANCH   6   9
ENDBRANCH   3   4
ENDBRANCH   2   3
BRANCH   2  14
ATOM     14  C   UNL     1       5.069   4.804  18.585  0.00  0.00    +0.000 C 
BRANCH  14  15
ATOM     15  C   UNL     1       3.958   3.826  18.092  0.00  0.00    +0.000 C 
BRANCH  15  16
ATOM     16  C   UNL     1       3.001   3.500  19.225  0.00  0.00    +0.000 A 
ATOM     17  C   UNL     1       1.657   3.892  19.155  0.00  0.00    +0.000 A 
ATOM     18  C   UNL     1       0.790   3.639  20.219  0.00  0.00    +0.000 A 
ATOM     19  C   UNL     1       1.254   2.990  21.363  0.00  0.00    +0.000 A 
ATOM     20  C   UNL     1       2.580   2.575  21.439  0.00  0.00    +0.000 A 
ATOM     21  C   UNL     1       3.446   2.819  20.374  0.00  0.00    +0.000 A 
ENDBRANCH  15  16
BRANCH  15  22
ATOM     22  O   UNL     1       4.462   2.591  17.591  0.00  0.00    +0.000 OA
ATOM     23  H   UNL     1       4.902   2.771  16.738  0.00  0.00    +0.000 HD
ENDBRANCH  15  22
ENDBRANCH  14  15
ENDBRANCH   2  14
TORSDOF 7
ENDMDL
MODEL 5
REMARK VINA RESULT:      -6.7      4.736      7.293
REMARK  Name = 
REMARK  8 active torsions:
REMARK  status: ('A' for Active; 'I' for Inactive)
REMARK    1  A    between atoms: C_1  and  N_2
REMARK    2  A    between atoms: N_2  and  C_3
REMARK    3  A    between atoms: N_2  and  C_14
REMARK    4  A    between atoms: C_3  and  C_4
REMARK    5  A    between atoms: C_6  and  C_7
REMARK    6  A    between atoms: C_14  and  C_15
REMARK    7  A    between atoms: C_15  and  O_16
REMARK    8  A    between atoms: C_15  and  C_17
REMARK                            x       y       z     vdW  Elec       q    Type
REMARK                         _______ _______ _______ _____ _____    ______ ____
ROOT
ATOM      1  C   UNL     1       6.035   6.572  17.336  0.00  0.00    +0.000 C 
ATOM      2  N   UNL     1       4.880   6.100  18.111  0.00  0.00    +0.000 NA
ENDROOT
BRANCH   2   3
ATOM      3  C   UNL     1       3.613   6.425  17.412  0.00  0.00    +0.000 C 
BRANCH   3   4
ATOM      4  C   UNL     1       2.838   7.566  17.991  0.00  0.00    +0.000 A 
ATOM      5  N   UNL     1       2.233   7.669  19.158  0.00  0.00    +0.000 NA
ATOM      6  C   UNL     1       1.617   8.896  19.058  0.00  0.00    +0.000 A 
ATOM      7  N   UNL     1       1.812   9.518  17.884  0.00  0.00    +0.000 NA
ATOM      8  O   UNL     1       2.631   8.640  17.179  0.00  0.00    +0.000 OA
BRANCH   6   9
ATOM      9  C   UNL     1       0.787   9.480  20.155  0.00  0.00    +0.000 A 
ATOM     10  C   UNL     1      -0.149  10.481  19.980  0.00  0.00    +0.000 A 
ATOM     11  C   UNL     1      -0.774  10.853  21.205  0.00  0.00    +0.000 A 
ATOM     12  C   UNL     1      -0.293  10.124  22.272  0.00  0.00    +0.000 A 
ATOM     13  S   UNL     1       0.888   8.983  21.787  0.00  0.00    +0.000 S 
ENDBRANCH   6   9
ENDBRANCH   3   4
ENDBRANCH   2   3
BRANCH   2  14
ATOM     14  C   UNL     1       5.051   4.658  18.412  0.00  0.00    +0.000 C 
BRANCH  14  15
ATOM     15  C   UNL     1       3.873   3.686  18.092  0.00  0.00    +0.000 C 
BRANCH  15  16
ATOM     16  C   UNL     1       3.009   3.478  19.324  0.00  0.00    +0.000 A 
ATOM     17  C   UNL     1       3.472   2.697  20.392  0.00  0.00    +0.000 A 
ATOM     18  C   UNL     1       2.657   2.461  21.500  0.00  0.00    +0.000 A 
ATOM     19  C   UNL     1       1.374   3.005  21.555  0.00  0.00    +0.000 A 
ATOM     20  C   UNL     1       0.908   3.801  20.513  0.00  0.00    +0.000 A 
ATOM     21  C   UNL     1       1.723   4.044  19.409  0.00  0.00    +0.000 A 
ENDBRANCH  15  16
BRANCH  15  22
ATOM     22  O   UNL     1       4.296   2.400  17.646  0.00  0.00    +0.000 OA
ATOM     23  H   UNL     1       4.192   1.776  18.390  0.00  0.00    +0.000 HD
ENDBRANCH  15  22
ENDBRANCH  14  15
ENDBRANCH   2  14
TORSDOF 7
ENDMDL
MODEL 6
REMARK VINA RESULT:      -6.7      4.846      7.058
REMARK  Name = 
REMARK  8 active torsions:
REMARK  status: ('A' for Active; 'I' for Inactive)
REMARK    1  A    between atoms: C_1  and  N_2
REMARK    2  A    between atoms: N_2  and  C_3
REMARK    3  A    between atoms: N_2  and  C_14
REMARK    4  A    between atoms: C_3  and  C_4
REMARK    5  A    between atoms: C_6  and  C_7
REMARK    6  A    between atoms: C_14  and  C_15
REMARK    7  A    between atoms: C_15  and  O_16
REMARK    8  A    between atoms: C_15  and  C_17
REMARK                            x       y       z     vdW  Elec       q    Type
REMARK                         _______ _______ _______ _____ _____    ______ ____
ROOT
ATOM      1  C   UNL     1       6.302   6.614  17.125  0.00  0.00    +0.000 C 
ATOM      2  N   UNL     1       5.104   6.389  17.945  0.00  0.00    +0.000 NA
ENDROOT
BRANCH   2   3
ATOM      3  C   UNL     1       3.877   6.725  17.181  0.00  0.00    +0.000 C 
BRANCH   3   4
ATOM      4  C   UNL     1       2.898   7.600  17.897  0.00  0.00    +0.000 A 
ATOM      5  N   UNL     1       2.323   8.719  17.504  0.00  0.00    +0.000 NA
ATOM      6  C   UNL     1       1.623   9.095  18.629  0.00  0.00    +0.000 A 
ATOM      7  N   UNL     1       1.769   8.265  19.674  0.00  0.00    +0.000 NA
ATOM      8  O   UNL     1       2.607   7.266  19.186  0.00  0.00    +0.000 OA
BRANCH   6   9
ATOM      9  C   UNL     1       0.786  10.333  18.688  0.00  0.00    +0.000 A 
ATOM     10  C   UNL     1      -0.595  10.345  18.657  0.00  0.00    +0.000 A 
ATOM     11  C   UNL     1      -1.122  11.667  18.709  0.00  0.00    +0.000 A 
ATOM     12  C   UNL     1      -0.126  12.618  18.776  0.00  0.00    +0.000 A 
ATOM     13  S   UNL     1       1.433  11.910  18.802  0.00  0.00    +0.000 S 
ENDBRANCH   6   9
ENDBRANCH   3   4
ENDBRANCH   2   3
BRANCH   2  14
ATOM     14  C   UNL     1       5.126   5.004  18.473  0.00  0.00    +0.000 C 
BRANCH  14  15
ATOM     15  C   UNL     1       4.047   3.997  17.968  0.00  0.00    +0.000 C 
BRANCH  15  16
ATOM     16  C   UNL     1       3.090   3.640  19.091  0.00  0.00    +0.000 A 
ATOM     17  C   UNL     1       1.749   4.047  19.039  0.00  0.00    +0.000 A 
ATOM     18  C   UNL     1       0.882   3.766  20.096  0.00  0.00    +0.000 A 
ATOM     19  C   UNL     1       1.344   3.073  21.215  0.00  0.00    +0.000 A 
ATOM     20  C   UNL     1       2.666   2.644  21.273  0.00  0.00    +0.000 A 
ATOM     21  C   UNL     1       3.531   2.916  20.214  0.00  0.00    +0.000 A 
ENDBRANCH  15  16
BRANCH  15  22
ATOM     22  O   UNL     1       4.590   2.778  17.467  0.00  0.00    +0.000 OA
ATOM     23  H   UNL     1       4.563   2.817  16.491  0.00  0.00    +0.000 HD
ENDBRANCH  15  22
ENDBRANCH  14  15
ENDBRANCH   2  14
TORSDOF 7
ENDMDL
MODEL 7
REMARK VINA RESULT:      -6.7      4.954      7.099
REMARK  Name = 
REMARK  8 active torsions:
REMARK  status: ('A' for Active; 'I' for Inactive)
REMARK    1  A    between atoms: C_1  and  N_2
REMARK    2  A    between atoms: N_2  and  C_3
REMARK    3  A    between atoms: N_2  and  C_14
REMARK    4  A    between atoms: C_3  and  C_4
REMARK    5  A    between atoms: C_6  and  C_7
REMARK    6  A    between atoms: C_14  and  C_15
REMARK    7  A    between atoms: C_15  and  O_16
REMARK    8  A    between atoms: C_15  and  C_17
REMARK                            x       y       z     vdW  Elec       q    Type
REMARK                         _______ _______ _______ _____ _____    ______ ____
ROOT
ATOM      1  C   UNL     1       6.183   6.843  17.269  0.00  0.00    +0.000 C 
ATOM      2  N   UNL     1       4.982   6.481  18.034  0.00  0.00    +0.000 NA
ENDROOT
BRANCH   2   3
ATOM      3  C   UNL     1       3.756   6.790  17.258  0.00  0.00    +0.000 C 
BRANCH   3   4
ATOM      4  C   UNL     1       2.781   7.698  17.938  0.00  0.00    +0.000 A 
ATOM      5  N   UNL     1       2.238   8.823  17.516  0.00  0.00    +0.000 NA
ATOM      6  C   UNL     1       1.523   9.232  18.619  0.00  0.00    +0.000 A 
ATOM      7  N   UNL     1       1.628   8.417  19.680  0.00  0.00    +0.000 NA
ATOM      8  O   UNL     1       2.455   7.391  19.226  0.00  0.00    +0.000 OA
BRANCH   6   9
ATOM      9  C   UNL     1       0.713  10.488  18.640  0.00  0.00    +0.000 A 
ATOM     10  C   UNL     1      -0.649  10.544  18.413  0.00  0.00    +0.000 A 
ATOM     11  C   UNL     1      -1.150  11.876  18.477  0.00  0.00    +0.000 A 
ATOM     12  C   UNL     1      -0.155  12.790  18.749  0.00  0.00    +0.000 A 
ATOM     13  S   UNL     1       1.369  12.035  18.951  0.00  0.00    +0.000 S 
ENDBRANCH   6   9
ENDBRANCH   3   4
ENDBRANCH   2   3
BRANCH   2  14
ATOM     14  C   UNL     1       5.084   5.066  18.464  0.00  0.00    +0.000 C 
BRANCH  14  15
ATOM     15  C   UNL     1       3.990   4.062  17.985  0.00  0.00    +0.000 C 
BRANCH  15  16
ATOM     16  C   UNL     1       3.063   3.703  19.132  0.00  0.00    +0.000 A 
ATOM     17  C   UNL     1       3.551   3.014  20.251  0.00  0.00    +0.000 A 
ATOM     18  C   UNL     1       2.688   2.637  21.281  0.00  0.00    +0.000 A 
ATOM     19  C   UNL     1       1.330   2.945  21.206  0.00  0.00    +0.000 A 
ATOM     20  C   UNL     1       0.834   3.647  20.112  0.00  0.00    +0.000 A 
ATOM     21  C   UNL     1       1.695   4.032  19.086  0.00  0.00    +0.000 A 
ENDBRANCH  15  16
BRANCH  15  22
ATOM     22  O   UNL     1       4.519   2.844  17.466  0.00  0.00    +0.000 OA
ATOM     23  H   UNL     1       4.214   2.754  16.543  0.00  0.00    +0.000 HD
ENDBRANCH  15  22
ENDBRANCH  14  15
ENDBRANCH   2  14
TORSDOF 7
ENDMDL
MODEL 8
REMARK VINA RESULT:      -6.7      4.706      7.558
REMARK  Name = 
REMARK  8 active torsions:
REMARK  status: ('A' for Active; 'I' for Inactive)
REMARK    1  A    between atoms: C_1  and  N_2
REMARK    2  A    between atoms: N_2  and  C_3
REMARK    3  A    between atoms: N_2  and  C_14
REMARK    4  A    between atoms: C_3  and  C_4
REMARK    5  A    between atoms: C_6  and  C_7
REMARK    6  A    between atoms: C_14  and  C_15
REMARK    7  A    between atoms: C_15  and  O_16
REMARK    8  A    between atoms: C_15  and  C_17
REMARK                            x       y       z     vdW  Elec       q    Type
REMARK                         _______ _______ _______ _____ _____    ______ ____
ROOT
ATOM      1  C   UNL     1       4.968   5.295  19.066  0.00  0.00    +0.000 C 
ATOM      2  N   UNL     1       3.823   5.330  18.147  0.00  0.00    +0.000 NA
ENDROOT
BRANCH   2   3
ATOM      3  C   UNL     1       3.732   6.648  17.473  0.00  0.00    +0.000 C 
BRANCH   3   4
ATOM      4  C   UNL     1       2.866   7.658  18.157  0.00  0.00    +0.000 A 
ATOM      5  N   UNL     1       2.419   7.685  19.397  0.00  0.00    +0.000 NA
ATOM      6  C   UNL     1       1.600   8.791  19.386  0.00  0.00    +0.000 A 
ATOM      7  N   UNL     1       1.524   9.411  18.198  0.00  0.00    +0.000 NA
ATOM      8  O   UNL     1       2.373   8.666  17.383  0.00  0.00    +0.000 OA
BRANCH   6   9
ATOM      9  C   UNL     1       0.844   9.253  20.591  0.00  0.00    +0.000 A 
ATOM     10  C   UNL     1       0.976   8.709  21.854  0.00  0.00    +0.000 A 
ATOM     11  C   UNL     1       0.117   9.336  22.802  0.00  0.00    +0.000 A 
ATOM     12  C   UNL     1      -0.642  10.334  22.229  0.00  0.00    +0.000 A 
ATOM     13  S   UNL     1      -0.295  10.526  20.563  0.00  0.00    +0.000 S 
ENDBRANCH   6   9
ENDBRANCH   3   4
ENDBRANCH   2   3
BRANCH   2  14
ATOM     14  C   UNL     1       3.909   4.180  17.214  0.00  0.00    +0.000 C 
BRANCH  14  15
ATOM     15  C   UNL     1       3.323   2.808  17.669  0.00  0.00    +0.000 C 
BRANCH  15  16
ATOM     16  C   UNL     1       2.623   2.950  19.009  0.00  0.00    +0.000 A 
ATOM     17  C   UNL     1       1.359   3.552  19.090  0.00  0.00    +0.000 A 
ATOM     18  C   UNL     1       0.740   3.732  20.328  0.00  0.00    +0.000 A 
ATOM     19  C   UNL     1       1.373   3.310  21.497  0.00  0.00    +0.000 A 
ATOM     20  C   UNL     1       2.618   2.692  21.431  0.00  0.00    +0.000 A 
ATOM     21  C   UNL     1       3.235   2.504  20.196  0.00  0.00    +0.000 A 
ENDBRANCH  15  16
BRANCH  15  22
ATOM     22  O   UNL     1       4.304   1.783  17.808  0.00  0.00    +0.000 OA
ATOM     23  H   UNL     1       4.807   1.735  16.972  0.00  0.00    +0.000 HD
ENDBRANCH  15  22
ENDBRANCH  14  15
ENDBRANCH   2  14
TORSDOF 7
ENDMDL
MODEL 9
REMARK VINA RESULT:      -6.6      1.489      1.698
REMARK  Name = 
REMARK  8 active torsions:
REMARK  status: ('A' for Active; 'I' for Inactive)
REMARK    1  A    between atoms: C_1  and  N_2
REMARK    2  A    between atoms: N_2  and  C_3
REMARK    3  A    between atoms: N_2  and  C_14
REMARK    4  A    between atoms: C_3  and  C_4
REMARK    5  A    between atoms: C_6  and  C_7
REMARK    6  A    between atoms: C_14  and  C_15
REMARK    7  A    between atoms: C_15  and  O_16
REMARK    8  A    between atoms: C_15  and  C_17
REMARK                            x       y       z     vdW  Elec       q    Type
REMARK                         _______ _______ _______ _____ _____    ______ ____
ROOT
ATOM      1  C   UNL     1       7.418   4.763  18.176  0.00  0.00    +0.000 C 
ATOM      2  N   UNL     1       6.356   5.700  18.568  0.00  0.00    +0.000 NA
ENDROOT
BRANCH   2   3
ATOM      3  C   UNL     1       5.832   6.422  17.384  0.00  0.00    +0.000 C 
BRANCH   3   4
ATOM      4  C   UNL     1       6.187   5.821  16.060  0.00  0.00    +0.000 A 
ATOM      5  N   UNL     1       5.477   5.041  15.270  0.00  0.00    +0.000 NA
ATOM      6  C   UNL     1       6.378   4.743  14.272  0.00  0.00    +0.000 A 
ATOM      7  N   UNL     1       7.591   5.293  14.440  0.00  0.00    +0.000 NA
ATOM      8  O   UNL     1       7.463   6.019  15.622  0.00  0.00    +0.000 OA
BRANCH   6   9
ATOM      9  C   UNL     1       6.041   3.867  13.108  0.00  0.00    +0.000 A 
ATOM     10  C   UNL     1       4.755   3.580  12.692  0.00  0.00    +0.000 A 
ATOM     11  C   UNL     1       4.736   2.702  11.570  0.00  0.00    +0.000 A 
ATOM     12  C   UNL     1       6.007   2.350  11.170  0.00  0.00    +0.000 A 
ATOM     13  S   UNL     1       7.211   3.097  12.131  0.00  0.00    +0.000 S 
ENDBRANCH   6   9
ENDBRANCH   3   4
ENDBRANCH   2   3
BRANCH   2  14
ATOM     14  C   UNL     1       5.320   4.969  19.338  0.00  0.00    +0.000 C 
BRANCH  14  15
ATOM     15  C   UNL     1       4.934   3.528  18.883  0.00  0.00    +0.000 C 
BRANCH  15  16
ATOM     16  C   UNL     1       3.434   3.426  18.669  0.00  0.00    +0.000 A 
ATOM     17  C   UNL     1       2.767   4.356  17.860  0.00  0.00    +0.000 A 
ATOM     18  C   UNL     1       1.381   4.295  17.706  0.00  0.00    +0.000 A 
ATOM     19  C   UNL     1       0.647   3.302  18.356  0.00  0.00    +0.000 A 
ATOM     20  C   UNL     1       1.297   2.359  19.146  0.00  0.00    +0.000 A 
ATOM     21  C   UNL     1       2.682   2.413  19.294  0.00  0.00    +0.000 A 
ENDBRANCH  15  16
BRANCH  15  22
ATOM     22  O   UNL     1       5.301   2.515  19.816  0.00  0.00    +0.000 OA
ATOM     23  H   UNL     1       4.490   2.037  20.075  0.00  0.00    +0.000 HD
ENDBRANCH  15  22
ENDBRANCH  14  15
ENDBRANCH   2  14
TORSDOF 7
ENDMDL
