MODEL 1
REMARK VINA RESULT:      -7.5      0.000      0.000
REMARK  Name = 
REMARK  13 active torsions:
REMARK  status: ('A' for Active; 'I' for Inactive)
REMARK    1  A    between atoms: C_1  and  O_2
REMARK    2  A    between atoms: O_2  and  C_3
REMARK    3  A    between atoms: C_3  and  C_5
REMARK    4  A    between atoms: C_5  and  O_6
REMARK    5  A    between atoms: C_9  and  C_10
REMARK    6  A    between atoms: C_10  and  C_11
REMARK    7  A    between atoms: C_12  and  C_13
REMARK    8  A    between atoms: C_12  and  C_14
REMARK    9  A    between atoms: C_16  and  O_17
REMARK   10  A    between atoms: C_18  and  C_19
REMARK   11  A    between atoms: C_18  and  C_20
REMARK   12  A    between atoms: C_23  and  C_24
REMARK   13  A    between atoms: C_24  and  C_25
REMARK                            x       y       z     vdW  Elec       q    Type
REMARK                         _______ _______ _______ _____ _____    ______ ____
ROOT
ATOM      1  C   UNL     1       5.439   6.584  16.528  0.00  0.00    +0.000 C 
ATOM      2  C   UNL     1       4.275   6.982  17.431  0.00  0.00    +0.000 C 
ATOM      3  O   UNL     1       4.360   8.131  17.891  0.00  0.00    +0.000 OA
ATOM      4  C   UNL     1       2.975   5.951  17.585  0.00  0.00    +0.000 C 
ATOM      5  C   UNL     1       2.494   5.083  18.876  0.00  0.00    +0.000 C 
ATOM      6  C   UNL     1       2.173   3.616  18.775  0.00  0.00    +0.000 C 
ATOM      7  C   UNL     1       3.444   2.885  18.467  0.00  0.00    +0.000 C 
ATOM      8  C   UNL     1       3.093   1.388  18.449  0.00  0.00    +0.000 C 
ATOM      9  C   UNL     1       4.556   3.101  19.515  0.00  0.00    +0.000 C 
ATOM     10  O   UNL     1       3.778   3.413  17.166  0.00  0.00    +0.000 OA
ATOM     11  C   UNL     1       4.036   4.809  17.116  0.00  0.00    +0.000 C 
ATOM     12  C   UNL     1       5.185   5.154  16.523  0.00  0.00    +0.000 C 
ENDROOT
BRANCH  12  13
ATOM     13  C   UNL     1       6.216   4.275  15.897  0.00  0.00    +0.000 C 
ATOM     14  C   UNL     1       6.071   3.875  14.449  0.00  0.00    +0.000 C 
ATOM     15  O   UNL     1       7.205   3.928  16.545  0.00  0.00    +0.000 OA
ENDBRANCH  12  13
BRANCH   1  16
ATOM     16  C   UNL     1       6.776   6.975  17.256  0.00  0.00    +0.000 C 
ATOM     17  O   UNL     1       7.714   7.561  16.717  0.00  0.00    +0.000 OA
BRANCH  16  19
ATOM     18  C   UNL     1       8.131   6.209  19.013  0.00  0.00    +0.000 C 
ATOM     19  O   UNL     1       6.790   6.472  18.533  0.00  0.00    +0.000 OA
ENDBRANCH  16  19
ENDBRANCH   1  16
BRANCH   1  20
ATOM     20  O   UNL     1       5.221   7.061  15.206  0.00  0.00    +0.000 OA
ATOM     21  H   UNL     1       5.967   7.656  15.005  0.00  0.00    +0.000 HD
ENDBRANCH   1  20
BRANCH   6  22
ATOM     22  O   UNL     1       1.176   3.415  17.762  0.00  0.00    +0.000 OA
ATOM     23  H   UNL     1       0.316   3.303  18.213  0.00  0.00    +0.000 HD
ENDBRANCH   6  22
BRANCH   4  24
ATOM     24  C   UNL     1       2.190   7.217  18.388  0.00  0.00    +0.000 C 
BRANCH  24  25
ATOM     25  C   UNL     1       1.905   7.657  19.798  0.00  0.00    +0.000 C 
ATOM     26  C   UNL     1       1.229   8.713  20.237  0.00  0.00    +0.000 C 
ATOM     27  C   UNL     1       0.883   9.897  19.403  0.00  0.00    +0.000 C 
ATOM     28  C   UNL     1       0.631   8.659  21.633  0.00  0.00    +0.000 C 
ENDBRANCH  24  25
ENDBRANCH   4  24
TORSDOF 7
ENDMDL
MODEL 2
REMARK VINA RESULT:      -7.2      0.661      1.268
REMARK  Name = 
REMARK  13 active torsions:
REMARK  status: ('A' for Active; 'I' for Inactive)
REMARK    1  A    between atoms: C_1  and  O_2
REMARK    2  A    between atoms: O_2  and  C_3
REMARK    3  A    between atoms: C_3  and  C_5
REMARK    4  A    between atoms: C_5  and  O_6
REMARK    5  A    between atoms: C_9  and  C_10
REMARK    6  A    between atoms: C_10  and  C_11
REMARK    7  A    between atoms: C_12  and  C_13
REMARK    8  A    between atoms: C_12  and  C_14
REMARK    9  A    between atoms: C_16  and  O_17
REMARK   10  A    between atoms: C_18  and  C_19
REMARK   11  A    between atoms: C_18  and  C_20
REMARK   12  A    between atoms: C_23  and  C_24
REMARK   13  A    between atoms: C_24  and  C_25
REMARK                            x       y       z     vdW  Elec       q    Type
REMARK                         _______ _______ _______ _____ _____    ______ ____
ROOT
ATOM      1  C   UNL     1       5.599   6.555  16.657  0.00  0.00    +0.000 C 
ATOM      2  C   UNL     1       4.434   6.971  17.551  0.00  0.00    +0.000 C 
ATOM      3  O   UNL     1       4.553   8.103  18.044  0.00  0.00    +0.000 OA
ATOM      4  C   UNL     1       3.094   5.986  17.655  0.00  0.00    +0.000 C 
ATOM      5  C   UNL     1       2.559   5.102  18.912  0.00  0.00    +0.000 C 
ATOM      6  C   UNL     1       2.186   3.650  18.766  0.00  0.00    +0.000 C 
ATOM      7  C   UNL     1       3.435   2.882  18.460  0.00  0.00    +0.000 C 
ATOM      8  C   UNL     1       3.029   1.400  18.395  0.00  0.00    +0.000 C 
ATOM      9  C   UNL     1       4.534   3.028  19.532  0.00  0.00    +0.000 C 
ATOM     10  O   UNL     1       3.811   3.431  17.179  0.00  0.00    +0.000 OA
ATOM     11  C   UNL     1       4.121   4.818  17.172  0.00  0.00    +0.000 C 
ATOM     12  C   UNL     1       5.292   5.135  16.608  0.00  0.00    +0.000 C 
ENDROOT
BRANCH  12  13
ATOM     13  C   UNL     1       6.302   4.236  15.977  0.00  0.00    +0.000 C 
ATOM     14  C   UNL     1       6.125   3.817  14.537  0.00  0.00    +0.000 C 
ATOM     15  O   UNL     1       7.299   3.887  16.611  0.00  0.00    +0.000 OA
ENDBRANCH  12  13
BRANCH   1  16
ATOM     16  C   UNL     1       6.936   6.876  17.418  0.00  0.00    +0.000 C 
ATOM     17  O   UNL     1       7.290   6.326  18.460  0.00  0.00    +0.000 OA
BRANCH  16  19
ATOM     18  C   UNL     1       8.054   8.908  17.780  0.00  0.00    +0.000 C 
ATOM     19  O   UNL     1       7.584   7.929  16.822  0.00  0.00    +0.000 OA
ENDBRANCH  16  19
ENDBRANCH   1  16
BRANCH   1  20
ATOM     20  O   UNL     1       5.423   7.074  15.345  0.00  0.00    +0.000 OA
ATOM     21  H   UNL     1       6.307   7.085  14.936  0.00  0.00    +0.000 HD
ENDBRANCH   1  20
BRANCH   6  22
ATOM     22  O   UNL     1       1.200   3.514  17.731  0.00  0.00    +0.000 OA
ATOM     23  H   UNL     1       1.675   3.415  16.883  0.00  0.00    +0.000 HD
ENDBRANCH   6  22
BRANCH   4  24
ATOM     24  C   UNL     1       2.342   7.257  18.479  0.00  0.00    +0.000 C 
BRANCH  24  25
ATOM     25  C   UNL     1       1.659   8.560  18.165  0.00  0.00    +0.000 C 
ATOM     26  C   UNL     1       1.140   9.465  18.988  0.00  0.00    +0.000 C 
ATOM     27  C   UNL     1       0.822   9.217  20.421  0.00  0.00    +0.000 C 
ATOM     28  C   UNL     1       0.998  10.895  18.493  0.00  0.00    +0.000 C 
ENDBRANCH  24  25
ENDBRANCH   4  24
TORSDOF 7
ENDMDL
MODEL 3
REMARK VINA RESULT:      -6.9      0.855      1.082
REMARK  Name = 
REMARK  13 active torsions:
REMARK  status: ('A' for Active; 'I' for Inactive)
REMARK    1  A    between atoms: C_1  and  O_2
REMARK    2  A    between atoms: O_2  and  C_3
REMARK    3  A    between atoms: C_3  and  C_5
REMARK    4  A    between atoms: C_5  and  O_6
REMARK    5  A    between atoms: C_9  and  C_10
REMARK    6  A    between atoms: C_10  and  C_11
REMARK    7  A    between atoms: C_12  and  C_13
REMARK    8  A    between atoms: C_12  and  C_14
REMARK    9  A    between atoms: C_16  and  O_17
REMARK   10  A    between atoms: C_18  and  C_19
REMARK   11  A    between atoms: C_18  and  C_20
REMARK   12  A    between atoms: C_23  and  C_24
REMARK   13  A    between atoms: C_24  and  C_25
REMARK                            x       y       z     vdW  Elec       q    Type
REMARK                         _______ _______ _______ _____ _____    ______ ____
ROOT
ATOM      1  C   UNL     1       5.499   6.527  16.480  0.00  0.00    +0.000 C 
ATOM      2  C   UNL     1       4.393   7.011  17.414  0.00  0.00    +0.000 C 
ATOM      3  O   UNL     1       4.581   8.146  17.876  0.00  0.00    +0.000 OA
ATOM      4  C   UNL     1       3.019   6.086  17.597  0.00  0.00    +0.000 C 
ATOM      5  C   UNL     1       2.503   5.251  18.896  0.00  0.00    +0.000 C 
ATOM      6  C   UNL     1       2.063   3.815  18.798  0.00  0.00    +0.000 C 
ATOM      7  C   UNL     1       3.264   2.987  18.455  0.00  0.00    +0.000 C 
ATOM      8  C   UNL     1       2.794   1.523  18.439  0.00  0.00    +0.000 C 
ATOM      9  C   UNL     1       4.415   3.107  19.475  0.00  0.00    +0.000 C 
ATOM     10  O   UNL     1       3.606   3.494  17.147  0.00  0.00    +0.000 OA
ATOM     11  C   UNL     1       3.973   4.866  17.097  0.00  0.00    +0.000 C 
ATOM     12  C   UNL     1       5.130   5.121  16.475  0.00  0.00    +0.000 C 
ENDROOT
BRANCH  12  13
ATOM     13  C   UNL     1       6.072   4.167  15.820  0.00  0.00    +0.000 C 
ATOM     14  C   UNL     1       5.868   3.800  14.369  0.00  0.00    +0.000 C 
ATOM     15  O   UNL     1       7.039   3.729  16.445  0.00  0.00    +0.000 OA
ENDBRANCH  12  13
BRANCH   1  16
ATOM     16  C   UNL     1       6.880   6.806  17.175  0.00  0.00    +0.000 C 
ATOM     17  O   UNL     1       7.876   7.233  16.593  0.00  0.00    +0.000 OA
BRANCH  16  19
ATOM     18  C   UNL     1       8.147   5.988  18.974  0.00  0.00    +0.000 C 
ATOM     19  O   UNL     1       6.847   6.398  18.485  0.00  0.00    +0.000 OA
ENDBRANCH  16  19
ENDBRANCH   1  16
BRANCH   1  20
ATOM     20  O   UNL     1       5.286   7.027  15.165  0.00  0.00    +0.000 OA
ATOM     21  H   UNL     1       5.017   6.263  14.624  0.00  0.00    +0.000 HD
ENDBRANCH   1  20
BRANCH   6  22
ATOM     22  O   UNL     1       1.028   3.700  17.810  0.00  0.00    +0.000 OA
ATOM     23  H   UNL     1       0.840   2.749  17.689  0.00  0.00    +0.000 HD
ENDBRANCH   6  22
BRANCH   4  24
ATOM     24  C   UNL     1       2.358   7.405  18.425  0.00  0.00    +0.000 C 
BRANCH  24  25
ATOM     25  C   UNL     1       1.092   8.217  18.433  0.00  0.00    +0.000 C 
ATOM     26  C   UNL     1       0.907   9.503  18.159  0.00  0.00    +0.000 C 
ATOM     27  C   UNL     1       1.995  10.518  18.106  0.00  0.00    +0.000 C 
ATOM     28  C   UNL     1      -0.475   9.957  17.719  0.00  0.00    +0.000 C 
ENDBRANCH  24  25
ENDBRANCH   4  24
TORSDOF 7
ENDMDL
MODEL 4
REMARK VINA RESULT:      -6.5      1.795      4.659
REMARK  Name = 
REMARK  13 active torsions:
REMARK  status: ('A' for Active; 'I' for Inactive)
REMARK    1  A    between atoms: C_1  and  O_2
REMARK    2  A    between atoms: O_2  and  C_3
REMARK    3  A    between atoms: C_3  and  C_5
REMARK    4  A    between atoms: C_5  and  O_6
REMARK    5  A    between atoms: C_9  and  C_10
REMARK    6  A    between atoms: C_10  and  C_11
REMARK    7  A    between atoms: C_12  and  C_13
REMARK    8  A    between atoms: C_12  and  C_14
REMARK    9  A    between atoms: C_16  and  O_17
REMARK   10  A    between atoms: C_18  and  C_19
REMARK   11  A    between atoms: C_18  and  C_20
REMARK   12  A    between atoms: C_23  and  C_24
REMARK   13  A    between atoms: C_24  and  C_25
REMARK                            x       y       z     vdW  Elec       q    Type
REMARK                         _______ _______ _______ _____ _____    ______ ____
ROOT
ATOM      1  C   UNL     1       2.585   4.763  19.522  0.00  0.00    +0.000 C 
ATOM      2  C   UNL     1       2.460   6.028  18.678  0.00  0.00    +0.000 C 
ATOM      3  O   UNL     1       1.312   6.494  18.630  0.00  0.00    +0.000 OA
ATOM      4  C   UNL     1       3.837   6.732  18.056  0.00  0.00    +0.000 C 
ATOM      5  C   UNL     1       4.332   6.839  16.509  0.00  0.00    +0.000 C 
ATOM      6  C   UNL     1       5.727   6.459  16.090  0.00  0.00    +0.000 C 
ATOM      7  C   UNL     1       5.879   4.981  16.277  0.00  0.00    +0.000 C 
ATOM      8  C   UNL     1       7.284   4.620  15.767  0.00  0.00    +0.000 C 
ATOM      9  C   UNL     1       4.854   4.144  15.484  0.00  0.00    +0.000 C 
ATOM     10  O   UNL     1       5.736   4.851  17.708  0.00  0.00    +0.000 OA
ATOM     11  C   UNL     1       4.478   5.246  18.238  0.00  0.00    +0.000 C 
ATOM     12  C   UNL     1       3.888   4.346  19.032  0.00  0.00    +0.000 C 
ENDROOT
BRANCH  12  13
ATOM     13  C   UNL     1       4.377   2.997  19.444  0.00  0.00    +0.000 C 
ATOM     14  C   UNL     1       4.095   1.804  18.561  0.00  0.00    +0.000 C 
ATOM     15  O   UNL     1       5.051   2.871  20.467  0.00  0.00    +0.000 OA
ENDBRANCH  12  13
BRANCH   1  16
ATOM     16  C   UNL     1       1.425   3.787  19.110  0.00  0.00    +0.000 C 
ATOM     17  O   UNL     1       1.195   3.431  17.955  0.00  0.00    +0.000 OA
BRANCH  16  19
ATOM     18  C   UNL     1       1.266   2.521  21.081  0.00  0.00    +0.000 C 
ATOM     19  O   UNL     1       0.644   3.486  20.198  0.00  0.00    +0.000 OA
ENDBRANCH  16  19
ENDBRANCH   1  16
BRANCH   1  20
ATOM     20  O   UNL     1       2.734   5.100  20.896  0.00  0.00    +0.000 OA
ATOM     21  H   UNL     1       3.641   5.445  20.994  0.00  0.00    +0.000 HD
ENDBRANCH   1  20
BRANCH   6  22
ATOM     22  O   UNL     1       6.678   7.203  16.868  0.00  0.00    +0.000 OA
ATOM     23  H   UNL     1       6.581   6.922  17.798  0.00  0.00    +0.000 HD
ENDBRANCH   6  22
BRANCH   4  24
ATOM     24  C   UNL     1       2.858   8.044  17.631  0.00  0.00    +0.000 C 
BRANCH  24  25
ATOM     25  C   UNL     1       2.603   9.457  18.080  0.00  0.00    +0.000 C 
ATOM     26  C   UNL     1       1.452  10.077  18.316  0.00  0.00    +0.000 C 
ATOM     27  C   UNL     1       0.123   9.591  17.856  0.00  0.00    +0.000 C 
ATOM     28  C   UNL     1       1.458  11.281  19.244  0.00  0.00    +0.000 C 
ENDBRANCH  24  25
ENDBRANCH   4  24
TORSDOF 7
ENDMDL
MODEL 5
REMARK VINA RESULT:      -6.5      2.092      4.936
REMARK  Name = 
REMARK  13 active torsions:
REMARK  status: ('A' for Active; 'I' for Inactive)
REMARK    1  A    between atoms: C_1  and  O_2
REMARK    2  A    between atoms: O_2  and  C_3
REMARK    3  A    between atoms: C_3  and  C_5
REMARK    4  A    between atoms: C_5  and  O_6
REMARK    5  A    between atoms: C_9  and  C_10
REMARK    6  A    between atoms: C_10  and  C_11
REMARK    7  A    between atoms: C_12  and  C_13
REMARK    8  A    between atoms: C_12  and  C_14
REMARK    9  A    between atoms: C_16  and  O_17
REMARK   10  A    between atoms: C_18  and  C_19
REMARK   11  A    between atoms: C_18  and  C_20
REMARK   12  A    between atoms: C_23  and  C_24
REMARK   13  A    between atoms: C_24  and  C_25
REMARK                            x       y       z     vdW  Elec       q    Type
REMARK                         _______ _______ _______ _____ _____    ______ ____
ROOT
ATOM      1  C   UNL     1       2.564   4.211  20.692  0.00  0.00    +0.000 C 
ATOM      2  C   UNL     1       2.281   5.526  19.971  0.00  0.00    +0.000 C 
ATOM      3  O   UNL     1       1.172   6.017  20.227  0.00  0.00    +0.000 OA
ATOM      4  C   UNL     1       3.490   6.238  19.071  0.00  0.00    +0.000 C 
ATOM      5  C   UNL     1       3.600   6.426  17.458  0.00  0.00    +0.000 C 
ATOM      6  C   UNL     1       4.840   6.045  16.693  0.00  0.00    +0.000 C 
ATOM      7  C   UNL     1       4.983   4.555  16.761  0.00  0.00    +0.000 C 
ATOM      8  C   UNL     1       6.211   4.197  15.907  0.00  0.00    +0.000 C 
ATOM      9  C   UNL     1       3.770   3.786  16.197  0.00  0.00    +0.000 C 
ATOM     10  O   UNL     1       5.185   4.344  18.174  0.00  0.00    +0.000 OA
ATOM     11  C   UNL     1       4.107   4.732  19.014  0.00  0.00    +0.000 C 
ATOM     12  C   UNL     1       3.696   3.798  19.879  0.00  0.00    +0.000 C 
ENDROOT
BRANCH  12  13
ATOM     13  C   UNL     1       4.224   2.419  20.089  0.00  0.00    +0.000 C 
ATOM     14  C   UNL     1       4.051   1.384  19.003  0.00  0.00    +0.000 C 
ATOM     15  O   UNL     1       4.845   2.146  21.118  0.00  0.00    +0.000 OA
ENDBRANCH  12  13
BRANCH   1  16
ATOM     16  C   UNL     1       1.307   3.284  20.524  0.00  0.00    +0.000 C 
ATOM     17  O   UNL     1       0.894   2.512  21.388  0.00  0.00    +0.000 OA
BRANCH  16  19
ATOM     18  C   UNL     1       0.656   2.079  18.617  0.00  0.00    +0.000 C 
ATOM     19  O   UNL     1       0.813   3.374  19.246  0.00  0.00    +0.000 OA
ENDBRANCH  16  19
ENDBRANCH   1  16
BRANCH   1  20
ATOM     20  O   UNL     1       3.051   4.465  22.004  0.00  0.00    +0.000 OA
ATOM     21  H   UNL     1       3.994   4.692  21.904  0.00  0.00    +0.000 HD
ENDBRANCH   1  20
BRANCH   6  22
ATOM     22  O   UNL     1       5.974   6.723  17.255  0.00  0.00    +0.000 OA
ATOM     23  H   UNL     1       5.760   6.934  18.185  0.00  0.00    +0.000 HD
ENDBRANCH   6  22
BRANCH   4  24
ATOM     24  C   UNL     1       2.481   7.592  18.965  0.00  0.00    +0.000 C 
BRANCH  24  25
ATOM     25  C   UNL     1       2.408   8.892  18.211  0.00  0.00    +0.000 C 
ATOM     26  C   UNL     1       1.632   9.950  18.418  0.00  0.00    +0.000 C 
ATOM     27  C   UNL     1       0.406   9.943  19.261  0.00  0.00    +0.000 C 
ATOM     28  C   UNL     1       2.095  11.299  17.893  0.00  0.00    +0.000 C 
ENDBRANCH  24  25
ENDBRANCH   4  24
TORSDOF 7
ENDMDL
MODEL 6
REMARK VINA RESULT:      -6.0      2.082      4.909
REMARK  Name = 
REMARK  13 active torsions:
REMARK  status: ('A' for Active; 'I' for Inactive)
REMARK    1  A    between atoms: C_1  and  O_2
REMARK    2  A    between atoms: O_2  and  C_3
REMARK    3  A    between atoms: C_3  and  C_5
REMARK    4  A    between atoms: C_5  and  O_6
REMARK    5  A    between atoms: C_9  and  C_10
REMARK    6  A    between atoms: C_10  and  C_11
REMARK    7  A    between atoms: C_12  and  C_13
REMARK    8  A    between atoms: C_12  and  C_14
REMARK    9  A    between atoms: C_16  and  O_17
REMARK   10  A    between atoms: C_18  and  C_19
REMARK   11  A    between atoms: C_18  and  C_20
REMARK   12  A    between atoms: C_23  and  C_24
REMARK   13  A    between atoms: C_24  and  C_25
REMARK                            x       y       z     vdW  Elec       q    Type
REMARK                         _______ _______ _______ _____ _____    ______ ____
ROOT
ATOM      1  C   UNL     1       2.496   4.052  20.867  0.00  0.00    +0.000 C 
ATOM      2  C   UNL     1       2.153   5.394  20.227  0.00  0.00    +0.000 C 
ATOM      3  O   UNL     1       1.028   5.825  20.524  0.00  0.00    +0.000 OA
ATOM      4  C   UNL     1       3.320   6.203  19.354  0.00  0.00    +0.000 C 
ATOM      5  C   UNL     1       3.399   6.487  17.753  0.00  0.00    +0.000 C 
ATOM      6  C   UNL     1       4.641   6.198  16.952  0.00  0.00    +0.000 C 
ATOM      7  C   UNL     1       4.843   4.714  16.933  0.00  0.00    +0.000 C 
ATOM      8  C   UNL     1       6.072   4.454  16.045  0.00  0.00    +0.000 C 
ATOM      9  C   UNL     1       3.653   3.931  16.341  0.00  0.00    +0.000 C 
ATOM     10  O   UNL     1       5.073   4.431  18.330  0.00  0.00    +0.000 OA
ATOM     11  C   UNL     1       3.993   4.728  19.203  0.00  0.00    +0.000 C 
ATOM     12  C   UNL     1       3.631   3.731  20.019  0.00  0.00    +0.000 C 
ENDROOT
BRANCH  12  13
ATOM     13  C   UNL     1       4.216   2.364  20.143  0.00  0.00    +0.000 C 
ATOM     14  C   UNL     1       4.049   1.379  19.010  0.00  0.00    +0.000 C 
ATOM     15  O   UNL     1       4.875   2.063  21.139  0.00  0.00    +0.000 OA
ENDBRANCH  12  13
BRANCH   1  16
ATOM     16  C   UNL     1       1.274   3.087  20.662  0.00  0.00    +0.000 C 
ATOM     17  O   UNL     1       0.928   2.224  21.467  0.00  0.00    +0.000 OA
BRANCH  16  19
ATOM     18  C   UNL     1       0.656   2.038  18.655  0.00  0.00    +0.000 C 
ATOM     19  O   UNL     1       0.726   3.268  19.416  0.00  0.00    +0.000 OA
ENDBRANCH  16  19
ENDBRANCH   1  16
BRANCH   1  20
ATOM     20  O   UNL     1       2.992   4.250  22.186  0.00  0.00    +0.000 OA
ATOM     21  H   UNL     1       3.821   4.754  22.091  0.00  0.00    +0.000 HD
ENDBRANCH   1  20
BRANCH   6  22
ATOM     22  O   UNL     1       5.756   6.888  17.538  0.00  0.00    +0.000 OA
ATOM     23  H   UNL     1       6.546   6.325  17.419  0.00  0.00    +0.000 HD
ENDBRANCH   6  22
BRANCH   4  24
ATOM     24  C   UNL     1       2.258   7.520  19.338  0.00  0.00    +0.000 C 
BRANCH  24  25
ATOM     25  C   UNL     1       1.712   8.544  20.295  0.00  0.00    +0.000 C 
ATOM     26  C   UNL     1       0.815   9.502  20.091  0.00  0.00    +0.000 C 
ATOM     27  C   UNL     1       0.390   9.988  18.749  0.00  0.00    +0.000 C 
ATOM     28  C   UNL     1       0.050  10.042  21.288  0.00  0.00    +0.000 C 
ENDBRANCH  24  25
ENDBRANCH   4  24
TORSDOF 7
ENDMDL
MODEL 7
REMARK VINA RESULT:      -6.0      5.251     10.052
REMARK  Name = 
REMARK  13 active torsions:
REMARK  status: ('A' for Active; 'I' for Inactive)
REMARK    1  A    between atoms: C_1  and  O_2
REMARK    2  A    between atoms: O_2  and  C_3
REMARK    3  A    between atoms: C_3  and  C_5
REMARK    4  A    between atoms: C_5  and  O_6
REMARK    5  A    between atoms: C_9  and  C_10
REMARK    6  A    between atoms: C_10  and  C_11
REMARK    7  A    between atoms: C_12  and  C_13
REMARK    8  A    between atoms: C_12  and  C_14
REMARK    9  A    between atoms: C_16  and  O_17
REMARK   10  A    between atoms: C_18  and  C_19
REMARK   11  A    between atoms: C_18  and  C_20
REMARK   12  A    between atoms: C_23  and  C_24
REMARK   13  A    between atoms: C_24  and  C_25
REMARK                            x       y       z     vdW  Elec       q    Type
REMARK                         _______ _______ _______ _____ _____    ______ ____
ROOT
ATOM      1  C   UNL     1      -1.529  12.243  20.817  0.00  0.00    +0.000 C 
ATOM      2  C   UNL     1      -0.656  11.199  20.126  0.00  0.00    +0.000 C 
ATOM      3  O   UNL     1      -0.868  10.035  20.498  0.00  0.00    +0.000 OA
ATOM      4  C   UNL     1       0.343  11.669  18.878  0.00  0.00    +0.000 C 
ATOM      5  C   UNL     1       1.969  11.739  18.829  0.00  0.00    +0.000 C 
ATOM      6  C   UNL     1       2.700  12.962  18.341  0.00  0.00    +0.000 C 
ATOM      7  C   UNL     1       2.451  14.069  19.319  0.00  0.00    +0.000 C 
ATOM      8  C   UNL     1       3.273  15.274  18.830  0.00  0.00    +0.000 C 
ATOM      9  C   UNL     1       2.897  13.740  20.758  0.00  0.00    +0.000 C 
ATOM     10  O   UNL     1       1.026  14.258  19.193  0.00  0.00    +0.000 OA
ATOM     11  C   UNL     1       0.224  13.143  19.559  0.00  0.00    +0.000 C 
ATOM     12  C   UNL     1      -0.756  13.411  20.430  0.00  0.00    +0.000 C 
ENDROOT
BRANCH  12  13
ATOM     13  C   UNL     1      -1.126  14.715  21.052  0.00  0.00    +0.000 C 
ATOM     14  C   UNL     1      -0.228  15.316  22.108  0.00  0.00    +0.000 C 
ATOM     15  O   UNL     1      -2.127  15.321  20.666  0.00  0.00    +0.000 OA
ENDBRANCH  12  13
BRANCH   1  16
ATOM     16  C   UNL     1      -1.496  11.959  22.362  0.00  0.00    +0.000 C 
ATOM     17  O   UNL     1      -0.474  11.709  23.000  0.00  0.00    +0.000 OA
BRANCH  16  19
ATOM     18  C   UNL     1      -3.062  13.037  23.738  0.00  0.00    +0.000 C 
ATOM     19  O   UNL     1      -2.771  11.916  22.868  0.00  0.00    +0.000 OA
ENDBRANCH  16  19
ENDBRANCH   1  16
BRANCH   1  20
ATOM     20  O   UNL     1      -2.792  12.334  20.170  0.00  0.00    +0.000 OA
ATOM     21  H   UNL     1      -3.317  12.972  20.687  0.00  0.00    +0.000 HD
ENDBRANCH   1  20
BRANCH   6  22
ATOM     22  O   UNL     1       2.243  13.295  17.020  0.00  0.00    +0.000 OA
ATOM     23  H   UNL     1       2.464  14.233  16.860  0.00  0.00    +0.000 HD
ENDBRANCH   6  22
BRANCH   4  24
ATOM     24  C   UNL     1       0.599  10.022  18.590  0.00  0.00    +0.000 C 
BRANCH  24  25
ATOM     25  C   UNL     1       1.725   9.105  18.197  0.00  0.00    +0.000 C 
ATOM     26  C   UNL     1       2.186   8.019  18.808  0.00  0.00    +0.000 C 
ATOM     27  C   UNL     1       1.893   7.658  20.222  0.00  0.00    +0.000 C 
ATOM     28  C   UNL     1       2.937   6.989  17.980  0.00  0.00    +0.000 C 
ENDBRANCH  24  25
ENDBRANCH   4  24
TORSDOF 7
ENDMDL
MODEL 8
REMARK VINA RESULT:      -5.9      2.017      5.445
REMARK  Name = 
REMARK  13 active torsions:
REMARK  status: ('A' for Active; 'I' for Inactive)
REMARK    1  A    between atoms: C_1  and  O_2
REMARK    2  A    between atoms: O_2  and  C_3
REMARK    3  A    between atoms: C_3  and  C_5
REMARK    4  A    between atoms: C_5  and  O_6
REMARK    5  A    between atoms: C_9  and  C_10
REMARK    6  A    between atoms: C_10  and  C_11
REMARK    7  A    between atoms: C_12  and  C_13
REMARK    8  A    between atoms: C_12  and  C_14
REMARK    9  A    between atoms: C_16  and  O_17
REMARK   10  A    between atoms: C_18  and  C_19
REMARK   11  A    between atoms: C_18  and  C_20
REMARK   12  A    between atoms: C_23  and  C_24
REMARK   13  A    between atoms: C_24  and  C_25
REMARK                            x       y       z     vdW  Elec       q    Type
REMARK                         _______ _______ _______ _____ _____    ______ ____
ROOT
ATOM      1  C   UNL     1       3.091   2.955  17.738  0.00  0.00    +0.000 C 
ATOM      2  C   UNL     1       3.989   4.156  17.455  0.00  0.00    +0.000 C 
ATOM      3  O   UNL     1       5.136   3.856  17.090  0.00  0.00    +0.000 OA
ATOM      4  C   UNL     1       3.338   5.689  17.501  0.00  0.00    +0.000 C 
ATOM      5  C   UNL     1       3.603   6.890  18.567  0.00  0.00    +0.000 C 
ATOM      6  C   UNL     1       2.473   7.639  19.223  0.00  0.00    +0.000 C 
ATOM      7  C   UNL     1       1.751   6.686  20.125  0.00  0.00    +0.000 C 
ATOM      8  C   UNL     1       0.657   7.503  20.833  0.00  0.00    +0.000 C 
ATOM      9  C   UNL     1       2.649   6.053  21.208  0.00  0.00    +0.000 C 
ATOM     10  O   UNL     1       1.231   5.726  19.182  0.00  0.00    +0.000 OA
ATOM     11  C   UNL     1       2.204   4.999  18.445  0.00  0.00    +0.000 C 
ATOM     12  C   UNL     1       2.055   3.670  18.464  0.00  0.00    +0.000 C 
ENDROOT
BRANCH  12  13
ATOM     13  C   UNL     1       1.003   2.855  19.137  0.00  0.00    +0.000 C 
ATOM     14  C   UNL     1       0.941   2.821  20.646  0.00  0.00    +0.000 C 
ATOM     15  O   UNL     1       0.159   2.260  18.465  0.00  0.00    +0.000 OA
ENDBRANCH  12  13
BRANCH   1  16
ATOM     16  C   UNL     1       3.896   1.946  18.635  0.00  0.00    +0.000 C 
ATOM     17  O   UNL     1       3.926   0.729  18.455  0.00  0.00    +0.000 OA
BRANCH  16  19
ATOM     18  C   UNL     1       4.631   1.737  20.854  0.00  0.00    +0.000 C 
ATOM     19  O   UNL     1       4.457   2.599  19.703  0.00  0.00    +0.000 OA
ENDBRANCH  16  19
ENDBRANCH   1  16
BRANCH   1  20
ATOM     20  O   UNL     1       2.513   2.477  16.529  0.00  0.00    +0.000 OA
ATOM     21  H   UNL     1       2.988   1.655  16.307  0.00  0.00    +0.000 HD
ENDBRANCH   1  20
BRANCH   6  22
ATOM     22  O   UNL     1       1.612   8.183  18.211  0.00  0.00    +0.000 OA
ATOM     23  H   UNL     1       0.699   7.903  18.419  0.00  0.00    +0.000 HD
ENDBRANCH   6  22
BRANCH   4  24
ATOM     24  C   UNL     1       4.795   6.224  16.830  0.00  0.00    +0.000 C 
BRANCH  24  25
ATOM     25  C   UNL     1       5.867   7.240  17.118  0.00  0.00    +0.000 C 
ATOM     26  C   UNL     1       7.032   7.092  17.738  0.00  0.00    +0.000 C 
ATOM     27  C   UNL     1       7.389   5.927  18.594  0.00  0.00    +0.000 C 
ATOM     28  C   UNL     1       8.140   8.089  17.442  0.00  0.00    +0.000 C 
ENDBRANCH  24  25
ENDBRANCH   4  24
TORSDOF 7
ENDMDL
MODEL 9
REMARK VINA RESULT:      -5.8      6.393     10.292
REMARK  Name = 
REMARK  13 active torsions:
REMARK  status: ('A' for Active; 'I' for Inactive)
REMARK    1  A    between atoms: C_1  and  O_2
REMARK    2  A    between atoms: O_2  and  C_3
REMARK    3  A    between atoms: C_3  and  C_5
REMARK    4  A    between atoms: C_5  and  O_6
REMARK    5  A    between atoms: C_9  and  C_10
REMARK    6  A    between atoms: C_10  and  C_11
REMARK    7  A    between atoms: C_12  and  C_13
REMARK    8  A    between atoms: C_12  and  C_14
REMARK    9  A    between atoms: C_16  and  O_17
REMARK   10  A    between atoms: C_18  and  C_19
REMARK   11  A    between atoms: C_18  and  C_20
REMARK   12  A    between atoms: C_23  and  C_24
REMARK   13  A    between atoms: C_24  and  C_25
REMARK                            x       y       z     vdW  Elec       q    Type
REMARK                         _______ _______ _______ _____ _____    ______ ____
ROOT
ATOM      1  C   UNL     1      -1.252  12.758  22.447  0.00  0.00    +0.000 C 
ATOM      2  C   UNL     1      -1.100  13.809  21.351  0.00  0.00    +0.000 C 
ATOM      3  O   UNL     1      -1.952  14.709  21.390  0.00  0.00    +0.000 OA
ATOM      4  C   UNL     1       0.227  13.749  20.344  0.00  0.00    +0.000 C 
ATOM      5  C   UNL     1       0.302  13.396  18.757  0.00  0.00    +0.000 C 
ATOM      6  C   UNL     1       1.284  12.395  18.209  0.00  0.00    +0.000 C 
ATOM      7  C   UNL     1       0.903  11.042  18.728  0.00  0.00    +0.000 C 
ATOM      8  C   UNL     1       1.878  10.040  18.087  0.00  0.00    +0.000 C 
ATOM      9  C   UNL     1      -0.532  10.615  18.357  0.00  0.00    +0.000 C 
ATOM     10  O   UNL     1       1.100  11.207  20.148  0.00  0.00    +0.000 OA
ATOM     11  C   UNL     1       0.275  12.180  20.775  0.00  0.00    +0.000 C 
ATOM     12  C   UNL     1      -0.384  11.753  21.857  0.00  0.00    +0.000 C 
ENDROOT
BRANCH  12  13
ATOM     13  C   UNL     1      -0.359  10.406  22.499  0.00  0.00    +0.000 C 
ATOM     14  C   UNL     1      -0.624   9.178  21.660  0.00  0.00    +0.000 C 
ATOM     15  O   UNL     1      -0.070  10.296  23.691  0.00  0.00    +0.000 OA
ENDBRANCH  12  13
BRANCH   1  16
ATOM     16  C   UNL     1      -2.761  12.324  22.499  0.00  0.00    +0.000 C 
ATOM     17  O   UNL     1      -3.350  11.980  23.523  0.00  0.00    +0.000 OA
BRANCH  16  19
ATOM     18  C   UNL     1      -4.697  12.609  21.202  0.00  0.00    +0.000 C 
ATOM     19  O   UNL     1      -3.288  12.274  21.232  0.00  0.00    +0.000 OA
ENDBRANCH  16  19
ENDBRANCH   1  16
BRANCH   1  20
ATOM     20  O   UNL     1      -0.632  13.205  23.647  0.00  0.00    +0.000 OA
ATOM     21  H   UNL     1       0.258  12.808  23.656  0.00  0.00    +0.000 HD
ENDBRANCH   1  20
BRANCH   6  22
ATOM     22  O   UNL     1       2.615  12.769  18.600  0.00  0.00    +0.000 OA
ATOM     23  H   UNL     1       3.225  12.089  18.255  0.00  0.00    +0.000 HD
ENDBRANCH   6  22
BRANCH   4  24
ATOM     24  C   UNL     1      -0.251  15.272  19.784  0.00  0.00    +0.000 C 
BRANCH  24  25
ATOM     25  C   UNL     1      -0.166  16.091  18.525  0.00  0.00    +0.000 C 
ATOM     26  C   UNL     1      -0.770  17.234  18.215  0.00  0.00    +0.000 C 
ATOM     27  C   UNL     1      -1.945  17.790  18.939  0.00  0.00    +0.000 C 
ATOM     28  C   UNL     1      -0.139  18.118  17.152  0.00  0.00    +0.000 C 
ENDBRANCH  24  25
ENDBRANCH   4  24
TORSDOF 7
ENDMDL
