MODEL 1
REMARK VINA RESULT:      -8.5      0.000      0.000
REMARK  Name = 
REMARK  7 active torsions:
REMARK  status: ('A' for Active; 'I' for Inactive)
REMARK    1  A    between atoms: C_1  and  O_2
REMARK    2  A    between atoms: O_2  and  C_3
REMARK    3  A    between atoms: C_3  and  C_5
REMARK    4  A    between atoms: C_5  and  C_6
REMARK    5  A    between atoms: C_5  and  C_16
REMARK    6  A    between atoms: C_6  and  C_7
REMARK    7  A    between atoms: C_16  and  C_17
REMARK                            x       y       z     vdW  Elec       q    Type
REMARK                         _______ _______ _______ _____ _____    ______ ____
ROOT
ATOM      1  C   UNL     1       2.095   4.471  18.851  0.00  0.00    +0.000 C 
ENDROOT
BRANCH   1   2
ATOM      2  C   UNL     1       1.180   3.384  19.396  0.00  0.00    +0.000 C 
ATOM      3  O   UNL     1       0.706   2.456  18.756  0.00  0.00    +0.000 OA
BRANCH   2   5
ATOM      4  C   UNL     1       1.422   2.592  21.585  0.00  0.00    +0.000 C 
ATOM      5  O   UNL     1       0.922   3.612  20.719  0.00  0.00    +0.000 OA
ENDBRANCH   2   5
ENDBRANCH   1   2
BRANCH   1   6
ATOM      6  C   UNL     1       2.505   5.463  19.963  0.00  0.00    +0.000 C 
BRANCH   6   7
ATOM      7  C   UNL     1       2.060   6.896  19.763  0.00  0.00    +0.000 A 
ATOM      8  C   UNL     1       2.260   7.535  18.521  0.00  0.00    +0.000 A 
ATOM      9  C   UNL     1       1.800   8.836  18.292  0.00  0.00    +0.000 A 
ATOM     10  C   UNL     1       1.141   9.490  19.317  0.00  0.00    +0.000 A 
ATOM     11  C   UNL     1       0.977   8.884  20.565  0.00  0.00    +0.000 A 
ATOM     12  C   UNL     1       1.433   7.597  20.804  0.00  0.00    +0.000 A 
ATOM     13  C   UNL     1       0.321   9.826  21.527  0.00  0.00    +0.000 C 
ATOM     14  C   UNL     1      -0.322  10.833  20.564  0.00  0.00    +0.000 C 
ATOM     15  C   UNL     1       0.565  10.871  19.312  0.00  0.00    +0.000 C 
ENDBRANCH   6   7
ENDBRANCH   1   6
BRANCH   1  16
ATOM     16  C   UNL     1       3.315   3.880  18.122  0.00  0.00    +0.000 C 
BRANCH  16  17
ATOM     17  C   UNL     1       4.432   4.860  17.827  0.00  0.00    +0.000 A 
ATOM     18  C   UNL     1       4.359   5.757  16.739  0.00  0.00    +0.000 A 
ATOM     19  C   UNL     1       5.400   6.657  16.476  0.00  0.00    +0.000 A 
ATOM     20  C   UNL     1       6.495   6.669  17.322  0.00  0.00    +0.000 A 
ATOM     21  C   UNL     1       6.572   5.787  18.403  0.00  0.00    +0.000 A 
ATOM     22  C   UNL     1       5.561   4.882  18.661  0.00  0.00    +0.000 A 
ATOM     23  C   UNL     1       7.869   5.949  19.132  0.00  0.00    +0.000 C 
ATOM     24  C   UNL     1       8.301   7.341  18.652  0.00  0.00    +0.000 C 
ATOM     25  C   UNL     1       7.724   7.508  17.234  0.00  0.00    +0.000 C 
ENDBRANCH  16  17
ENDBRANCH   1  16
TORSDOF 6
ENDMDL
MODEL 2
REMARK VINA RESULT:      -8.3      1.830      6.604
REMARK  Name = 
REMARK  7 active torsions:
REMARK  status: ('A' for Active; 'I' for Inactive)
REMARK    1  A    between atoms: C_1  and  O_2
REMARK    2  A    between atoms: O_2  and  C_3
REMARK    3  A    between atoms: C_3  and  C_5
REMARK    4  A    between atoms: C_5  and  C_6
REMARK    5  A    between atoms: C_5  and  C_16
REMARK    6  A    between atoms: C_6  and  C_7
REMARK    7  A    between atoms: C_16  and  C_17
REMARK                            x       y       z     vdW  Elec       q    Type
REMARK                         _______ _______ _______ _____ _____    ______ ____
ROOT
ATOM      1  C   UNL     1       2.906   5.205  18.798  0.00  0.00    +0.000 C 
ENDROOT
BRANCH   1   2
ATOM      2  C   UNL     1       1.723   4.360  18.346  0.00  0.00    +0.000 C 
ATOM      3  O   UNL     1       1.230   4.352  17.227  0.00  0.00    +0.000 OA
BRANCH   2   5
ATOM      4  C   UNL     1       0.886   2.288  19.042  0.00  0.00    +0.000 C 
ATOM      5  O   UNL     1       1.249   3.623  19.397  0.00  0.00    +0.000 OA
ENDBRANCH   2   5
ENDBRANCH   1   2
BRANCH   1   6
ATOM      6  C   UNL     1       4.226   4.406  18.710  0.00  0.00    +0.000 C 
BRANCH   6   7
ATOM      7  C   UNL     1       5.061   4.651  17.471  0.00  0.00    +0.000 A 
ATOM      8  C   UNL     1       6.241   5.418  17.549  0.00  0.00    +0.000 A 
ATOM      9  C   UNL     1       7.062   5.604  16.431  0.00  0.00    +0.000 A 
ATOM     10  C   UNL     1       6.687   5.017  15.237  0.00  0.00    +0.000 A 
ATOM     11  C   UNL     1       5.496   4.294  15.136  0.00  0.00    +0.000 A 
ATOM     12  C   UNL     1       4.674   4.107  16.236  0.00  0.00    +0.000 A 
ATOM     13  C   UNL     1       5.270   3.843  13.726  0.00  0.00    +0.000 C 
ATOM     14  C   UNL     1       6.688   3.948  13.150  0.00  0.00    +0.000 C 
ATOM     15  C   UNL     1       7.393   5.074  13.918  0.00  0.00    +0.000 C 
ENDBRANCH   6   7
ENDBRANCH   1   6
BRANCH   1  16
ATOM     16  C   UNL     1       2.981   6.539  18.033  0.00  0.00    +0.000 C 
BRANCH  16  17
ATOM     17  C   UNL     1       2.228   7.691  18.665  0.00  0.00    +0.000 A 
ATOM     18  C   UNL     1       1.793   8.796  17.900  0.00  0.00    +0.000 A 
ATOM     19  C   UNL     1       1.098   9.857  18.497  0.00  0.00    +0.000 A 
ATOM     20  C   UNL     1       0.823   9.790  19.851  0.00  0.00    +0.000 A 
ATOM     21  C   UNL     1       1.247   8.697  20.612  0.00  0.00    +0.000 A 
ATOM     22  C   UNL     1       1.948   7.655  20.040  0.00  0.00    +0.000 A 
ATOM     23  C   UNL     1       0.883   8.879  22.054  0.00  0.00    +0.000 C 
ATOM     24  C   UNL     1      -0.214   9.947  21.945  0.00  0.00    +0.000 C 
ATOM     25  C   UNL     1       0.128  10.795  20.706  0.00  0.00    +0.000 C 
ENDBRANCH  16  17
ENDBRANCH   1  16
TORSDOF 6
ENDMDL
MODEL 3
REMARK VINA RESULT:      -8.3      2.357      3.036
REMARK  Name = 
REMARK  7 active torsions:
REMARK  status: ('A' for Active; 'I' for Inactive)
REMARK    1  A    between atoms: C_1  and  O_2
REMARK    2  A    between atoms: O_2  and  C_3
REMARK    3  A    between atoms: C_3  and  C_5
REMARK    4  A    between atoms: C_5  and  C_6
REMARK    5  A    between atoms: C_5  and  C_16
REMARK    6  A    between atoms: C_6  and  C_7
REMARK    7  A    between atoms: C_16  and  C_17
REMARK                            x       y       z     vdW  Elec       q    Type
REMARK                         _______ _______ _______ _____ _____    ______ ____
ROOT
ATOM      1  C   UNL     1       3.326   4.703  17.792  0.00  0.00    +0.000 C 
ENDROOT
BRANCH   1   2
ATOM      2  C   UNL     1       2.042   3.971  18.157  0.00  0.00    +0.000 C 
ATOM      3  O   UNL     1       1.084   3.788  17.420  0.00  0.00    +0.000 OA
BRANCH   2   5
ATOM      4  C   UNL     1       0.847   3.066  19.954  0.00  0.00    +0.000 C 
ATOM      5  O   UNL     1       2.089   3.572  19.464  0.00  0.00    +0.000 OA
ENDBRANCH   2   5
ENDBRANCH   1   2
BRANCH   1   6
ATOM      6  C   UNL     1       3.712   5.729  18.882  0.00  0.00    +0.000 C 
BRANCH   6   7
ATOM      7  C   UNL     1       2.901   7.007  18.898  0.00  0.00    +0.000 A 
ATOM      8  C   UNL     1       2.900   7.862  17.776  0.00  0.00    +0.000 A 
ATOM      9  C   UNL     1       2.109   9.015  17.743  0.00  0.00    +0.000 A 
ATOM     10  C   UNL     1       1.323   9.304  18.843  0.00  0.00    +0.000 A 
ATOM     11  C   UNL     1       1.350   8.490  19.978  0.00  0.00    +0.000 A 
ATOM     12  C   UNL     1       2.133   7.347  20.022  0.00  0.00    +0.000 A 
ATOM     13  C   UNL     1       0.489   9.063  21.060  0.00  0.00    +0.000 C 
ATOM     14  C   UNL     1      -0.416  10.003  20.253  0.00  0.00    +0.000 C 
ATOM     15  C   UNL     1       0.403  10.469  19.041  0.00  0.00    +0.000 C 
ENDBRANCH   6   7
ENDBRANCH   1   6
BRANCH   1  16
ATOM     16  C   UNL     1       4.474   3.725  17.482  0.00  0.00    +0.000 C 
BRANCH  16  17
ATOM     17  C   UNL     1       5.361   4.115  16.318  0.00  0.00    +0.000 A 
ATOM     18  C   UNL     1       6.492   4.942  16.497  0.00  0.00    +0.000 A 
ATOM     19  C   UNL     1       7.304   5.297  15.412  0.00  0.00    +0.000 A 
ATOM     20  C   UNL     1       6.990   4.800  14.160  0.00  0.00    +0.000 A 
ATOM     21  C   UNL     1       5.875   3.979  13.976  0.00  0.00    +0.000 A 
ATOM     22  C   UNL     1       5.056   3.637  15.034  0.00  0.00    +0.000 A 
ATOM     23  C   UNL     1       5.711   3.618  12.532  0.00  0.00    +0.000 C 
ATOM     24  C   UNL     1       7.118   3.913  11.996  0.00  0.00    +0.000 C 
ATOM     25  C   UNL     1       7.681   5.055  12.862  0.00  0.00    +0.000 C 
ENDBRANCH  16  17
ENDBRANCH   1  16
TORSDOF 6
ENDMDL
MODEL 4
REMARK VINA RESULT:      -8.2      0.492      1.401
REMARK  Name = 
REMARK  7 active torsions:
REMARK  status: ('A' for Active; 'I' for Inactive)
REMARK    1  A    between atoms: C_1  and  O_2
REMARK    2  A    between atoms: O_2  and  C_3
REMARK    3  A    between atoms: C_3  and  C_5
REMARK    4  A    between atoms: C_5  and  C_6
REMARK    5  A    between atoms: C_5  and  C_16
REMARK    6  A    between atoms: C_6  and  C_7
REMARK    7  A    between atoms: C_16  and  C_17
REMARK                            x       y       z     vdW  Elec       q    Type
REMARK                         _______ _______ _______ _____ _____    ______ ____
ROOT
ATOM      1  C   UNL     1       2.099   4.495  19.043  0.00  0.00    +0.000 C 
ENDROOT
BRANCH   1   2
ATOM      2  C   UNL     1       1.292   3.401  19.728  0.00  0.00    +0.000 C 
ATOM      3  O   UNL     1       0.698   2.489  19.171  0.00  0.00    +0.000 OA
BRANCH   2   5
ATOM      4  C   UNL     1       1.346   2.395  21.840  0.00  0.00    +0.000 C 
ATOM      5  O   UNL     1       1.288   3.603  21.081  0.00  0.00    +0.000 OA
ENDBRANCH   2   5
ENDBRANCH   1   2
BRANCH   1   6
ATOM      6  C   UNL     1       2.655   5.505  20.072  0.00  0.00    +0.000 C 
BRANCH   6   7
ATOM      7  C   UNL     1       2.051   6.892  20.024  0.00  0.00    +0.000 A 
ATOM      8  C   UNL     1       1.273   7.367  21.100  0.00  0.00    +0.000 A 
ATOM      9  C   UNL     1       0.759   8.668  21.106  0.00  0.00    +0.000 A 
ATOM     10  C   UNL     1       1.028   9.485  20.023  0.00  0.00    +0.000 A 
ATOM     11  C   UNL     1       1.758   9.011  18.930  0.00  0.00    +0.000 A 
ATOM     12  C   UNL     1       2.269   7.723  18.913  0.00  0.00    +0.000 A 
ATOM     13  C   UNL     1       1.832  10.049  17.854  0.00  0.00    +0.000 C 
ATOM     14  C   UNL     1       1.508  11.322  18.647  0.00  0.00    +0.000 C 
ATOM     15  C   UNL     1       0.590  10.900  19.802  0.00  0.00    +0.000 C 
ENDBRANCH   6   7
ENDBRANCH   1   6
BRANCH   1  16
ATOM     16  C   UNL     1       3.205   3.912  18.144  0.00  0.00    +0.000 C 
BRANCH  16  17
ATOM     17  C   UNL     1       4.355   4.850  17.842  0.00  0.00    +0.000 A 
ATOM     18  C   UNL     1       4.344   5.691  16.707  0.00  0.00    +0.000 A 
ATOM     19  C   UNL     1       5.415   6.553  16.438  0.00  0.00    +0.000 A 
ATOM     20  C   UNL     1       6.478   6.584  17.322  0.00  0.00    +0.000 A 
ATOM     21  C   UNL     1       6.494   5.758  18.449  0.00  0.00    +0.000 A 
ATOM     22  C   UNL     1       5.453   4.891  18.716  0.00  0.00    +0.000 A 
ATOM     23  C   UNL     1       7.769   5.929  19.217  0.00  0.00    +0.000 C 
ATOM     24  C   UNL     1       8.251   7.284  18.683  0.00  0.00    +0.000 C 
ATOM     25  C   UNL     1       7.730   7.390  17.238  0.00  0.00    +0.000 C 
ENDBRANCH  16  17
ENDBRANCH   1  16
TORSDOF 6
ENDMDL
MODEL 5
REMARK VINA RESULT:      -8.1      1.539      2.323
REMARK  Name = 
REMARK  7 active torsions:
REMARK  status: ('A' for Active; 'I' for Inactive)
REMARK    1  A    between atoms: C_1  and  O_2
REMARK    2  A    between atoms: O_2  and  C_3
REMARK    3  A    between atoms: C_3  and  C_5
REMARK    4  A    between atoms: C_5  and  C_6
REMARK    5  A    between atoms: C_5  and  C_16
REMARK    6  A    between atoms: C_6  and  C_7
REMARK    7  A    between atoms: C_16  and  C_17
REMARK                            x       y       z     vdW  Elec       q    Type
REMARK                         _______ _______ _______ _____ _____    ______ ____
ROOT
ATOM      1  C   UNL     1       2.802   4.422  19.301  0.00  0.00    +0.000 C 
ENDROOT
BRANCH   1   2
ATOM      2  C   UNL     1       1.903   3.195  19.366  0.00  0.00    +0.000 C 
ATOM      3  O   UNL     1       1.905   2.259  18.578  0.00  0.00    +0.000 OA
BRANCH   2   5
ATOM      4  C   UNL     1       1.436   2.522  21.558  0.00  0.00    +0.000 C 
ATOM      5  O   UNL     1       1.046   3.300  20.426  0.00  0.00    +0.000 OA
ENDBRANCH   2   5
ENDBRANCH   1   2
BRANCH   1   6
ATOM      6  C   UNL     1       2.353   5.495  20.319  0.00  0.00    +0.000 C 
BRANCH   6   7
ATOM      7  C   UNL     1       2.120   6.880  19.753  0.00  0.00    +0.000 A 
ATOM      8  C   UNL     1       2.492   7.178  18.426  0.00  0.00    +0.000 A 
ATOM      9  C   UNL     1       2.228   8.430  17.862  0.00  0.00    +0.000 A 
ATOM     10  C   UNL     1       1.592   9.380  18.640  0.00  0.00    +0.000 A 
ATOM     11  C   UNL     1       1.261   9.113  19.970  0.00  0.00    +0.000 A 
ATOM     12  C   UNL     1       1.521   7.876  20.540  0.00  0.00    +0.000 A 
ATOM     13  C   UNL     1       0.671  10.325  20.622  0.00  0.00    +0.000 C 
ATOM     14  C   UNL     1       0.240  11.140  19.396  0.00  0.00    +0.000 C 
ATOM     15  C   UNL     1       1.209  10.777  18.263  0.00  0.00    +0.000 C 
ENDBRANCH   6   7
ENDBRANCH   1   6
BRANCH   1  16
ATOM     16  C   UNL     1       4.287   4.052  19.462  0.00  0.00    +0.000 C 
BRANCH  16  17
ATOM     17  C   UNL     1       5.151   4.291  18.240  0.00  0.00    +0.000 A 
ATOM     18  C   UNL     1       6.507   4.667  18.357  0.00  0.00    +0.000 A 
ATOM     19  C   UNL     1       7.295   4.887  17.219  0.00  0.00    +0.000 A 
ATOM     20  C   UNL     1       6.723   4.701  15.973  0.00  0.00    +0.000 A 
ATOM     21  C   UNL     1       5.383   4.324  15.850  0.00  0.00    +0.000 A 
ATOM     22  C   UNL     1       4.591   4.123  16.964  0.00  0.00    +0.000 A 
ATOM     23  C   UNL     1       4.982   4.243  14.410  0.00  0.00    +0.000 C 
ATOM     24  C   UNL     1       6.353   4.134  13.731  0.00  0.00    +0.000 C 
ATOM     25  C   UNL     1       7.344   4.895  14.631  0.00  0.00    +0.000 C 
ENDBRANCH  16  17
ENDBRANCH   1  16
TORSDOF 6
ENDMDL
MODEL 6
REMARK VINA RESULT:      -8.0      1.798      6.630
REMARK  Name = 
REMARK  7 active torsions:
REMARK  status: ('A' for Active; 'I' for Inactive)
REMARK    1  A    between atoms: C_1  and  O_2
REMARK    2  A    between atoms: O_2  and  C_3
REMARK    3  A    between atoms: C_3  and  C_5
REMARK    4  A    between atoms: C_5  and  C_6
REMARK    5  A    between atoms: C_5  and  C_16
REMARK    6  A    between atoms: C_6  and  C_7
REMARK    7  A    between atoms: C_16  and  C_17
REMARK                            x       y       z     vdW  Elec       q    Type
REMARK                         _______ _______ _______ _____ _____    ______ ____
ROOT
ATOM      1  C   UNL     1       2.915   4.864  18.918  0.00  0.00    +0.000 C 
ENDROOT
BRANCH   1   2
ATOM      2  C   UNL     1       1.756   4.062  18.343  0.00  0.00    +0.000 C 
ATOM      3  O   UNL     1       1.192   4.274  17.279  0.00  0.00    +0.000 OA
BRANCH   2   5
ATOM      4  C   UNL     1       1.022   3.554  20.506  0.00  0.00    +0.000 C 
ATOM      5  O   UNL     1       1.397   3.072  19.215  0.00  0.00    +0.000 OA
ENDBRANCH   2   5
ENDBRANCH   1   2
BRANCH   1   6
ATOM      6  C   UNL     1       4.247   4.093  18.784  0.00  0.00    +0.000 C 
BRANCH   6   7
ATOM      7  C   UNL     1       5.075   4.420  17.559  0.00  0.00    +0.000 A 
ATOM      8  C   UNL     1       6.264   5.168  17.684  0.00  0.00    +0.000 A 
ATOM      9  C   UNL     1       7.078   5.427  16.576  0.00  0.00    +0.000 A 
ATOM     10  C   UNL     1       6.688   4.934  15.345  0.00  0.00    +0.000 A 
ATOM     11  C   UNL     1       5.489   4.231  15.201  0.00  0.00    +0.000 A 
ATOM     12  C   UNL     1       4.674   3.972  16.291  0.00  0.00    +0.000 A 
ATOM     13  C   UNL     1       5.248   3.887  13.764  0.00  0.00    +0.000 C 
ATOM     14  C   UNL     1       6.663   4.020  13.185  0.00  0.00    +0.000 C 
ATOM     15  C   UNL     1       7.385   5.080  14.028  0.00  0.00    +0.000 C 
ENDBRANCH   6   7
ENDBRANCH   1   6
BRANCH   1  16
ATOM     16  C   UNL     1       2.994   6.274  18.304  0.00  0.00    +0.000 C 
BRANCH  16  17
ATOM     17  C   UNL     1       2.248   7.354  19.061  0.00  0.00    +0.000 A 
ATOM     18  C   UNL     1       1.883   7.188  20.415  0.00  0.00    +0.000 A 
ATOM     19  C   UNL     1       1.191   8.193  21.104  0.00  0.00    +0.000 A 
ATOM     20  C   UNL     1       0.893   9.367  20.436  0.00  0.00    +0.000 A 
ATOM     21  C   UNL     1       1.254   9.539  19.097  0.00  0.00    +0.000 A 
ATOM     22  C   UNL     1       1.920   8.549  18.403  0.00  0.00    +0.000 A 
ATOM     23  C   UNL     1       0.774  10.861  18.582  0.00  0.00    +0.000 C 
ATOM     24  C   UNL     1       0.538  11.618  19.895  0.00  0.00    +0.000 C 
ATOM     25  C   UNL     1       0.150  10.557  20.942  0.00  0.00    +0.000 C 
ENDBRANCH  16  17
ENDBRANCH   1  16
TORSDOF 6
ENDMDL
MODEL 7
REMARK VINA RESULT:      -8.0      2.391      3.313
REMARK  Name = 
REMARK  7 active torsions:
REMARK  status: ('A' for Active; 'I' for Inactive)
REMARK    1  A    between atoms: C_1  and  O_2
REMARK    2  A    between atoms: O_2  and  C_3
REMARK    3  A    between atoms: C_3  and  C_5
REMARK    4  A    between atoms: C_5  and  C_6
REMARK    5  A    between atoms: C_5  and  C_16
REMARK    6  A    between atoms: C_6  and  C_7
REMARK    7  A    between atoms: C_16  and  C_17
REMARK                            x       y       z     vdW  Elec       q    Type
REMARK                         _______ _______ _______ _____ _____    ______ ____
ROOT
ATOM      1  C   UNL     1       3.341   4.496  17.766  0.00  0.00    +0.000 C 
ENDROOT
BRANCH   1   2
ATOM      2  C   UNL     1       2.017   3.784  18.003  0.00  0.00    +0.000 C 
ATOM      3  O   UNL     1       1.025   3.854  17.292  0.00  0.00    +0.000 OA
BRANCH   2   5
ATOM      4  C   UNL     1       0.863   3.103  19.922  0.00  0.00    +0.000 C 
ATOM      5  O   UNL     1       2.075   3.068  19.167  0.00  0.00    +0.000 OA
ENDBRANCH   2   5
ENDBRANCH   1   2
BRANCH   1   6
ATOM      6  C   UNL     1       3.740   5.352  18.990  0.00  0.00    +0.000 C 
BRANCH   6   7
ATOM      7  C   UNL     1       2.843   6.535  19.284  0.00  0.00    +0.000 A 
ATOM      8  C   UNL     1       2.136   6.606  20.503  0.00  0.00    +0.000 A 
ATOM      9  C   UNL     1       1.353   7.719  20.825  0.00  0.00    +0.000 A 
ATOM     10  C   UNL     1       1.281   8.757  19.913  0.00  0.00    +0.000 A 
ATOM     11  C   UNL     1       1.939   8.678  18.684  0.00  0.00    +0.000 A 
ATOM     12  C   UNL     1       2.715   7.579  18.354  0.00  0.00    +0.000 A 
ATOM     13  C   UNL     1       1.631   9.878  17.842  0.00  0.00    +0.000 C 
ATOM     14  C   UNL     1       1.147  10.871  18.907  0.00  0.00    +0.000 C 
ATOM     15  C   UNL     1       0.515  10.038  20.031  0.00  0.00    +0.000 C 
ENDBRANCH   6   7
ENDBRANCH   1   6
BRANCH   1  16
ATOM     16  C   UNL     1       4.453   3.515  17.355  0.00  0.00    +0.000 C 
BRANCH  16  17
ATOM     17  C   UNL     1       5.355   3.989  16.234  0.00  0.00    +0.000 A 
ATOM     18  C   UNL     1       6.434   4.867  16.476  0.00  0.00    +0.000 A 
ATOM     19  C   UNL     1       7.259   5.300  15.429  0.00  0.00    +0.000 A 
ATOM     20  C   UNL     1       7.012   4.828  14.152  0.00  0.00    +0.000 A 
ATOM     21  C   UNL     1       5.948   3.956  13.907  0.00  0.00    +0.000 A 
ATOM     22  C   UNL     1       5.116   3.537  14.926  0.00  0.00    +0.000 A 
ATOM     23  C   UNL     1       5.849   3.634  12.448  0.00  0.00    +0.000 C 
ATOM     24  C   UNL     1       7.254   4.020  11.968  0.00  0.00    +0.000 C 
ATOM     25  C   UNL     1       7.727   5.161  12.887  0.00  0.00    +0.000 C 
ENDBRANCH  16  17
ENDBRANCH   1  16
TORSDOF 6
ENDMDL
MODEL 8
REMARK VINA RESULT:      -8.0      2.480      5.124
REMARK  Name = 
REMARK  7 active torsions:
REMARK  status: ('A' for Active; 'I' for Inactive)
REMARK    1  A    between atoms: C_1  and  O_2
REMARK    2  A    between atoms: O_2  and  C_3
REMARK    3  A    between atoms: C_3  and  C_5
REMARK    4  A    between atoms: C_5  and  C_6
REMARK    5  A    between atoms: C_5  and  C_16
REMARK    6  A    between atoms: C_6  and  C_7
REMARK    7  A    between atoms: C_16  and  C_17
REMARK                            x       y       z     vdW  Elec       q    Type
REMARK                         _______ _______ _______ _____ _____    ______ ____
ROOT
ATOM      1  C   UNL     1       5.257   6.084  17.558  0.00  0.00    +0.000 C 
ENDROOT
BRANCH   1   2
ATOM      2  C   UNL     1       6.669   6.423  17.100  0.00  0.00    +0.000 C 
ATOM      3  O   UNL     1       7.574   5.624  16.908  0.00  0.00    +0.000 OA
BRANCH   2   5
ATOM      4  C   UNL     1       7.878   8.324  17.735  0.00  0.00    +0.000 C 
ATOM      5  O   UNL     1       6.803   7.778  16.969  0.00  0.00    +0.000 OA
ENDBRANCH   2   5
ENDBRANCH   1   2
BRANCH   1   6
ATOM      6  C   UNL     1       4.227   7.070  16.962  0.00  0.00    +0.000 C 
BRANCH   6   7
ATOM      7  C   UNL     1       3.188   7.597  17.929  0.00  0.00    +0.000 A 
ATOM      8  C   UNL     1       2.997   6.971  19.179  0.00  0.00    +0.000 A 
ATOM      9  C   UNL     1       2.089   7.479  20.113  0.00  0.00    +0.000 A 
ATOM     10  C   UNL     1       1.373   8.615  19.783  0.00  0.00    +0.000 A 
ATOM     11  C   UNL     1       1.519   9.217  18.531  0.00  0.00    +0.000 A 
ATOM     12  C   UNL     1       2.414   8.720  17.596  0.00  0.00    +0.000 A 
ATOM     13  C   UNL     1       0.572  10.367  18.384  0.00  0.00    +0.000 C 
ATOM     14  C   UNL     1       0.239  10.666  19.851  0.00  0.00    +0.000 C 
ATOM     15  C   UNL     1       0.353   9.336  20.608  0.00  0.00    +0.000 C 
ENDBRANCH   6   7
ENDBRANCH   1   6
BRANCH   1  16
ATOM     16  C   UNL     1       4.897   4.617  17.261  0.00  0.00    +0.000 C 
BRANCH  16  17
ATOM     17  C   UNL     1       3.721   4.067  18.042  0.00  0.00    +0.000 A 
ATOM     18  C   UNL     1       2.585   3.540  17.391  0.00  0.00    +0.000 A 
ATOM     19  C   UNL     1       1.502   3.036  18.125  0.00  0.00    +0.000 A 
ATOM     20  C   UNL     1       1.580   3.042  19.506  0.00  0.00    +0.000 A 
ATOM     21  C   UNL     1       2.704   3.558  20.157  0.00  0.00    +0.000 A 
ATOM     22  C   UNL     1       3.768   4.075  19.445  0.00  0.00    +0.000 A 
ATOM     23  C   UNL     1       2.529   3.508  21.643  0.00  0.00    +0.000 C 
ATOM     24  C   UNL     1       1.410   2.466  21.770  0.00  0.00    +0.000 C 
ATOM     25  C   UNL     1       0.558   2.588  20.493  0.00  0.00    +0.000 C 
ENDBRANCH  16  17
ENDBRANCH   1  16
TORSDOF 6
ENDMDL
MODEL 9
REMARK VINA RESULT:      -8.0      1.634      2.515
REMARK  Name = 
REMARK  7 active torsions:
REMARK  status: ('A' for Active; 'I' for Inactive)
REMARK    1  A    between atoms: C_1  and  O_2
REMARK    2  A    between atoms: O_2  and  C_3
REMARK    3  A    between atoms: C_3  and  C_5
REMARK    4  A    between atoms: C_5  and  C_6
REMARK    5  A    between atoms: C_5  and  C_16
REMARK    6  A    between atoms: C_6  and  C_7
REMARK    7  A    between atoms: C_16  and  C_17
REMARK                            x       y       z     vdW  Elec       q    Type
REMARK                         _______ _______ _______ _____ _____    ______ ____
ROOT
ATOM      1  C   UNL     1       2.810   4.990  19.170  0.00  0.00    +0.000 C 
ENDROOT
BRANCH   1   2
ATOM      2  C   UNL     1       1.547   4.186  19.445  0.00  0.00    +0.000 C 
ATOM      3  O   UNL     1       0.877   4.225  20.467  0.00  0.00    +0.000 OA
BRANCH   2   5
ATOM      4  C   UNL     1       1.126   1.993  18.746  0.00  0.00    +0.000 C 
ATOM      5  O   UNL     1       1.277   3.366  18.384  0.00  0.00    +0.000 OA
ENDBRANCH   2   5
ENDBRANCH   1   2
BRANCH   1   6
ATOM      6  C   UNL     1       2.935   6.181  20.147  0.00  0.00    +0.000 C 
BRANCH   6   7
ATOM      7  C   UNL     1       2.220   7.450  19.731  0.00  0.00    +0.000 A 
ATOM      8  C   UNL     1       2.336   7.931  18.411  0.00  0.00    +0.000 A 
ATOM      9  C   UNL     1       1.634   9.064  17.987  0.00  0.00    +0.000 A 
ATOM     10  C   UNL     1       0.818   9.710  18.898  0.00  0.00    +0.000 A 
ATOM     11  C   UNL     1       0.730   9.269  20.221  0.00  0.00    +0.000 A 
ATOM     12  C   UNL     1       1.424   8.150  20.652  0.00  0.00    +0.000 A 
ATOM     13  C   UNL     1      -0.139  10.185  21.026  0.00  0.00    +0.000 C 
ATOM     14  C   UNL     1      -0.932  10.891  19.918  0.00  0.00    +0.000 C 
ATOM     15  C   UNL     1      -0.023  10.929  18.682  0.00  0.00    +0.000 C 
ENDBRANCH   6   7
ENDBRANCH   1   6
BRANCH   1  16
ATOM     16  C   UNL     1       4.066   4.100  19.174  0.00  0.00    +0.000 C 
BRANCH  16  17
ATOM     17  C   UNL     1       5.000   4.292  17.996  0.00  0.00    +0.000 A 
ATOM     18  C   UNL     1       6.359   4.631  18.180  0.00  0.00    +0.000 A 
ATOM     19  C   UNL     1       7.212   4.808  17.082  0.00  0.00    +0.000 A 
ATOM     20  C   UNL     1       6.702   4.618  15.810  0.00  0.00    +0.000 A 
ATOM     21  C   UNL     1       5.359   4.279  15.622  0.00  0.00    +0.000 A 
ATOM     22  C   UNL     1       4.504   4.121  16.694  0.00  0.00    +0.000 A 
ATOM     23  C   UNL     1       5.032   4.186  14.164  0.00  0.00    +0.000 C 
ATOM     24  C   UNL     1       6.434   4.025  13.561  0.00  0.00    +0.000 C 
ATOM     25  C   UNL     1       7.398   4.772  14.501  0.00  0.00    +0.000 C 
ENDBRANCH  16  17
ENDBRANCH   1  16
TORSDOF 6
ENDMDL
