MODEL 1
REMARK VINA RESULT:      -8.2      0.000      0.000
REMARK  Name = 
REMARK  2 active torsions:
REMARK  status: ('A' for Active; 'I' for Inactive)
REMARK    1  A    between atoms: C_4  and  C_5
REMARK    2  A    between atoms: C_13  and  C_14
REMARK                            x       y       z     vdW  Elec       q    Type
REMARK                         _______ _______ _______ _____ _____    ______ ____
ROOT
ATOM      1  O   UNL     1       7.482   5.538  19.945  0.00  0.00    +0.000 OA
ATOM      2  C   UNL     1       6.493   5.155  19.356  0.00  0.00    +0.000 C 
ATOM      3  O   UNL     1       5.283   4.820  19.889  0.00  0.00    +0.000 OA
ATOM      4  C   UNL     1       4.496   4.455  18.850  0.00  0.00    +0.000 C 
ATOM      5  N   UNL     1       5.004   4.520  17.663  0.00  0.00    +0.000 NA
ATOM      6  C   UNL     1       6.286   4.937  17.901  0.00  0.00    +0.000 C 
ATOM      7  C   UNL     1       7.252   5.075  16.986  0.00  0.00    +0.000 C 
ENDROOT
BRANCH   4   8
ATOM      8  C   UNL     1       3.146   3.975  19.175  0.00  0.00    +0.000 A 
ATOM      9  C   UNL     1       2.452   3.117  18.318  0.00  0.00    +0.000 A 
ATOM     10  C   UNL     1       1.147   2.734  18.636  0.00  0.00    +0.000 A 
ATOM     11  C   UNL     1       0.541   3.203  19.803  0.00  0.00    +0.000 A 
ATOM     12  C   UNL     1       1.241   4.042  20.669  0.00  0.00    +0.000 A 
ATOM     13  C   UNL     1       2.546   4.426  20.358  0.00  0.00    +0.000 A 
ENDBRANCH   4   8
BRANCH   7  14
ATOM     14  C   UNL     1       7.077   4.847  15.587  0.00  0.00    +0.000 A 
ATOM     15  C   UNL     1       6.233   3.889  14.975  0.00  0.00    +0.000 A 
ATOM     16  N   UNL     1       6.349   3.949  13.645  0.00  0.00    +0.000 NA
ATOM     17  N   UNL     1       7.257   4.928  13.512  0.00  0.00    +0.000 N 
ATOM     18  N   UNL     1       7.706   5.537  14.625  0.00  0.00    +0.000 NA
ATOM     19  H   UNL     1       7.599   5.196  12.593  0.00  0.00    +0.000 HD
ENDBRANCH   7  14
TORSDOF 2
ENDMDL
MODEL 2
REMARK VINA RESULT:      -8.1      0.170      1.152
REMARK  Name = 
REMARK  2 active torsions:
REMARK  status: ('A' for Active; 'I' for Inactive)
REMARK    1  A    between atoms: C_4  and  C_5
REMARK    2  A    between atoms: C_13  and  C_14
REMARK                            x       y       z     vdW  Elec       q    Type
REMARK                         _______ _______ _______ _____ _____    ______ ____
ROOT
ATOM      1  O   UNL     1       7.672   5.345  19.858  0.00  0.00    +0.000 OA
ATOM      2  C   UNL     1       6.641   5.060  19.283  0.00  0.00    +0.000 C 
ATOM      3  O   UNL     1       5.419   4.817  19.837  0.00  0.00    +0.000 OA
ATOM      4  C   UNL     1       4.582   4.544  18.809  0.00  0.00    +0.000 C 
ATOM      5  N   UNL     1       5.068   4.593  17.613  0.00  0.00    +0.000 NA
ATOM      6  C   UNL     1       6.385   4.894  17.830  0.00  0.00    +0.000 C 
ATOM      7  C   UNL     1       7.341   4.971  16.896  0.00  0.00    +0.000 C 
ENDROOT
BRANCH   4   8
ATOM      8  C   UNL     1       3.203   4.172  19.155  0.00  0.00    +0.000 A 
ATOM      9  C   UNL     1       2.636   4.534  20.380  0.00  0.00    +0.000 A 
ATOM     10  C   UNL     1       1.344   4.107  20.694  0.00  0.00    +0.000 A 
ATOM     11  C   UNL     1       0.623   3.325  19.791  0.00  0.00    +0.000 A 
ATOM     12  C   UNL     1       1.181   2.980  18.561  0.00  0.00    +0.000 A 
ATOM     13  C   UNL     1       2.469   3.406  18.240  0.00  0.00    +0.000 A 
ENDBRANCH   4   8
BRANCH   7  14
ATOM     14  C   UNL     1       7.117   4.791  15.497  0.00  0.00    +0.000 A 
ATOM     15  C   UNL     1       6.253   3.853  14.881  0.00  0.00    +0.000 A 
ATOM     16  N   UNL     1       6.323   3.959  13.551  0.00  0.00    +0.000 NA
ATOM     17  N   UNL     1       7.226   4.943  13.421  0.00  0.00    +0.000 N 
ATOM     18  N   UNL     1       7.713   5.514  14.537  0.00  0.00    +0.000 NA
ATOM     19  H   UNL     1       7.535   5.243  12.501  0.00  0.00    +0.000 HD
ENDBRANCH   7  14
TORSDOF 2
ENDMDL
MODEL 3
REMARK VINA RESULT:      -8.0      2.262      2.776
REMARK  Name = 
REMARK  2 active torsions:
REMARK  status: ('A' for Active; 'I' for Inactive)
REMARK    1  A    between atoms: C_4  and  C_5
REMARK    2  A    between atoms: C_13  and  C_14
REMARK                            x       y       z     vdW  Elec       q    Type
REMARK                         _______ _______ _______ _____ _____    ______ ____
ROOT
ATOM      1  O   UNL     1       2.917   8.789  17.494  0.00  0.00    +0.000 OA
ATOM      2  C   UNL     1       3.042   7.610  17.752  0.00  0.00    +0.000 C 
ATOM      3  O   UNL     1       2.316   6.870  18.640  0.00  0.00    +0.000 OA
ATOM      4  C   UNL     1       2.814   5.612  18.585  0.00  0.00    +0.000 C 
ATOM      5  N   UNL     1       3.775   5.385  17.752  0.00  0.00    +0.000 NA
ATOM      6  C   UNL     1       3.996   6.617  17.196  0.00  0.00    +0.000 C 
ATOM      7  C   UNL     1       4.964   6.927  16.326  0.00  0.00    +0.000 C 
ENDROOT
BRANCH   4   8
ATOM      8  C   UNL     1       2.240   4.630  19.514  0.00  0.00    +0.000 A 
ATOM      9  C   UNL     1       2.624   4.587  20.857  0.00  0.00    +0.000 A 
ATOM     10  C   UNL     1       2.101   3.597  21.692  0.00  0.00    +0.000 A 
ATOM     11  C   UNL     1       1.199   2.658  21.189  0.00  0.00    +0.000 A 
ATOM     12  C   UNL     1       0.800   2.713  19.854  0.00  0.00    +0.000 A 
ATOM     13  C   UNL     1       1.317   3.701  19.016  0.00  0.00    +0.000 A 
ENDBRANCH   4   8
BRANCH   7  14
ATOM     14  C   UNL     1       5.905   5.991  15.799  0.00  0.00    +0.000 A 
ATOM     15  C   UNL     1       5.656   4.968  14.851  0.00  0.00    +0.000 A 
ATOM     16  N   UNL     1       6.770   4.271  14.616  0.00  0.00    +0.000 NA
ATOM     17  N   UNL     1       7.637   4.892  15.430  0.00  0.00    +0.000 N 
ATOM     18  N   UNL     1       7.202   5.951  16.136  0.00  0.00    +0.000 NA
ATOM     19  H   UNL     1       8.596   4.565  15.512  0.00  0.00    +0.000 HD
ENDBRANCH   7  14
TORSDOF 2
ENDMDL
MODEL 4
REMARK VINA RESULT:      -8.0      2.341      6.217
REMARK  Name = 
REMARK  2 active torsions:
REMARK  status: ('A' for Active; 'I' for Inactive)
REMARK    1  A    between atoms: C_4  and  C_5
REMARK    2  A    between atoms: C_13  and  C_14
REMARK                            x       y       z     vdW  Elec       q    Type
REMARK                         _______ _______ _______ _____ _____    ______ ____
ROOT
ATOM      1  O   UNL     1       7.323   5.198  19.060  0.00  0.00    +0.000 OA
ATOM      2  C   UNL     1       6.827   4.810  18.023  0.00  0.00    +0.000 C 
ATOM      3  O   UNL     1       7.347   4.904  16.765  0.00  0.00    +0.000 OA
ATOM      4  C   UNL     1       6.441   4.336  15.935  0.00  0.00    +0.000 C 
ATOM      5  N   UNL     1       5.372   3.840  16.465  0.00  0.00    +0.000 NA
ATOM      6  C   UNL     1       5.530   4.123  17.795  0.00  0.00    +0.000 C 
ATOM      7  C   UNL     1       4.638   3.886  18.764  0.00  0.00    +0.000 C 
ENDROOT
BRANCH   4   8
ATOM      8  C   UNL     1       6.739   4.378  14.497  0.00  0.00    +0.000 A 
ATOM      9  C   UNL     1       7.706   5.243  13.979  0.00  0.00    +0.000 A 
ATOM     10  C   UNL     1       7.915   5.296  12.599  0.00  0.00    +0.000 A 
ATOM     11  C   UNL     1       7.164   4.489  11.743  0.00  0.00    +0.000 A 
ATOM     12  C   UNL     1       6.214   3.611  12.261  0.00  0.00    +0.000 A 
ATOM     13  C   UNL     1       6.003   3.551  13.639  0.00  0.00    +0.000 A 
ENDBRANCH   4   8
BRANCH   7  14
ATOM     14  C   UNL     1       3.377   3.248  18.559  0.00  0.00    +0.000 A 
ATOM     15  C   UNL     1       2.138   3.871  18.272  0.00  0.00    +0.000 A 
ATOM     16  N   UNL     1       1.169   2.957  18.172  0.00  0.00    +0.000 NA
ATOM     17  N   UNL     1       1.857   1.830  18.409  0.00  0.00    +0.000 N 
ATOM     18  N   UNL     1       3.184   1.922  18.608  0.00  0.00    +0.000 NA
ATOM     19  H   UNL     1       1.383   0.931  18.441  0.00  0.00    +0.000 HD
ENDBRANCH   7  14
TORSDOF 2
ENDMDL
MODEL 5
REMARK VINA RESULT:      -8.0      2.262      6.143
REMARK  Name = 
REMARK  2 active torsions:
REMARK  status: ('A' for Active; 'I' for Inactive)
REMARK    1  A    between atoms: C_4  and  C_5
REMARK    2  A    between atoms: C_13  and  C_14
REMARK                            x       y       z     vdW  Elec       q    Type
REMARK                         _______ _______ _______ _____ _____    ______ ____
ROOT
ATOM      1  O   UNL     1       7.768   7.342  18.145  0.00  0.00    +0.000 OA
ATOM      2  C   UNL     1       7.278   6.474  17.453  0.00  0.00    +0.000 C 
ATOM      3  O   UNL     1       7.499   6.243  16.126  0.00  0.00    +0.000 OA
ATOM      4  C   UNL     1       6.738   5.174  15.793  0.00  0.00    +0.000 C 
ATOM      5  N   UNL     1       6.038   4.623  16.730  0.00  0.00    +0.000 NA
ATOM      6  C   UNL     1       6.310   5.409  17.818  0.00  0.00    +0.000 C 
ATOM      7  C   UNL     1       5.752   5.299  19.029  0.00  0.00    +0.000 C 
ENDROOT
BRANCH   4   8
ATOM      8  C   UNL     1       6.745   4.768  14.382  0.00  0.00    +0.000 A 
ATOM      9  C   UNL     1       5.896   3.764  13.909  0.00  0.00    +0.000 A 
ATOM     10  C   UNL     1       5.979   3.365  12.573  0.00  0.00    +0.000 A 
ATOM     11  C   UNL     1       6.901   3.966  11.715  0.00  0.00    +0.000 A 
ATOM     12  C   UNL     1       7.734   4.982  12.182  0.00  0.00    +0.000 A 
ATOM     13  C   UNL     1       7.654   5.387  13.514  0.00  0.00    +0.000 A 
ENDBRANCH   4   8
BRANCH   7  14
ATOM     14  C   UNL     1       4.802   4.296  19.391  0.00  0.00    +0.000 A 
ATOM     15  C   UNL     1       3.391   4.415  19.399  0.00  0.00    +0.000 A 
ATOM     16  N   UNL     1       2.830   3.279  19.821  0.00  0.00    +0.000 NA
ATOM     17  N   UNL     1       3.918   2.529  20.055  0.00  0.00    +0.000 N 
ATOM     18  N   UNL     1       5.125   3.055  19.783  0.00  0.00    +0.000 NA
ATOM     19  H   UNL     1       3.828   1.589  20.432  0.00  0.00    +0.000 HD
ENDBRANCH   7  14
TORSDOF 2
ENDMDL
MODEL 6
REMARK VINA RESULT:      -7.9      2.247      6.137
REMARK  Name = 
REMARK  2 active torsions:
REMARK  status: ('A' for Active; 'I' for Inactive)
REMARK    1  A    between atoms: C_4  and  C_5
REMARK    2  A    between atoms: C_13  and  C_14
REMARK                            x       y       z     vdW  Elec       q    Type
REMARK                         _______ _______ _______ _____ _____    ______ ____
ROOT
ATOM      1  O   UNL     1       7.833   7.328  18.237  0.00  0.00    +0.000 OA
ATOM      2  C   UNL     1       7.339   6.465  17.542  0.00  0.00    +0.000 C 
ATOM      3  O   UNL     1       7.582   6.218  16.222  0.00  0.00    +0.000 OA
ATOM      4  C   UNL     1       6.805   5.163  15.882  0.00  0.00    +0.000 C 
ATOM      5  N   UNL     1       6.074   4.635  16.807  0.00  0.00    +0.000 NA
ATOM      6  C   UNL     1       6.340   5.424  17.895  0.00  0.00    +0.000 C 
ATOM      7  C   UNL     1       5.754   5.336  19.094  0.00  0.00    +0.000 C 
ENDROOT
BRANCH   4   8
ATOM      8  C   UNL     1       6.832   4.745  14.473  0.00  0.00    +0.000 A 
ATOM      9  C   UNL     1       7.735   5.304  13.565  0.00  0.00    +0.000 A 
ATOM     10  C   UNL     1       7.685   4.924  12.222  0.00  0.00    +0.000 A 
ATOM     11  C   UNL     1       6.743   3.989  11.791  0.00  0.00    +0.000 A 
ATOM     12  C   UNL     1       5.855   3.416  12.701  0.00  0.00    +0.000 A 
ATOM     13  C   UNL     1       5.902   3.790  14.043  0.00  0.00    +0.000 A 
ENDBRANCH   4   8
BRANCH   7  14
ATOM     14  C   UNL     1       4.775   4.357  19.444  0.00  0.00    +0.000 A 
ATOM     15  C   UNL     1       3.393   4.568  19.666  0.00  0.00    +0.000 A 
ATOM     16  N   UNL     1       2.794   3.422  20.001  0.00  0.00    +0.000 NA
ATOM     17  N   UNL     1       3.834   2.575  19.975  0.00  0.00    +0.000 N 
ATOM     18  N   UNL     1       5.037   3.053  19.612  0.00  0.00    +0.000 NA
ATOM     19  H   UNL     1       3.712   1.598  20.228  0.00  0.00    +0.000 HD
ENDBRANCH   7  14
TORSDOF 2
ENDMDL
MODEL 7
REMARK VINA RESULT:      -7.9      2.649      3.118
REMARK  Name = 
REMARK  2 active torsions:
REMARK  status: ('A' for Active; 'I' for Inactive)
REMARK    1  A    between atoms: C_4  and  C_5
REMARK    2  A    between atoms: C_13  and  C_14
REMARK                            x       y       z     vdW  Elec       q    Type
REMARK                         _______ _______ _______ _____ _____    ______ ____
ROOT
ATOM      1  O   UNL     1       5.157   3.260  19.796  0.00  0.00    +0.000 OA
ATOM      2  C   UNL     1       4.828   4.253  19.180  0.00  0.00    +0.000 C 
ATOM      3  O   UNL     1       3.926   5.205  19.555  0.00  0.00    +0.000 OA
ATOM      4  C   UNL     1       3.892   6.114  18.553  0.00  0.00    +0.000 C 
ATOM      5  N   UNL     1       4.677   5.921  17.544  0.00  0.00    +0.000 NA
ATOM      6  C   UNL     1       5.294   4.740  17.856  0.00  0.00    +0.000 C 
ATOM      7  C   UNL     1       6.145   4.065  17.076  0.00  0.00    +0.000 C 
ENDROOT
BRANCH   4   8
ATOM      8  C   UNL     1       2.929   7.215  18.687  0.00  0.00    +0.000 A 
ATOM      9  C   UNL     1       2.765   8.167  17.678  0.00  0.00    +0.000 A 
ATOM     10  C   UNL     1       1.884   9.233  17.872  0.00  0.00    +0.000 A 
ATOM     11  C   UNL     1       1.169   9.345  19.065  0.00  0.00    +0.000 A 
ATOM     12  C   UNL     1       1.317   8.384  20.064  0.00  0.00    +0.000 A 
ATOM     13  C   UNL     1       2.193   7.316  19.875  0.00  0.00    +0.000 A 
ENDBRANCH   4   8
BRANCH   7  14
ATOM     14  C   UNL     1       6.585   4.507  15.791  0.00  0.00    +0.000 A 
ATOM     15  C   UNL     1       6.157   4.029  14.529  0.00  0.00    +0.000 A 
ATOM     16  N   UNL     1       6.807   4.660  13.547  0.00  0.00    +0.000 NA
ATOM     17  N   UNL     1       7.600   5.480  14.253  0.00  0.00    +0.000 N 
ATOM     18  N   UNL     1       7.494   5.472  15.594  0.00  0.00    +0.000 NA
ATOM     19  H   UNL     1       8.267   6.087  13.784  0.00  0.00    +0.000 HD
ENDBRANCH   7  14
TORSDOF 2
ENDMDL
MODEL 8
REMARK VINA RESULT:      -7.9      2.216      6.109
REMARK  Name = 
REMARK  2 active torsions:
REMARK  status: ('A' for Active; 'I' for Inactive)
REMARK    1  A    between atoms: C_4  and  C_5
REMARK    2  A    between atoms: C_13  and  C_14
REMARK                            x       y       z     vdW  Elec       q    Type
REMARK                         _______ _______ _______ _____ _____    ______ ____
ROOT
ATOM      1  O   UNL     1       7.833   5.138  18.980  0.00  0.00    +0.000 OA
ATOM      2  C   UNL     1       7.180   4.823  18.007  0.00  0.00    +0.000 C 
ATOM      3  O   UNL     1       7.576   4.827  16.701  0.00  0.00    +0.000 OA
ATOM      4  C   UNL     1       6.514   4.399  15.979  0.00  0.00    +0.000 C 
ATOM      5  N   UNL     1       5.443   4.076  16.625  0.00  0.00    +0.000 NA
ATOM      6  C   UNL     1       5.778   4.341  17.926  0.00  0.00    +0.000 C 
ATOM      7  C   UNL     1       4.963   4.251  18.984  0.00  0.00    +0.000 C 
ENDROOT
BRANCH   4   8
ATOM      8  C   UNL     1       6.667   4.384  14.518  0.00  0.00    +0.000 A 
ATOM      9  C   UNL     1       5.925   3.513  13.717  0.00  0.00    +0.000 A 
ATOM     10  C   UNL     1       6.146   3.488  12.338  0.00  0.00    +0.000 A 
ATOM     11  C   UNL     1       7.100   4.329  11.764  0.00  0.00    +0.000 A 
ATOM     12  C   UNL     1       7.827   5.212  12.560  0.00  0.00    +0.000 A 
ATOM     13  C   UNL     1       7.608   5.244  13.937  0.00  0.00    +0.000 A 
ENDBRANCH   4   8
BRANCH   7  14
ATOM     14  C   UNL     1       3.606   3.812  18.921  0.00  0.00    +0.000 A 
ATOM     15  C   UNL     1       3.108   2.523  19.231  0.00  0.00    +0.000 A 
ATOM     16  N   UNL     1       1.788   2.473  19.030  0.00  0.00    +0.000 NA
ATOM     17  N   UNL     1       1.548   3.723  18.604  0.00  0.00    +0.000 N 
ATOM     18  N   UNL     1       2.577   4.587  18.552  0.00  0.00    +0.000 NA
ATOM     19  H   UNL     1       0.612   4.003  18.324  0.00  0.00    +0.000 HD
ENDBRANCH   7  14
TORSDOF 2
ENDMDL
MODEL 9
REMARK VINA RESULT:      -7.9      2.855      3.605
REMARK  Name = 
REMARK  2 active torsions:
REMARK  status: ('A' for Active; 'I' for Inactive)
REMARK    1  A    between atoms: C_4  and  C_5
REMARK    2  A    between atoms: C_13  and  C_14
REMARK                            x       y       z     vdW  Elec       q    Type
REMARK                         _______ _______ _______ _____ _____    ______ ____
ROOT
ATOM      1  O   UNL     1       3.261   2.407  18.316  0.00  0.00    +0.000 OA
ATOM      2  C   UNL     1       3.402   3.598  18.137  0.00  0.00    +0.000 C 
ATOM      3  O   UNL     1       2.701   4.616  18.715  0.00  0.00    +0.000 OA
ATOM      4  C   UNL     1       3.211   5.765  18.211  0.00  0.00    +0.000 C 
ATOM      5  N   UNL     1       4.193   5.667  17.376  0.00  0.00    +0.000 NA
ATOM      6  C   UNL     1       4.361   4.314  17.257  0.00  0.00    +0.000 C 
ATOM      7  C   UNL     1       5.210   3.695  16.429  0.00  0.00    +0.000 C 
ENDROOT
BRANCH   4   8
ATOM      8  C   UNL     1       2.567   7.017  18.628  0.00  0.00    +0.000 A 
ATOM      9  C   UNL     1       2.106   7.199  19.935  0.00  0.00    +0.000 A 
ATOM     10  C   UNL     1       1.444   8.381  20.273  0.00  0.00    +0.000 A 
ATOM     11  C   UNL     1       1.246   9.376  19.314  0.00  0.00    +0.000 A 
ATOM     12  C   UNL     1       1.724   9.203  18.016  0.00  0.00    +0.000 A 
ATOM     13  C   UNL     1       2.389   8.026  17.672  0.00  0.00    +0.000 A 
ENDBRANCH   4   8
BRANCH   7  14
ATOM     14  C   UNL     1       6.123   4.366  15.560  0.00  0.00    +0.000 A 
ATOM     15  C   UNL     1       6.096   4.391  14.144  0.00  0.00    +0.000 A 
ATOM     16  N   UNL     1       7.125   5.100  13.671  0.00  0.00    +0.000 NA
ATOM     17  N   UNL     1       7.730   5.463  14.812  0.00  0.00    +0.000 N 
ATOM     18  N   UNL     1       7.167   5.097  15.977  0.00  0.00    +0.000 NA
ATOM     19  H   UNL     1       8.594   5.999  14.792  0.00  0.00    +0.000 HD
ENDBRANCH   7  14
TORSDOF 2
ENDMDL
