MODEL 1
REMARK VINA RESULT:      -6.8      0.000      0.000
REMARK  Name = 
REMARK  8 active torsions:
REMARK  status: ('A' for Active; 'I' for Inactive)
REMARK    1  A    between atoms: C_1  and  C_2
REMARK    2  A    between atoms: C_2  and  C_4
REMARK    3  A    between atoms: C_7  and  O_8
REMARK    4  A    between atoms: O_8  and  C_9
REMARK    5  A    between atoms: C_9  and  C_10
REMARK    6  A    between atoms: C_10  and  O_11
REMARK    7  A    between atoms: C_10  and  C_12
REMARK    8  A    between atoms: C_12  and  N_13
REMARK                            x       y       z     vdW  Elec       q    Type
REMARK                         _______ _______ _______ _____ _____    ______ ____
ROOT
ATOM      1  C   UNL     1       7.344   5.025  17.177  0.00  0.00    +0.000 C 
ENDROOT
BRANCH   1   2
ATOM      2  O   UNL     1       7.393   5.687  15.910  0.00  0.00    +0.000 OA
BRANCH   2   6
ATOM      3  C   UNL     1       5.763   3.505  12.759  0.00  0.00    +0.000 A 
ATOM      4  C   UNL     1       5.156   3.561  14.016  0.00  0.00    +0.000 A 
ATOM      5  C   UNL     1       5.749   4.295  15.048  0.00  0.00    +0.000 A 
ATOM      6  C   UNL     1       6.952   4.959  14.835  0.00  0.00    +0.000 A 
ATOM      7  C   UNL     1       7.568   4.904  13.590  0.00  0.00    +0.000 A 
ATOM      8  C   UNL     1       6.972   4.177  12.548  0.00  0.00    +0.000 A 
BRANCH   3  10
ATOM      9  C   UNL     1       3.933   3.356  10.948  0.00  0.00    +0.000 C 
ATOM     10  C   UNL     1       5.138   2.756  11.627  0.00  0.00    +0.000 C 
ATOM     11  O   UNL     1       5.618   1.679  11.267  0.00  0.00    +0.000 OA
ENDBRANCH   3  10
ENDBRANCH   2   6
ENDBRANCH   1   2
BRANCH   1  12
ATOM     12  C   UNL     1       6.813   6.022  18.219  0.00  0.00    +0.000 C 
BRANCH  12  13
ATOM     13  O   UNL     1       6.292   7.187  17.562  0.00  0.00    +0.000 OA
ATOM     14  H   UNL     1       7.013   7.846  17.560  0.00  0.00    +0.000 HD
ENDBRANCH  12  13
BRANCH  12  15
ATOM     15  C   UNL     1       5.712   5.421  19.122  0.00  0.00    +0.000 C 
BRANCH  15  16
ATOM     16  N   UNL     1       4.853   4.418  18.466  0.00  0.00    +0.000 NA
ATOM     17  C   UNL     1       4.591   3.273  19.352  0.00  0.00    +0.000 C 
ATOM     18  C   UNL     1       3.747   2.211  18.657  0.00  0.00    +0.000 C 
ATOM     19  C   UNL     1       2.437   2.795  18.152  0.00  0.00    +0.000 C 
ATOM     20  C   UNL     1       2.702   4.027  17.295  0.00  0.00    +0.000 C 
ATOM     21  C   UNL     1       3.591   5.036  18.024  0.00  0.00    +0.000 C 
ENDBRANCH  15  16
ENDBRANCH  12  15
ENDBRANCH   1  12
TORSDOF 7
ENDMDL
MODEL 2
REMARK VINA RESULT:      -6.6      0.924      1.436
REMARK  Name = 
REMARK  8 active torsions:
REMARK  status: ('A' for Active; 'I' for Inactive)
REMARK    1  A    between atoms: C_1  and  C_2
REMARK    2  A    between atoms: C_2  and  C_4
REMARK    3  A    between atoms: C_7  and  O_8
REMARK    4  A    between atoms: O_8  and  C_9
REMARK    5  A    between atoms: C_9  and  C_10
REMARK    6  A    between atoms: C_10  and  O_11
REMARK    7  A    between atoms: C_10  and  C_12
REMARK    8  A    between atoms: C_12  and  N_13
REMARK                            x       y       z     vdW  Elec       q    Type
REMARK                         _______ _______ _______ _____ _____    ______ ____
ROOT
ATOM      1  C   UNL     1       6.517   6.381  17.211  0.00  0.00    +0.000 C 
ENDROOT
BRANCH   1   2
ATOM      2  O   UNL     1       7.368   5.933  16.153  0.00  0.00    +0.000 OA
BRANCH   2   6
ATOM      3  C   UNL     1       5.794   3.726  12.991  0.00  0.00    +0.000 A 
ATOM      4  C   UNL     1       7.070   4.293  12.939  0.00  0.00    +0.000 A 
ATOM      5  C   UNL     1       7.549   5.039  14.020  0.00  0.00    +0.000 A 
ATOM      6  C   UNL     1       6.756   5.234  15.145  0.00  0.00    +0.000 A 
ATOM      7  C   UNL     1       5.482   4.680  15.204  0.00  0.00    +0.000 A 
ATOM      8  C   UNL     1       4.999   3.923  14.126  0.00  0.00    +0.000 A 
BRANCH   3  10
ATOM      9  C   UNL     1       3.999   3.344  11.179  0.00  0.00    +0.000 C 
ATOM     10  C   UNL     1       5.265   2.898  11.866  0.00  0.00    +0.000 C 
ATOM     11  O   UNL     1       5.870   1.882  11.517  0.00  0.00    +0.000 OA
ENDBRANCH   3  10
ENDBRANCH   2   6
ENDBRANCH   1   2
BRANCH   1  12
ATOM     12  C   UNL     1       6.410   5.254  18.251  0.00  0.00    +0.000 C 
BRANCH  12  13
ATOM     13  O   UNL     1       7.454   5.388  19.227  0.00  0.00    +0.000 OA
ATOM     14  H   UNL     1       7.940   4.542  19.226  0.00  0.00    +0.000 HD
ENDBRANCH  12  13
BRANCH  12  15
ATOM     15  C   UNL     1       5.045   5.232  18.977  0.00  0.00    +0.000 C 
BRANCH  15  16
ATOM     16  N   UNL     1       4.017   4.390  18.337  0.00  0.00    +0.000 NA
ATOM     17  C   UNL     1       4.149   2.981  18.741  0.00  0.00    +0.000 C 
ATOM     18  C   UNL     1       3.121   2.101  18.039  0.00  0.00    +0.000 C 
ATOM     19  C   UNL     1       1.706   2.594  18.303  0.00  0.00    +0.000 C 
ATOM     20  C   UNL     1       1.587   4.073  17.955  0.00  0.00    +0.000 C 
ATOM     21  C   UNL     1       2.672   4.899  18.649  0.00  0.00    +0.000 C 
ENDBRANCH  15  16
ENDBRANCH  12  15
ENDBRANCH   1  12
TORSDOF 7
ENDMDL
MODEL 3
REMARK VINA RESULT:      -6.6      3.157      5.471
REMARK  Name = 
REMARK  8 active torsions:
REMARK  status: ('A' for Active; 'I' for Inactive)
REMARK    1  A    between atoms: C_1  and  C_2
REMARK    2  A    between atoms: C_2  and  C_4
REMARK    3  A    between atoms: C_7  and  O_8
REMARK    4  A    between atoms: O_8  and  C_9
REMARK    5  A    between atoms: C_9  and  C_10
REMARK    6  A    between atoms: C_10  and  O_11
REMARK    7  A    between atoms: C_10  and  C_12
REMARK    8  A    between atoms: C_12  and  N_13
REMARK                            x       y       z     vdW  Elec       q    Type
REMARK                         _______ _______ _______ _____ _____    ______ ____
ROOT
ATOM      1  C   UNL     1       2.531   2.660  19.924  0.00  0.00    +0.000 C 
ENDROOT
BRANCH   1   2
ATOM      2  O   UNL     1       3.074   2.407  18.626  0.00  0.00    +0.000 OA
BRANCH   2   6
ATOM      3  C   UNL     1       5.985   5.015  17.188  0.00  0.00    +0.000 A 
ATOM      4  C   UNL     1       5.015   4.453  16.355  0.00  0.00    +0.000 A 
ATOM      5  C   UNL     1       4.067   3.570  16.881  0.00  0.00    +0.000 A 
ATOM      6  C   UNL     1       4.093   3.235  18.230  0.00  0.00    +0.000 A 
ATOM      7  C   UNL     1       5.059   3.783  19.066  0.00  0.00    +0.000 A 
ATOM      8  C   UNL     1       6.007   4.678  18.546  0.00  0.00    +0.000 A 
BRANCH   3  10
ATOM      9  C   UNL     1       7.431   7.119  17.556  0.00  0.00    +0.000 C 
ATOM     10  C   UNL     1       6.992   5.986  16.663  0.00  0.00    +0.000 C 
ATOM     11  O   UNL     1       7.448   5.841  15.527  0.00  0.00    +0.000 OA
ENDBRANCH   3  10
ENDBRANCH   2   6
ENDBRANCH   1   2
BRANCH   1  12
ATOM     12  C   UNL     1       1.635   3.905  19.836  0.00  0.00    +0.000 C 
BRANCH  12  13
ATOM     13  O   UNL     1       0.268   3.544  20.084  0.00  0.00    +0.000 OA
ATOM     14  H   UNL     1      -0.235   3.817  19.293  0.00  0.00    +0.000 HD
ENDBRANCH  12  13
BRANCH  12  15
ATOM     15  C   UNL     1       2.049   5.016  20.828  0.00  0.00    +0.000 C 
BRANCH  15  16
ATOM     16  N   UNL     1       2.336   6.323  20.209  0.00  0.00    +0.000 NA
ATOM     17  C   UNL     1       2.405   6.220  18.743  0.00  0.00    +0.000 C 
ATOM     18  C   UNL     1       2.755   7.560  18.105  0.00  0.00    +0.000 C 
ATOM     19  C   UNL     1       1.760   8.636  18.511  0.00  0.00    +0.000 C 
ATOM     20  C   UNL     1       1.631   8.694  20.028  0.00  0.00    +0.000 C 
ATOM     21  C   UNL     1       1.327   7.315  20.616  0.00  0.00    +0.000 C 
ENDBRANCH  15  16
ENDBRANCH  12  15
ENDBRANCH   1  12
TORSDOF 7
ENDMDL
MODEL 4
REMARK VINA RESULT:      -6.4      3.845      7.255
REMARK  Name = 
REMARK  8 active torsions:
REMARK  status: ('A' for Active; 'I' for Inactive)
REMARK    1  A    between atoms: C_1  and  C_2
REMARK    2  A    between atoms: C_2  and  C_4
REMARK    3  A    between atoms: C_7  and  O_8
REMARK    4  A    between atoms: O_8  and  C_9
REMARK    5  A    between atoms: C_9  and  C_10
REMARK    6  A    between atoms: C_10  and  O_11
REMARK    7  A    between atoms: C_10  and  C_12
REMARK    8  A    between atoms: C_12  and  N_13
REMARK                            x       y       z     vdW  Elec       q    Type
REMARK                         _______ _______ _______ _____ _____    ______ ____
ROOT
ATOM      1  C   UNL     1       4.549   5.790  17.772  0.00  0.00    +0.000 C 
ENDROOT
BRANCH   1   2
ATOM      2  O   UNL     1       3.732   6.859  17.289  0.00  0.00    +0.000 OA
BRANCH   2   6
ATOM      3  C   UNL     1       1.121   8.823  19.872  0.00  0.00    +0.000 A 
ATOM      4  C   UNL     1       1.413   9.314  18.598  0.00  0.00    +0.000 A 
ATOM      5  C   UNL     1       2.309   8.627  17.772  0.00  0.00    +0.000 A 
ATOM      6  C   UNL     1       2.924   7.463  18.218  0.00  0.00    +0.000 A 
ATOM      7  C   UNL     1       2.644   6.969  19.487  0.00  0.00    +0.000 A 
ATOM      8  C   UNL     1       1.739   7.649  20.317  0.00  0.00    +0.000 A 
BRANCH   3  10
ATOM      9  C   UNL     1       0.212   9.247  22.248  0.00  0.00    +0.000 C 
ATOM     10  C   UNL     1       0.144   9.516  20.766  0.00  0.00    +0.000 C 
ATOM     11  O   UNL     1      -0.683  10.292  20.284  0.00  0.00    +0.000 OA
ENDBRANCH   3  10
ENDBRANCH   2   6
ENDBRANCH   1   2
BRANCH   1  12
ATOM     12  C   UNL     1       4.149   4.506  17.027  0.00  0.00    +0.000 C 
BRANCH  12  13
ATOM     13  O   UNL     1       5.123   4.203  16.017  0.00  0.00    +0.000 OA
ATOM     14  H   UNL     1       4.824   3.379  15.587  0.00  0.00    +0.000 HD
ENDBRANCH  12  13
BRANCH  12  15
ATOM     15  C   UNL     1       4.003   3.287  17.965  0.00  0.00    +0.000 C 
BRANCH  15  16
ATOM     16  N   UNL     1       3.167   3.519  19.157  0.00  0.00    +0.000 NA
ATOM     17  C   UNL     1       1.734   3.429  18.833  0.00  0.00    +0.000 C 
ATOM     18  C   UNL     1       0.867   3.721  20.053  0.00  0.00    +0.000 C 
ATOM     19  C   UNL     1       1.206   2.786  21.204  0.00  0.00    +0.000 C 
ATOM     20  C   UNL     1       2.703   2.821  21.491  0.00  0.00    +0.000 C 
ATOM     21  C   UNL     1       3.522   2.569  20.224  0.00  0.00    +0.000 C 
ENDBRANCH  15  16
ENDBRANCH  12  15
ENDBRANCH   1  12
TORSDOF 7
ENDMDL
MODEL 5
REMARK VINA RESULT:      -6.4      1.255      1.498
REMARK  Name = 
REMARK  8 active torsions:
REMARK  status: ('A' for Active; 'I' for Inactive)
REMARK    1  A    between atoms: C_1  and  C_2
REMARK    2  A    between atoms: C_2  and  C_4
REMARK    3  A    between atoms: C_7  and  O_8
REMARK    4  A    between atoms: O_8  and  C_9
REMARK    5  A    between atoms: C_9  and  C_10
REMARK    6  A    between atoms: C_10  and  O_11
REMARK    7  A    between atoms: C_10  and  C_12
REMARK    8  A    between atoms: C_12  and  N_13
REMARK                            x       y       z     vdW  Elec       q    Type
REMARK                         _______ _______ _______ _____ _____    ______ ____
ROOT
ATOM      1  C   UNL     1       6.313   6.049  16.873  0.00  0.00    +0.000 C 
ENDROOT
BRANCH   1   2
ATOM      2  O   UNL     1       7.331   5.656  15.950  0.00  0.00    +0.000 OA
BRANCH   2   6
ATOM      3  C   UNL     1       5.755   3.522  12.739  0.00  0.00    +0.000 A 
ATOM      4  C   UNL     1       5.121   3.569  13.983  0.00  0.00    +0.000 A 
ATOM      5  C   UNL     1       5.697   4.286  15.036  0.00  0.00    +0.000 A 
ATOM      6  C   UNL     1       6.909   4.944  14.857  0.00  0.00    +0.000 A 
ATOM      7  C   UNL     1       7.551   4.898  13.625  0.00  0.00    +0.000 A 
ATOM      8  C   UNL     1       6.973   4.188  12.562  0.00  0.00    +0.000 A 
BRANCH   3  10
ATOM      9  C   UNL     1       3.931   3.380  10.922  0.00  0.00    +0.000 C 
ATOM     10  C   UNL     1       5.150   2.791  11.585  0.00  0.00    +0.000 C 
ATOM     11  O   UNL     1       5.656   1.736  11.196  0.00  0.00    +0.000 OA
ENDBRANCH   3  10
ENDBRANCH   2   6
ENDBRANCH   1   2
BRANCH   1  12
ATOM     12  C   UNL     1       6.038   4.867  17.817  0.00  0.00    +0.000 C 
BRANCH  12  13
ATOM     13  O   UNL     1       7.279   4.282  18.242  0.00  0.00    +0.000 OA
ATOM     14  H   UNL     1       7.083   3.349  18.452  0.00  0.00    +0.000 HD
ENDBRANCH  12  13
BRANCH  12  15
ATOM     15  C   UNL     1       5.220   5.269  19.064  0.00  0.00    +0.000 C 
BRANCH  15  16
ATOM     16  N   UNL     1       3.762   5.090  18.932  0.00  0.00    +0.000 NA
ATOM     17  C   UNL     1       3.436   4.050  17.944  0.00  0.00    +0.000 C 
ATOM     18  C   UNL     1       1.929   3.900  17.768  0.00  0.00    +0.000 C 
ATOM     19  C   UNL     1       1.250   3.597  19.095  0.00  0.00    +0.000 C 
ATOM     20  C   UNL     1       1.645   4.632  20.141  0.00  0.00    +0.000 C 
ATOM     21  C   UNL     1       3.165   4.773  20.241  0.00  0.00    +0.000 C 
ENDBRANCH  15  16
ENDBRANCH  12  15
ENDBRANCH   1  12
TORSDOF 7
ENDMDL
MODEL 6
REMARK VINA RESULT:      -6.2      1.481      2.020
REMARK  Name = 
REMARK  8 active torsions:
REMARK  status: ('A' for Active; 'I' for Inactive)
REMARK    1  A    between atoms: C_1  and  C_2
REMARK    2  A    between atoms: C_2  and  C_4
REMARK    3  A    between atoms: C_7  and  O_8
REMARK    4  A    between atoms: O_8  and  C_9
REMARK    5  A    between atoms: C_9  and  C_10
REMARK    6  A    between atoms: C_10  and  O_11
REMARK    7  A    between atoms: C_10  and  C_12
REMARK    8  A    between atoms: C_12  and  N_13
REMARK                            x       y       z     vdW  Elec       q    Type
REMARK                         _______ _______ _______ _____ _____    ______ ____
ROOT
ATOM      1  C   UNL     1       6.438   6.166  17.751  0.00  0.00    +0.000 C 
ENDROOT
BRANCH   1   2
ATOM      2  O   UNL     1       7.332   5.457  16.889  0.00  0.00    +0.000 OA
BRANCH   2   6
ATOM      3  C   UNL     1       5.919   3.773  13.352  0.00  0.00    +0.000 A 
ATOM      4  C   UNL     1       7.087   4.537  13.395  0.00  0.00    +0.000 A 
ATOM      5  C   UNL     1       7.514   5.095  14.604  0.00  0.00    +0.000 A 
ATOM      6  C   UNL     1       6.772   4.907  15.765  0.00  0.00    +0.000 A 
ATOM      7  C   UNL     1       5.604   4.153  15.731  0.00  0.00    +0.000 A 
ATOM      8  C   UNL     1       5.176   3.582  14.522  0.00  0.00    +0.000 A 
BRANCH   3  10
ATOM      9  C   UNL     1       6.330   2.092  11.440  0.00  0.00    +0.000 C 
ATOM     10  C   UNL     1       5.453   3.137  12.083  0.00  0.00    +0.000 C 
ATOM     11  O   UNL     1       4.371   3.467  11.593  0.00  0.00    +0.000 OA
ENDBRANCH   3  10
ENDBRANCH   2   6
ENDBRANCH   1   2
BRANCH   1  12
ATOM     12  C   UNL     1       5.951   5.197  18.840  0.00  0.00    +0.000 C 
BRANCH  12  13
ATOM     13  O   UNL     1       6.867   5.202  19.945  0.00  0.00    +0.000 OA
ATOM     14  H   UNL     1       6.833   4.307  20.333  0.00  0.00    +0.000 HD
ENDBRANCH  12  13
BRANCH  12  15
ATOM     15  C   UNL     1       4.536   5.537  19.360  0.00  0.00    +0.000 C 
BRANCH  15  16
ATOM     16  N   UNL     1       3.603   4.396  19.410  0.00  0.00    +0.000 NA
ATOM     17  C   UNL     1       2.674   4.510  20.545  0.00  0.00    +0.000 C 
ATOM     18  C   UNL     1       1.744   3.305  20.629  0.00  0.00    +0.000 C 
ATOM     19  C   UNL     1       0.971   3.118  19.333  0.00  0.00    +0.000 C 
ATOM     20  C   UNL     1       1.927   3.074  18.147  0.00  0.00    +0.000 C 
ATOM     21  C   UNL     1       2.866   4.282  18.141  0.00  0.00    +0.000 C 
ENDBRANCH  15  16
ENDBRANCH  12  15
ENDBRANCH   1  12
TORSDOF 7
ENDMDL
MODEL 7
REMARK VINA RESULT:      -6.2      3.788      6.830
REMARK  Name = 
REMARK  8 active torsions:
REMARK  status: ('A' for Active; 'I' for Inactive)
REMARK    1  A    between atoms: C_1  and  C_2
REMARK    2  A    between atoms: C_2  and  C_4
REMARK    3  A    between atoms: C_7  and  O_8
REMARK    4  A    between atoms: O_8  and  C_9
REMARK    5  A    between atoms: C_9  and  C_10
REMARK    6  A    between atoms: C_10  and  O_11
REMARK    7  A    between atoms: C_10  and  C_12
REMARK    8  A    between atoms: C_12  and  N_13
REMARK                            x       y       z     vdW  Elec       q    Type
REMARK                         _______ _______ _______ _____ _____    ______ ____
ROOT
ATOM      1  C   UNL     1       4.408   5.362  17.252  0.00  0.00    +0.000 C 
ENDROOT
BRANCH   1   2
ATOM      2  O   UNL     1       4.202   5.891  18.565  0.00  0.00    +0.000 OA
BRANCH   2   6
ATOM      3  C   UNL     1       1.328   8.833  19.216  0.00  0.00    +0.000 A 
ATOM      4  C   UNL     1       1.671   7.900  20.198  0.00  0.00    +0.000 A 
ATOM      5  C   UNL     1       2.631   6.920  19.927  0.00  0.00    +0.000 A 
ATOM      6  C   UNL     1       3.239   6.859  18.678  0.00  0.00    +0.000 A 
ATOM      7  C   UNL     1       2.900   7.780  17.692  0.00  0.00    +0.000 A 
ATOM      8  C   UNL     1       1.943   8.771  17.961  0.00  0.00    +0.000 A 
BRANCH   3  10
ATOM      9  C   UNL     1      -0.459  10.464  18.325  0.00  0.00    +0.000 C 
ATOM     10  C   UNL     1       0.329   9.911  19.485  0.00  0.00    +0.000 C 
ATOM     11  O   UNL     1       0.162  10.318  20.637  0.00  0.00    +0.000 OA
ENDBRANCH   3  10
ENDBRANCH   2   6
ENDBRANCH   1   2
BRANCH   1  12
ATOM     12  C   UNL     1       4.907   3.915  17.390  0.00  0.00    +0.000 C 
BRANCH  12  13
ATOM     13  O   UNL     1       5.968   3.853  18.356  0.00  0.00    +0.000 OA
ATOM     14  H   UNL     1       5.670   4.377  19.124  0.00  0.00    +0.000 HD
ENDBRANCH  12  13
BRANCH  12  15
ATOM     15  C   UNL     1       3.792   2.930  17.807  0.00  0.00    +0.000 C 
BRANCH  15  16
ATOM     16  N   UNL     1       3.069   3.297  19.038  0.00  0.00    +0.000 NA
ATOM     17  C   UNL     1       1.615   3.331  18.818  0.00  0.00    +0.000 C 
ATOM     18  C   UNL     1       0.869   3.762  20.076  0.00  0.00    +0.000 C 
ATOM     19  C   UNL     1       1.203   2.854  21.249  0.00  0.00    +0.000 C 
ATOM     20  C   UNL     1       2.713   2.758  21.433  0.00  0.00    +0.000 C 
ATOM     21  C   UNL     1       3.411   2.369  20.129  0.00  0.00    +0.000 C 
ENDBRANCH  15  16
ENDBRANCH  12  15
ENDBRANCH   1  12
TORSDOF 7
ENDMDL
MODEL 8
REMARK VINA RESULT:      -6.2      3.750      6.648
REMARK  Name = 
REMARK  8 active torsions:
REMARK  status: ('A' for Active; 'I' for Inactive)
REMARK    1  A    between atoms: C_1  and  C_2
REMARK    2  A    between atoms: C_2  and  C_4
REMARK    3  A    between atoms: C_7  and  O_8
REMARK    4  A    between atoms: O_8  and  C_9
REMARK    5  A    between atoms: C_9  and  C_10
REMARK    6  A    between atoms: C_10  and  O_11
REMARK    7  A    between atoms: C_10  and  C_12
REMARK    8  A    between atoms: C_12  and  N_13
REMARK                            x       y       z     vdW  Elec       q    Type
REMARK                         _______ _______ _______ _____ _____    ______ ____
ROOT
ATOM      1  C   UNL     1       3.979   4.604  16.877  0.00  0.00    +0.000 C 
ENDROOT
BRANCH   1   2
ATOM      2  O   UNL     1       4.559   5.691  17.602  0.00  0.00    +0.000 OA
BRANCH   2   6
ATOM      3  C   UNL     1       1.804   8.392  19.171  0.00  0.00    +0.000 A 
ATOM      4  C   UNL     1       2.462   8.622  17.960  0.00  0.00    +0.000 A 
ATOM      5  C   UNL     1       3.390   7.692  17.481  0.00  0.00    +0.000 A 
ATOM      6  C   UNL     1       3.676   6.545  18.212  0.00  0.00    +0.000 A 
ATOM      7  C   UNL     1       3.032   6.311  19.422  0.00  0.00    +0.000 A 
ATOM      8  C   UNL     1       2.092   7.235  19.903  0.00  0.00    +0.000 A 
BRANCH   3  10
ATOM      9  C   UNL     1       0.004  10.179  18.705  0.00  0.00    +0.000 C 
ATOM     10  C   UNL     1       0.784   9.350  19.694  0.00  0.00    +0.000 C 
ATOM     11  O   UNL     1       0.594   9.439  20.909  0.00  0.00    +0.000 OA
ENDBRANCH   3  10
ENDBRANCH   2   6
ENDBRANCH   1   2
BRANCH   1  12
ATOM     12  C   UNL     1       4.696   3.311  17.297  0.00  0.00    +0.000 C 
BRANCH  12  13
ATOM     13  O   UNL     1       5.805   3.622  18.154  0.00  0.00    +0.000 OA
ATOM     14  H   UNL     1       5.914   4.591  18.120  0.00  0.00    +0.000 HD
ENDBRANCH  12  13
BRANCH  12  15
ATOM     15  C   UNL     1       3.764   2.314  18.023  0.00  0.00    +0.000 C 
BRANCH  15  16
ATOM     16  N   UNL     1       2.934   2.905  19.088  0.00  0.00    +0.000 NA
ATOM     17  C   UNL     1       1.520   2.529  18.938  0.00  0.00    +0.000 C 
ATOM     18  C   UNL     1       0.652   3.183  20.008  0.00  0.00    +0.000 C 
ATOM     19  C   UNL     1       1.145   2.832  21.403  0.00  0.00    +0.000 C 
ATOM     20  C   UNL     1       2.629   3.151  21.537  0.00  0.00    +0.000 C 
ATOM     21  C   UNL     1       3.443   2.509  20.412  0.00  0.00    +0.000 C 
ENDBRANCH  15  16
ENDBRANCH  12  15
ENDBRANCH   1  12
TORSDOF 7
ENDMDL
MODEL 9
REMARK VINA RESULT:      -6.2      1.222      1.411
REMARK  Name = 
REMARK  8 active torsions:
REMARK  status: ('A' for Active; 'I' for Inactive)
REMARK    1  A    between atoms: C_1  and  C_2
REMARK    2  A    between atoms: C_2  and  C_4
REMARK    3  A    between atoms: C_7  and  O_8
REMARK    4  A    between atoms: O_8  and  C_9
REMARK    5  A    between atoms: C_9  and  C_10
REMARK    6  A    between atoms: C_10  and  O_11
REMARK    7  A    between atoms: C_10  and  C_12
REMARK    8  A    between atoms: C_12  and  N_13
REMARK                            x       y       z     vdW  Elec       q    Type
REMARK                         _______ _______ _______ _____ _____    ______ ____
ROOT
ATOM      1  C   UNL     1       6.547   5.807  17.551  0.00  0.00    +0.000 C 
ENDROOT
BRANCH   1   2
ATOM      2  O   UNL     1       7.555   5.389  16.628  0.00  0.00    +0.000 OA
BRANCH   2   6
ATOM      3  C   UNL     1       5.915   3.675  13.205  0.00  0.00    +0.000 A 
ATOM      4  C   UNL     1       5.473   3.340  14.487  0.00  0.00    +0.000 A 
ATOM      5  C   UNL     1       6.066   3.931  15.608  0.00  0.00    +0.000 A 
ATOM      6  C   UNL     1       7.105   4.841  15.454  0.00  0.00    +0.000 A 
ATOM      7  C   UNL     1       7.557   5.176  14.182  0.00  0.00    +0.000 A 
ATOM      8  C   UNL     1       6.960   4.593  13.054  0.00  0.00    +0.000 A 
BRANCH   3  10
ATOM      9  C   UNL     1       5.873   1.824  11.410  0.00  0.00    +0.000 C 
ATOM     10  C   UNL     1       5.282   3.085  11.987  0.00  0.00    +0.000 C 
ATOM     11  O   UNL     1       4.294   3.627  11.487  0.00  0.00    +0.000 OA
ENDBRANCH   3  10
ENDBRANCH   2   6
ENDBRANCH   1   2
BRANCH   1  12
ATOM     12  C   UNL     1       6.681   4.960  18.826  0.00  0.00    +0.000 C 
BRANCH  12  13
ATOM     13  O   UNL     1       7.516   5.637  19.778  0.00  0.00    +0.000 OA
ATOM     14  H   UNL     1       8.290   5.059  19.923  0.00  0.00    +0.000 HD
ENDBRANCH  12  13
BRANCH  12  15
ATOM     15  C   UNL     1       5.320   4.646  19.488  0.00  0.00    +0.000 C 
BRANCH  15  16
ATOM     16  N   UNL     1       4.188   4.528  18.550  0.00  0.00    +0.000 NA
ATOM     17  C   UNL     1       3.753   3.130  18.408  0.00  0.00    +0.000 C 
ATOM     18  C   UNL     1       2.617   2.999  17.398  0.00  0.00    +0.000 C 
ATOM     19  C   UNL     1       1.439   3.880  17.781  0.00  0.00    +0.000 C 
ATOM     20  C   UNL     1       1.901   5.316  18.002  0.00  0.00    +0.000 C 
ATOM     21  C   UNL     1       3.071   5.381  18.986  0.00  0.00    +0.000 C 
ENDBRANCH  15  16
ENDBRANCH  12  15
ENDBRANCH   1  12
TORSDOF 7
ENDMDL
