MODEL 1
REMARK VINA RESULT:      -8.2      0.000      0.000
REMARK  Name = 
REMARK  4 active torsions:
REMARK  status: ('A' for Active; 'I' for Inactive)
REMARK    1  A    between atoms: C_1  and  C_2
REMARK    2  A    between atoms: C_2  and  N_3
REMARK    3  A    between atoms: C_6  and  C_7
REMARK    4  A    between atoms: N_9  and  C_10
REMARK                            x       y       z     vdW  Elec       q    Type
REMARK                         _______ _______ _______ _____ _____    ______ ____
ROOT
ATOM      1  N   UNL     1      -0.877  11.616  20.017  0.00  0.00    +0.000 N 
ATOM      2  C   UNL     1       0.008  10.537  20.251  0.00  0.00    +0.000 A 
ATOM      3  C   UNL     1       0.667   9.834  19.232  0.00  0.00    +0.000 A 
ATOM      4  C   UNL     1       1.548   8.764  19.507  0.00  0.00    +0.000 A 
ATOM      5  C   UNL     1       1.781   8.361  20.822  0.00  0.00    +0.000 A 
ATOM      6  C   UNL     1       1.108   9.005  21.853  0.00  0.00    +0.000 A 
ATOM      7  C   UNL     1       0.230  10.064  21.564  0.00  0.00    +0.000 A 
ATOM      8  C   UNL     1      -0.597  10.613  22.659  0.00  0.00    +0.000 C 
ATOM      9  O   UNL     1      -0.665  10.064  23.751  0.00  0.00    +0.000 OA
ATOM     10  N   UNL     1      -1.342  11.703  22.302  0.00  0.00    +0.000 N 
ATOM     11  C   UNL     1      -2.497  12.135  23.035  0.00  0.00    +0.000 C 
ATOM     12  C   UNL     1      -3.169  13.164  22.153  0.00  0.00    +0.000 C 
ATOM     13  C   UNL     1      -2.132  13.560  21.105  0.00  0.00    +0.000 C 
ATOM     14  C   UNL     1      -1.015  12.513  21.165  0.00  0.00    +0.000 C 
ENDROOT
BRANCH   4  15
ATOM     15  C   UNL     1       2.242   8.126  18.362  0.00  0.00    +0.000 C 
ATOM     16  O   UNL     1       2.061   8.607  17.249  0.00  0.00    +0.000 OA
ATOM     17  N   UNL     1       2.974   6.984  18.654  0.00  0.00    +0.000 N 
ATOM     18  H   UNL     1       2.871   6.594  19.584  0.00  0.00    +0.000 HD
BRANCH  17  19
ATOM     19  C   UNL     1       3.659   6.183  17.714  0.00  0.00    +0.000 A 
ATOM     20  C   UNL     1       3.430   4.812  17.565  0.00  0.00    +0.000 A 
ATOM     21  C   UNL     1       4.206   4.049  16.688  0.00  0.00    +0.000 A 
ATOM     22  C   UNL     1       5.209   4.660  15.943  0.00  0.00    +0.000 A 
ATOM     23 CL   UNL     1       6.207   3.712  14.913  0.00  0.00    +0.000 Cl
ATOM     24  C   UNL     1       5.413   6.035  16.039  0.00  0.00    +0.000 A 
ATOM     25  C   UNL     1       4.630   6.797  16.913  0.00  0.00    +0.000 A 
ENDBRANCH  17  19
ENDBRANCH   4  15
BRANCH   1  27
ATOM     26  C   UNL     1      -2.193  11.580  17.971  0.00  0.00    +0.000 C 
ATOM     27  C   UNL     1      -0.985  12.192  18.672  0.00  0.00    +0.000 C 
ENDBRANCH   1  27
TORSDOF 3
ENDMDL
MODEL 2
REMARK VINA RESULT:      -7.9      0.924      1.020
REMARK  Name = 
REMARK  4 active torsions:
REMARK  status: ('A' for Active; 'I' for Inactive)
REMARK    1  A    between atoms: C_1  and  C_2
REMARK    2  A    between atoms: C_2  and  N_3
REMARK    3  A    between atoms: C_6  and  C_7
REMARK    4  A    between atoms: N_9  and  C_10
REMARK                            x       y       z     vdW  Elec       q    Type
REMARK                         _______ _______ _______ _____ _____    ______ ____
ROOT
ATOM      1  N   UNL     1       0.266  12.400  20.377  0.00  0.00    +0.000 N 
ATOM      2  C   UNL     1       0.585  11.025  20.464  0.00  0.00    +0.000 A 
ATOM      3  C   UNL     1       1.197  10.299  19.431  0.00  0.00    +0.000 A 
ATOM      4  C   UNL     1       1.505   8.927  19.558  0.00  0.00    +0.000 A 
ATOM      5  C   UNL     1       1.191   8.238  20.730  0.00  0.00    +0.000 A 
ATOM      6  C   UNL     1       0.541   8.915  21.755  0.00  0.00    +0.000 A 
ATOM      7  C   UNL     1       0.237  10.279  21.612  0.00  0.00    +0.000 A 
ATOM      8  C   UNL     1      -0.603  10.926  22.643  0.00  0.00    +0.000 C 
ATOM      9  O   UNL     1      -1.175  10.275  23.508  0.00  0.00    +0.000 OA
ATOM     10  N   UNL     1      -0.760  12.273  22.470  0.00  0.00    +0.000 N 
ATOM     11  C   UNL     1      -1.830  13.019  23.065  0.00  0.00    +0.000 C 
ATOM     12  C   UNL     1      -1.797  14.374  22.393  0.00  0.00    +0.000 C 
ATOM     13  C   UNL     1      -0.436  14.469  21.707  0.00  0.00    +0.000 C 
ATOM     14  C   UNL     1       0.150  13.053  21.682  0.00  0.00    +0.000 C 
ENDROOT
BRANCH   4  15
ATOM     15  C   UNL     1       2.207   8.266  18.431  0.00  0.00    +0.000 C 
ATOM     16  O   UNL     1       2.066   8.749  17.313  0.00  0.00    +0.000 OA
ATOM     17  N   UNL     1       2.900   7.106  18.743  0.00  0.00    +0.000 N 
ATOM     18  H   UNL     1       2.765   6.720  19.670  0.00  0.00    +0.000 HD
BRANCH  17  19
ATOM     19  C   UNL     1       3.585   6.284  17.820  0.00  0.00    +0.000 A 
ATOM     20  C   UNL     1       3.303   4.925  17.649  0.00  0.00    +0.000 A 
ATOM     21  C   UNL     1       4.077   4.137  16.794  0.00  0.00    +0.000 A 
ATOM     22  C   UNL     1       5.132   4.710  16.092  0.00  0.00    +0.000 A 
ATOM     23 CL   UNL     1       6.126   3.728  15.090  0.00  0.00    +0.000 Cl
ATOM     24  C   UNL     1       5.392   6.073  16.209  0.00  0.00    +0.000 A 
ATOM     25  C   UNL     1       4.610   6.862  17.062  0.00  0.00    +0.000 A 
ENDBRANCH  17  19
ENDBRANCH   4  15
BRANCH   1  27
ATOM     26  C   UNL     1      -0.359  13.353  18.227  0.00  0.00    +0.000 C 
ATOM     27  C   UNL     1       0.763  13.194  19.248  0.00  0.00    +0.000 C 
ENDBRANCH   1  27
TORSDOF 3
ENDMDL
MODEL 3
REMARK VINA RESULT:      -7.8      0.781      1.274
REMARK  Name = 
REMARK  4 active torsions:
REMARK  status: ('A' for Active; 'I' for Inactive)
REMARK    1  A    between atoms: C_1  and  C_2
REMARK    2  A    between atoms: C_2  and  N_3
REMARK    3  A    between atoms: C_6  and  C_7
REMARK    4  A    between atoms: N_9  and  C_10
REMARK                            x       y       z     vdW  Elec       q    Type
REMARK                         _______ _______ _______ _____ _____    ______ ____
ROOT
ATOM      1  N   UNL     1       0.180  12.151  20.257  0.00  0.00    +0.000 N 
ATOM      2  C   UNL     1       0.612  10.808  20.357  0.00  0.00    +0.000 A 
ATOM      3  C   UNL     1       1.259  10.116  19.323  0.00  0.00    +0.000 A 
ATOM      4  C   UNL     1       1.680   8.775  19.464  0.00  0.00    +0.000 A 
ATOM      5  C   UNL     1       1.446   8.083  20.653  0.00  0.00    +0.000 A 
ATOM      6  C   UNL     1       0.764   8.723  21.682  0.00  0.00    +0.000 A 
ATOM      7  C   UNL     1       0.348  10.056  21.524  0.00  0.00    +0.000 A 
ATOM      8  C   UNL     1      -0.520  10.650  22.563  0.00  0.00    +0.000 C 
ATOM      9  O   UNL     1      -1.019   9.970  23.450  0.00  0.00    +0.000 OA
ATOM     10  N   UNL     1      -0.789  11.977  22.373  0.00  0.00    +0.000 N 
ATOM     11  C   UNL     1      -1.904  12.645  22.980  0.00  0.00    +0.000 C 
ATOM     12  C   UNL     1      -1.994  13.986  22.286  0.00  0.00    +0.000 C 
ATOM     13  C   UNL     1      -0.659  14.178  21.570  0.00  0.00    +0.000 C 
ATOM     14  C   UNL     1       0.038  12.814  21.554  0.00  0.00    +0.000 C 
ENDROOT
BRANCH   4  15
ATOM     15  C   UNL     1       2.410   8.154  18.332  0.00  0.00    +0.000 C 
ATOM     16  O   UNL     1       2.195   8.595  17.209  0.00  0.00    +0.000 OA
ATOM     17  N   UNL     1       3.215   7.070  18.650  0.00  0.00    +0.000 N 
ATOM     18  H   UNL     1       3.140   6.697  19.588  0.00  0.00    +0.000 HD
BRANCH  17  19
ATOM     19  C   UNL     1       3.947   6.292  17.726  0.00  0.00    +0.000 A 
ATOM     20  C   UNL     1       4.992   6.805  16.950  0.00  0.00    +0.000 A 
ATOM     21  C   UNL     1       5.616   6.016  15.981  0.00  0.00    +0.000 A 
ATOM     22  C   UNL     1       5.207   4.701  15.792  0.00  0.00    +0.000 A 
ATOM     23 CL   UNL     1       5.930   3.750  14.555  0.00  0.00    +0.000 Cl
ATOM     24  C   UNL     1       4.206   4.157  16.594  0.00  0.00    +0.000 A 
ATOM     25  C   UNL     1       3.586   4.948  17.568  0.00  0.00    +0.000 A 
ENDBRANCH  17  19
ENDBRANCH   4  15
BRANCH   1  27
ATOM     26  C   UNL     1      -0.591  13.084  18.146  0.00  0.00    +0.000 C 
ATOM     27  C   UNL     1       0.588  12.963  19.105  0.00  0.00    +0.000 C 
ENDBRANCH   1  27
TORSDOF 3
ENDMDL
MODEL 4
REMARK VINA RESULT:      -7.8      3.761      8.991
REMARK  Name = 
REMARK  4 active torsions:
REMARK  status: ('A' for Active; 'I' for Inactive)
REMARK    1  A    between atoms: C_1  and  C_2
REMARK    2  A    between atoms: C_2  and  N_3
REMARK    3  A    between atoms: C_6  and  C_7
REMARK    4  A    between atoms: N_9  and  C_10
REMARK                            x       y       z     vdW  Elec       q    Type
REMARK                         _______ _______ _______ _____ _____    ______ ____
ROOT
ATOM      1  N   UNL     1       2.748   4.636  19.654  0.00  0.00    +0.000 N 
ATOM      2  C   UNL     1       2.810   5.896  19.013  0.00  0.00    +0.000 A 
ATOM      3  C   UNL     1       2.052   7.009  19.404  0.00  0.00    +0.000 A 
ATOM      4  C   UNL     1       2.146   8.252  18.740  0.00  0.00    +0.000 A 
ATOM      5  C   UNL     1       3.001   8.407  17.648  0.00  0.00    +0.000 A 
ATOM      6  C   UNL     1       3.731   7.311  17.204  0.00  0.00    +0.000 A 
ATOM      7  C   UNL     1       3.623   6.079  17.872  0.00  0.00    +0.000 A 
ATOM      8  C   UNL     1       4.277   4.895  17.275  0.00  0.00    +0.000 C 
ATOM      9  O   UNL     1       4.751   4.922  16.147  0.00  0.00    +0.000 OA
ATOM     10  N   UNL     1       4.200   3.769  18.047  0.00  0.00    +0.000 N 
ATOM     11  C   UNL     1       4.376   2.446  17.521  0.00  0.00    +0.000 C 
ATOM     12  C   UNL     1       3.928   1.512  18.624  0.00  0.00    +0.000 C 
ATOM     13  C   UNL     1       3.883   2.357  19.895  0.00  0.00    +0.000 C 
ATOM     14  C   UNL     1       3.950   3.824  19.458  0.00  0.00    +0.000 C 
ENDROOT
BRANCH   4  15
ATOM     15  C   UNL     1       1.347   9.384  19.270  0.00  0.00    +0.000 C 
ATOM     16  O   UNL     1       1.521  10.487  18.765  0.00  0.00    +0.000 OA
ATOM     17  N   UNL     1       0.529   9.095  20.352  0.00  0.00    +0.000 N 
ATOM     18  H   UNL     1       0.637   8.186  20.786  0.00  0.00    +0.000 HD
BRANCH  17  19
ATOM     19  C   UNL     1      -0.267  10.029  21.053  0.00  0.00    +0.000 A 
ATOM     20  C   UNL     1      -0.884  11.123  20.438  0.00  0.00    +0.000 A 
ATOM     21  C   UNL     1      -1.578  12.070  21.195  0.00  0.00    +0.000 A 
ATOM     22  C   UNL     1      -1.671  11.919  22.575  0.00  0.00    +0.000 A 
ATOM     23 CL   UNL     1      -2.468  13.118  23.514  0.00  0.00    +0.000 Cl
ATOM     24  C   UNL     1      -1.109  10.806  23.196  0.00  0.00    +0.000 A 
ATOM     25  C   UNL     1      -0.420   9.855  22.434  0.00  0.00    +0.000 A 
ENDBRANCH  17  19
ENDBRANCH   4  15
BRANCH   1  27
ATOM     26  C   UNL     1       0.835   3.562  20.707  0.00  0.00    +0.000 C 
ATOM     27  C   UNL     1       2.019   4.498  20.920  0.00  0.00    +0.000 C 
ENDBRANCH   1  27
TORSDOF 3
ENDMDL
MODEL 5
REMARK VINA RESULT:      -7.7      3.783      8.950
REMARK  Name = 
REMARK  4 active torsions:
REMARK  status: ('A' for Active; 'I' for Inactive)
REMARK    1  A    between atoms: C_1  and  C_2
REMARK    2  A    between atoms: C_2  and  N_3
REMARK    3  A    between atoms: C_6  and  C_7
REMARK    4  A    between atoms: N_9  and  C_10
REMARK                            x       y       z     vdW  Elec       q    Type
REMARK                         _______ _______ _______ _____ _____    ______ ____
ROOT
ATOM      1  N   UNL     1       2.620   4.740  19.629  0.00  0.00    +0.000 N 
ATOM      2  C   UNL     1       2.630   6.037  19.064  0.00  0.00    +0.000 A 
ATOM      3  C   UNL     1       1.787   7.077  19.482  0.00  0.00    +0.000 A 
ATOM      4  C   UNL     1       1.831   8.361  18.896  0.00  0.00    +0.000 A 
ATOM      5  C   UNL     1       2.721   8.633  17.855  0.00  0.00    +0.000 A 
ATOM      6  C   UNL     1       3.537   7.611  17.383  0.00  0.00    +0.000 A 
ATOM      7  C   UNL     1       3.478   6.337  17.974  0.00  0.00    +0.000 A 
ATOM      8  C   UNL     1       4.230   5.232  17.342  0.00  0.00    +0.000 C 
ATOM      9  O   UNL     1       4.750   5.356  16.241  0.00  0.00    +0.000 OA
ATOM     10  N   UNL     1       4.192   4.060  18.044  0.00  0.00    +0.000 N 
ATOM     11  C   UNL     1       4.473   2.784  17.451  0.00  0.00    +0.000 C 
ATOM     12  C   UNL     1       4.039   1.760  18.478  0.00  0.00    +0.000 C 
ATOM     13  C   UNL     1       3.885   2.524  19.791  0.00  0.00    +0.000 C 
ATOM     14  C   UNL     1       3.878   4.015  19.442  0.00  0.00    +0.000 C 
ENDROOT
BRANCH   4  15
ATOM     15  C   UNL     1       0.940   9.408  19.452  0.00  0.00    +0.000 C 
ATOM     16  O   UNL     1       0.248  10.041  18.663  0.00  0.00    +0.000 OA
ATOM     17  N   UNL     1       1.037   9.625  20.818  0.00  0.00    +0.000 N 
ATOM     18  H   UNL     1       1.793   9.163  21.309  0.00  0.00    +0.000 HD
BRANCH  17  19
ATOM     19  C   UNL     1       0.333  10.611  21.546  0.00  0.00    +0.000 A 
ATOM     20  C   UNL     1      -0.619  10.307  22.524  0.00  0.00    +0.000 A 
ATOM     21  C   UNL     1      -1.357  11.319  23.143  0.00  0.00    +0.000 A 
ATOM     22  C   UNL     1      -1.135  12.647  22.793  0.00  0.00    +0.000 A 
ATOM     23 CL   UNL     1      -2.088  13.888  23.506  0.00  0.00    +0.000 Cl
ATOM     24  C   UNL     1      -0.152  12.971  21.861  0.00  0.00    +0.000 A 
ATOM     25  C   UNL     1       0.590  11.954  21.248  0.00  0.00    +0.000 A 
ENDBRANCH  17  19
ENDBRANCH   4  15
BRANCH   1  27
ATOM     26  C   UNL     1       0.705   3.530  20.517  0.00  0.00    +0.000 C 
ATOM     27  C   UNL     1       1.848   4.483  20.849  0.00  0.00    +0.000 C 
ENDBRANCH   1  27
TORSDOF 3
ENDMDL
MODEL 6
REMARK VINA RESULT:      -7.5      2.186      3.174
REMARK  Name = 
REMARK  4 active torsions:
REMARK  status: ('A' for Active; 'I' for Inactive)
REMARK    1  A    between atoms: C_1  and  C_2
REMARK    2  A    between atoms: C_2  and  N_3
REMARK    3  A    between atoms: C_6  and  C_7
REMARK    4  A    between atoms: N_9  and  C_10
REMARK                            x       y       z     vdW  Elec       q    Type
REMARK                         _______ _______ _______ _____ _____    ______ ____
ROOT
ATOM      1  N   UNL     1      -3.122  10.613  17.735  0.00  0.00    +0.000 N 
ATOM      2  C   UNL     1      -1.849  10.716  18.344  0.00  0.00    +0.000 A 
ATOM      3  C   UNL     1      -0.735   9.956  17.958  0.00  0.00    +0.000 A 
ATOM      4  C   UNL     1       0.522  10.092  18.588  0.00  0.00    +0.000 A 
ATOM      5  C   UNL     1       0.690  10.992  19.642  0.00  0.00    +0.000 A 
ATOM      6  C   UNL     1      -0.405  11.726  20.082  0.00  0.00    +0.000 A 
ATOM      7  C   UNL     1      -1.650  11.576  19.448  0.00  0.00    +0.000 A 
ATOM      8  C   UNL     1      -2.829  12.239  20.045  0.00  0.00    +0.000 C 
ATOM      9  O   UNL     1      -2.782  12.759  21.152  0.00  0.00    +0.000 OA
ATOM     10  N   UNL     1      -3.971  12.118  19.304  0.00  0.00    +0.000 N 
ATOM     11  C   UNL     1      -5.284  12.299  19.853  0.00  0.00    +0.000 C 
ATOM     12  C   UNL     1      -6.236  11.796  18.790  0.00  0.00    +0.000 C 
ATOM     13  C   UNL     1      -5.420  11.710  17.503  0.00  0.00    +0.000 C 
ATOM     14  C   UNL     1      -3.945  11.812  17.903  0.00  0.00    +0.000 C 
ENDROOT
BRANCH   4  15
ATOM     15  C   UNL     1       1.651   9.286  18.064  0.00  0.00    +0.000 C 
ATOM     16  O   UNL     1       2.389   9.812  17.239  0.00  0.00    +0.000 OA
ATOM     17  N   UNL     1       1.716   7.972  18.506  0.00  0.00    +0.000 N 
ATOM     18  H   UNL     1       0.925   7.621  19.032  0.00  0.00    +0.000 HD
BRANCH  17  19
ATOM     19  C   UNL     1       2.665   7.012  18.090  0.00  0.00    +0.000 A 
ATOM     20  C   UNL     1       3.918   7.348  17.569  0.00  0.00    +0.000 A 
ATOM     21  C   UNL     1       4.778   6.361  17.081  0.00  0.00    +0.000 A 
ATOM     22  C   UNL     1       4.392   5.026  17.125  0.00  0.00    +0.000 A 
ATOM     23 CL   UNL     1       5.421   3.817  16.465  0.00  0.00    +0.000 Cl
ATOM     24  C   UNL     1       3.170   4.669  17.691  0.00  0.00    +0.000 A 
ATOM     25  C   UNL     1       2.314   5.659  18.185  0.00  0.00    +0.000 A 
ENDBRANCH  17  19
ENDBRANCH   4  15
BRANCH   1  27
ATOM     26  C   UNL     1      -2.917  10.714  15.313  0.00  0.00    +0.000 C 
ATOM     27  C   UNL     1      -3.279   9.833  16.503  0.00  0.00    +0.000 C 
ENDBRANCH   1  27
TORSDOF 3
ENDMDL
MODEL 7
REMARK VINA RESULT:      -7.5      2.407      3.147
REMARK  Name = 
REMARK  4 active torsions:
REMARK  status: ('A' for Active; 'I' for Inactive)
REMARK    1  A    between atoms: C_1  and  C_2
REMARK    2  A    between atoms: C_2  and  N_3
REMARK    3  A    between atoms: C_6  and  C_7
REMARK    4  A    between atoms: N_9  and  C_10
REMARK                            x       y       z     vdW  Elec       q    Type
REMARK                         _______ _______ _______ _____ _____    ______ ____
ROOT
ATOM      1  N   UNL     1      -0.245  10.686  21.555  0.00  0.00    +0.000 N 
ATOM      2  C   UNL     1       0.520  10.620  20.366  0.00  0.00    +0.000 A 
ATOM      3  C   UNL     1       1.123   9.447  19.889  0.00  0.00    +0.000 A 
ATOM      4  C   UNL     1       1.876   9.422  18.694  0.00  0.00    +0.000 A 
ATOM      5  C   UNL     1       2.056  10.587  17.948  0.00  0.00    +0.000 A 
ATOM      6  C   UNL     1       1.513  11.778  18.417  0.00  0.00    +0.000 A 
ATOM      7  C   UNL     1       0.771  11.788  19.610  0.00  0.00    +0.000 A 
ATOM      8  C   UNL     1       0.354  13.091  20.170  0.00  0.00    +0.000 C 
ATOM      9  O   UNL     1       0.780  14.148  19.723  0.00  0.00    +0.000 OA
ATOM     10  N   UNL     1      -0.446  12.993  21.274  0.00  0.00    +0.000 N 
ATOM     11  C   UNL     1      -0.624  14.066  22.210  0.00  0.00    +0.000 C 
ATOM     12  C   UNL     1      -1.329  13.449  23.398  0.00  0.00    +0.000 C 
ATOM     13  C   UNL     1      -1.878  12.110  22.911  0.00  0.00    +0.000 C 
ATOM     14  C   UNL     1      -1.188  11.804  21.578  0.00  0.00    +0.000 C 
ENDROOT
BRANCH   4  15
ATOM     15  C   UNL     1       2.421   8.118  18.245  0.00  0.00    +0.000 C 
ATOM     16  O   UNL     1       2.969   8.079  17.149  0.00  0.00    +0.000 OA
ATOM     17  N   UNL     1       2.184   7.039  19.085  0.00  0.00    +0.000 N 
ATOM     18  H   UNL     1       1.548   7.185  19.859  0.00  0.00    +0.000 HD
BRANCH  17  19
ATOM     19  C   UNL     1       2.555   5.700  18.827  0.00  0.00    +0.000 A 
ATOM     20  C   UNL     1       1.862   4.871  17.939  0.00  0.00    +0.000 A 
ATOM     21  C   UNL     1       2.212   3.526  17.797  0.00  0.00    +0.000 A 
ATOM     22  C   UNL     1       3.269   3.005  18.535  0.00  0.00    +0.000 A 
ATOM     23 CL   UNL     1       3.658   1.335  18.410  0.00  0.00    +0.000 Cl
ATOM     24  C   UNL     1       4.005   3.831  19.382  0.00  0.00    +0.000 A 
ATOM     25  C   UNL     1       3.656   5.180  19.518  0.00  0.00    +0.000 A 
ENDBRANCH  17  19
ENDBRANCH   4  15
BRANCH   1  27
ATOM     26  C   UNL     1       0.228   9.312  23.507  0.00  0.00    +0.000 C 
ATOM     27  C   UNL     1      -0.621   9.448  22.248  0.00  0.00    +0.000 C 
ENDBRANCH   1  27
TORSDOF 3
ENDMDL
MODEL 8
REMARK VINA RESULT:      -7.5      2.408      3.026
REMARK  Name = 
REMARK  4 active torsions:
REMARK  status: ('A' for Active; 'I' for Inactive)
REMARK    1  A    between atoms: C_1  and  C_2
REMARK    2  A    between atoms: C_2  and  N_3
REMARK    3  A    between atoms: C_6  and  C_7
REMARK    4  A    between atoms: N_9  and  C_10
REMARK                            x       y       z     vdW  Elec       q    Type
REMARK                         _______ _______ _______ _____ _____    ______ ____
ROOT
ATOM      1  N   UNL     1       0.560  12.770  20.817  0.00  0.00    +0.000 N 
ATOM      2  C   UNL     1       0.379  11.432  21.239  0.00  0.00    +0.000 A 
ATOM      3  C   UNL     1       0.970  10.328  20.608  0.00  0.00    +0.000 A 
ATOM      4  C   UNL     1       0.769   9.006  21.064  0.00  0.00    +0.000 A 
ATOM      5  C   UNL     1      -0.049   8.756  22.167  0.00  0.00    +0.000 A 
ATOM      6  C   UNL     1      -0.688   9.823  22.787  0.00  0.00    +0.000 A 
ATOM      7  C   UNL     1      -0.482  11.132  22.319  0.00  0.00    +0.000 A 
ATOM      8  C   UNL     1      -1.304  12.221  22.887  0.00  0.00    +0.000 C 
ATOM      9  O   UNL     1      -2.262  11.991  23.614  0.00  0.00    +0.000 OA
ATOM     10  N   UNL     1      -0.962  13.468  22.442  0.00  0.00    +0.000 N 
ATOM     11  C   UNL     1      -1.847  14.594  22.513  0.00  0.00    +0.000 C 
ATOM     12  C   UNL     1      -1.199  15.668  21.667  0.00  0.00    +0.000 C 
ATOM     13  C   UNL     1       0.248  15.224  21.463  0.00  0.00    +0.000 C 
ATOM     14  C   UNL     1       0.325  13.751  21.877  0.00  0.00    +0.000 C 
ENDROOT
BRANCH   4  15
ATOM     15  C   UNL     1       1.487   7.914  20.363  0.00  0.00    +0.000 C 
ATOM     16  O   UNL     1       1.978   8.169  19.269  0.00  0.00    +0.000 OA
ATOM     17  N   UNL     1       1.465   6.674  20.986  0.00  0.00    +0.000 N 
ATOM     18  H   UNL     1       0.854   6.569  21.787  0.00  0.00    +0.000 HD
BRANCH  17  19
ATOM     19  C   UNL     1       2.026   5.485  20.470  0.00  0.00    +0.000 A 
ATOM     20  C   UNL     1       3.307   5.422  19.912  0.00  0.00    +0.000 A 
ATOM     21  C   UNL     1       3.774   4.243  19.327  0.00  0.00    +0.000 A 
ATOM     22  C   UNL     1       2.964   3.112  19.309  0.00  0.00    +0.000 A 
ATOM     23 CL   UNL     1       3.512   1.680  18.531  0.00  0.00    +0.000 Cl
ATOM     24  C   UNL     1       1.708   3.143  19.909  0.00  0.00    +0.000 A 
ATOM     25  C   UNL     1       1.245   4.324  20.501  0.00  0.00    +0.000 A 
ENDBRANCH  17  19
ENDBRANCH   4  15
BRANCH   1  27
ATOM     26  C   UNL     1       0.864  13.276  18.456  0.00  0.00    +0.000 C 
ATOM     27  C   UNL     1       1.566  13.082  19.796  0.00  0.00    +0.000 C 
ENDBRANCH   1  27
TORSDOF 3
ENDMDL
MODEL 9
REMARK VINA RESULT:      -7.5      3.853      9.108
REMARK  Name = 
REMARK  4 active torsions:
REMARK  status: ('A' for Active; 'I' for Inactive)
REMARK    1  A    between atoms: C_1  and  C_2
REMARK    2  A    between atoms: C_2  and  N_3
REMARK    3  A    between atoms: C_6  and  C_7
REMARK    4  A    between atoms: N_9  and  C_10
REMARK                            x       y       z     vdW  Elec       q    Type
REMARK                         _______ _______ _______ _____ _____    ______ ____
ROOT
ATOM      1  N   UNL     1       2.774   4.346  20.057  0.00  0.00    +0.000 N 
ATOM      2  C   UNL     1       2.666   5.663  19.552  0.00  0.00    +0.000 A 
ATOM      3  C   UNL     1       1.906   6.673  20.161  0.00  0.00    +0.000 A 
ATOM      4  C   UNL     1       1.828   7.979  19.628  0.00  0.00    +0.000 A 
ATOM      5  C   UNL     1       2.506   8.304  18.452  0.00  0.00    +0.000 A 
ATOM      6  C   UNL     1       3.229   7.314  17.797  0.00  0.00    +0.000 A 
ATOM      7  C   UNL     1       3.294   6.019  18.337  0.00  0.00    +0.000 A 
ATOM      8  C   UNL     1       3.926   4.951  17.533  0.00  0.00    +0.000 C 
ATOM      9  O   UNL     1       4.230   5.124  16.360  0.00  0.00    +0.000 OA
ATOM     10  N   UNL     1       4.030   3.752  18.182  0.00  0.00    +0.000 N 
ATOM     11  C   UNL     1       4.207   2.504  17.497  0.00  0.00    +0.000 C 
ATOM     12  C   UNL     1       3.981   1.436  18.545  0.00  0.00    +0.000 C 
ATOM     13  C   UNL     1       4.068   2.147  19.894  0.00  0.00    +0.000 C 
ATOM     14  C   UNL     1       3.982   3.650  19.611  0.00  0.00    +0.000 C 
ENDROOT
BRANCH   4  15
ATOM     15  C   UNL     1       1.046   8.989  20.381  0.00  0.00    +0.000 C 
ATOM     16  O   UNL     1       0.706   8.707  21.524  0.00  0.00    +0.000 OA
ATOM     17  N   UNL     1       0.705  10.138  19.682  0.00  0.00    +0.000 N 
ATOM     18  H   UNL     1       0.887  10.145  18.686  0.00  0.00    +0.000 HD
BRANCH  17  19
ATOM     19  C   UNL     1      -0.086  11.198  20.179  0.00  0.00    +0.000 A 
ATOM     20  C   UNL     1       0.321  12.033  21.225  0.00  0.00    +0.000 A 
ATOM     21  C   UNL     1      -0.541  13.002  21.743  0.00  0.00    +0.000 A 
ATOM     22  C   UNL     1      -1.815  13.151  21.206  0.00  0.00    +0.000 A 
ATOM     23 CL   UNL     1      -2.900  14.299  21.885  0.00  0.00    +0.000 Cl
ATOM     24  C   UNL     1      -2.216  12.365  20.128  0.00  0.00    +0.000 A 
ATOM     25  C   UNL     1      -1.348  11.399  19.607  0.00  0.00    +0.000 A 
ENDBRANCH  17  19
ENDBRANCH   4  15
BRANCH   1  27
ATOM     26  C   UNL     1       1.147   2.982  21.246  0.00  0.00    +0.000 C 
ATOM     27  C   UNL     1       2.245   4.031  21.389  0.00  0.00    +0.000 C 
ENDBRANCH   1  27
TORSDOF 3
ENDMDL
