MODEL 1
REMARK VINA RESULT:      -7.0      0.000      0.000
REMARK  Name = 
REMARK  3 active torsions:
REMARK  status: ('A' for Active; 'I' for Inactive)
REMARK    1  A    between atoms: C_2  and  C_3
REMARK    2  A    between atoms: C_3  and  N_4
REMARK    3  A    between atoms: C_6  and  C_7
REMARK                            x       y       z     vdW  Elec       q    Type
REMARK                         _______ _______ _______ _____ _____    ______ ____
ROOT
ATOM      1  N   UNL     1       4.313   4.428  17.011  0.00  0.00    +0.000 N 
ATOM      2  C   UNL     1       4.076   5.770  17.308  0.00  0.00    +0.000 A 
ATOM      3  C   UNL     1       2.971   5.857  18.142  0.00  0.00    +0.000 A 
ATOM      4  N   UNL     1       2.587   4.543  18.308  0.00  0.00    +0.000 N 
ATOM      5  C   UNL     1       3.355   3.712  17.612  0.00  0.00    +0.000 A 
ATOM      6  C   UNL     1       2.872   2.309  17.641  0.00  0.00    +0.000 C 
ATOM      7  C   UNL     1       1.583   2.393  18.485  0.00  0.00    +0.000 C 
ATOM      8  C   UNL     1       1.416   3.883  18.879  0.00  0.00    +0.000 C 
ENDROOT
BRANCH   3   9
ATOM      9  C   UNL     1       2.354   7.102  18.682  0.00  0.00    +0.000 A 
ATOM     10  C   UNL     1       2.087   8.176  17.825  0.00  0.00    +0.000 A 
ATOM     11  C   UNL     1       1.488   9.334  18.327  0.00  0.00    +0.000 A 
ATOM     12  C   UNL     1       1.185   9.430  19.684  0.00  0.00    +0.000 A 
ATOM     13 CL   UNL     1       0.460  10.861  20.299  0.00  0.00    +0.000 Cl
ATOM     14  C   UNL     1       1.468   8.371  20.543  0.00  0.00    +0.000 A 
ATOM     15  C   UNL     1       2.046   7.201  20.042  0.00  0.00    +0.000 A 
ENDBRANCH   3   9
BRANCH   1  16
ATOM     16  C   UNL     1       5.357   3.917  16.103  0.00  0.00    +0.000 C 
BRANCH  16  18
ATOM     17  N   UNL     1       7.875   4.527  17.114  0.00  0.00    +0.000 NA
ATOM     18  C   UNL     1       6.733   4.250  16.655  0.00  0.00    +0.000 C 
ENDBRANCH  16  18
ENDBRANCH   1  16
TORSDOF 3
ENDMDL
MODEL 2
REMARK VINA RESULT:      -7.0      0.521      1.254
REMARK  Name = 
REMARK  3 active torsions:
REMARK  status: ('A' for Active; 'I' for Inactive)
REMARK    1  A    between atoms: C_2  and  C_3
REMARK    2  A    between atoms: C_3  and  N_4
REMARK    3  A    between atoms: C_6  and  C_7
REMARK                            x       y       z     vdW  Elec       q    Type
REMARK                         _______ _______ _______ _____ _____    ______ ____
ROOT
ATOM      1  N   UNL     1       4.431   4.438  17.103  0.00  0.00    +0.000 N 
ATOM      2  C   UNL     1       4.182   5.782  17.379  0.00  0.00    +0.000 A 
ATOM      3  C   UNL     1       3.029   5.877  18.144  0.00  0.00    +0.000 A 
ATOM      4  N   UNL     1       2.630   4.565  18.292  0.00  0.00    +0.000 N 
ATOM      5  C   UNL     1       3.435   3.728  17.647  0.00  0.00    +0.000 A 
ATOM      6  C   UNL     1       2.946   2.327  17.653  0.00  0.00    +0.000 C 
ATOM      7  C   UNL     1       1.608   2.420  18.417  0.00  0.00    +0.000 C 
ATOM      8  C   UNL     1       1.423   3.912  18.793  0.00  0.00    +0.000 C 
ENDROOT
BRANCH   3   9
ATOM      9  C   UNL     1       2.385   7.127  18.640  0.00  0.00    +0.000 A 
ATOM     10  C   UNL     1       2.049   7.249  19.993  0.00  0.00    +0.000 A 
ATOM     11  C   UNL     1       1.466   8.429  20.461  0.00  0.00    +0.000 A 
ATOM     12  C   UNL     1       1.194   9.471  19.577  0.00  0.00    +0.000 A 
ATOM     13 CL   UNL     1       0.466  10.915  20.156  0.00  0.00    +0.000 Cl
ATOM     14  C   UNL     1       1.508   9.345  18.226  0.00  0.00    +0.000 A 
ATOM     15  C   UNL     1       2.113   8.175  17.756  0.00  0.00    +0.000 A 
ENDBRANCH   3   9
BRANCH   1  16
ATOM     16  C   UNL     1       5.527   3.919  16.262  0.00  0.00    +0.000 C 
BRANCH  16  18
ATOM     17  N   UNL     1       7.426   5.907  15.846  0.00  0.00    +0.000 NA
ATOM     18  C   UNL     1       6.565   5.005  16.035  0.00  0.00    +0.000 C 
ENDBRANCH  16  18
ENDBRANCH   1  16
TORSDOF 3
ENDMDL
MODEL 3
REMARK VINA RESULT:      -7.0      0.911      1.506
REMARK  Name = 
REMARK  3 active torsions:
REMARK  status: ('A' for Active; 'I' for Inactive)
REMARK    1  A    between atoms: C_2  and  C_3
REMARK    2  A    between atoms: C_3  and  N_4
REMARK    3  A    between atoms: C_6  and  C_7
REMARK                            x       y       z     vdW  Elec       q    Type
REMARK                         _______ _______ _______ _____ _____    ______ ____
ROOT
ATOM      1  N   UNL     1       4.834   5.695  16.825  0.00  0.00    +0.000 N 
ATOM      2  C   UNL     1       4.349   6.922  17.274  0.00  0.00    +0.000 A 
ATOM      3  C   UNL     1       3.183   6.709  17.994  0.00  0.00    +0.000 A 
ATOM      4  N   UNL     1       3.017   5.340  17.942  0.00  0.00    +0.000 N 
ATOM      5  C   UNL     1       3.968   4.755  17.223  0.00  0.00    +0.000 A 
ATOM      6  C   UNL     1       3.730   3.305  17.013  0.00  0.00    +0.000 C 
ATOM      7  C   UNL     1       2.383   3.057  17.724  0.00  0.00    +0.000 C 
ATOM      8  C   UNL     1       1.934   4.426  18.295  0.00  0.00    +0.000 C 
ENDROOT
BRANCH   3   9
ATOM      9  C   UNL     1       2.322   7.746  18.630  0.00  0.00    +0.000 A 
ATOM     10  C   UNL     1       1.992   7.643  19.987  0.00  0.00    +0.000 A 
ATOM     11  C   UNL     1       1.204   8.627  20.588  0.00  0.00    +0.000 A 
ATOM     12  C   UNL     1       0.723   9.694  19.831  0.00  0.00    +0.000 A 
ATOM     13 CL   UNL     1      -0.256  10.895  20.573  0.00  0.00    +0.000 Cl
ATOM     14  C   UNL     1       1.032   9.789  18.476  0.00  0.00    +0.000 A 
ATOM     15  C   UNL     1       1.840   8.819  17.875  0.00  0.00    +0.000 A 
ENDBRANCH   3   9
BRANCH   1  16
ATOM     16  C   UNL     1       6.019   5.496  15.968  0.00  0.00    +0.000 C 
BRANCH  16  18
ATOM     17  N   UNL     1       8.048   4.274  17.424  0.00  0.00    +0.000 NA
ATOM     18  C   UNL     1       7.128   4.828  16.764  0.00  0.00    +0.000 C 
ENDBRANCH  16  18
ENDBRANCH   1  16
TORSDOF 3
ENDMDL
MODEL 4
REMARK VINA RESULT:      -6.7      1.037      1.163
REMARK  Name = 
REMARK  3 active torsions:
REMARK  status: ('A' for Active; 'I' for Inactive)
REMARK    1  A    between atoms: C_2  and  C_3
REMARK    2  A    between atoms: C_3  and  N_4
REMARK    3  A    between atoms: C_6  and  C_7
REMARK                            x       y       z     vdW  Elec       q    Type
REMARK                         _______ _______ _______ _____ _____    ______ ____
ROOT
ATOM      1  N   UNL     1       4.974   5.033  17.324  0.00  0.00    +0.000 N 
ATOM      2  C   UNL     1       4.577   6.331  17.646  0.00  0.00    +0.000 A 
ATOM      3  C   UNL     1       3.292   6.292  18.163  0.00  0.00    +0.000 A 
ATOM      4  N   UNL     1       2.968   4.952  18.126  0.00  0.00    +0.000 N 
ATOM      5  C   UNL     1       3.945   4.223  17.598  0.00  0.00    +0.000 A 
ATOM      6  C   UNL     1       3.567   2.802  17.397  0.00  0.00    +0.000 C 
ATOM      7  C   UNL     1       2.101   2.750  17.876  0.00  0.00    +0.000 C 
ATOM      8  C   UNL     1       1.736   4.190  18.319  0.00  0.00    +0.000 C 
ENDROOT
BRANCH   3   9
ATOM      9  C   UNL     1       2.473   7.455  18.611  0.00  0.00    +0.000 A 
ATOM     10  C   UNL     1       2.130   8.460  17.699  0.00  0.00    +0.000 A 
ATOM     11  C   UNL     1       1.344   9.537  18.114  0.00  0.00    +0.000 A 
ATOM     12  C   UNL     1       0.926   9.626  19.440  0.00  0.00    +0.000 A 
ATOM     13 CL   UNL     1      -0.030  10.959  19.948  0.00  0.00    +0.000 Cl
ATOM     14  C   UNL     1       1.283   8.638  20.356  0.00  0.00    +0.000 A 
ATOM     15  C   UNL     1       2.049   7.545  19.940  0.00  0.00    +0.000 A 
ENDBRANCH   3   9
BRANCH   1  16
ATOM     16  C   UNL     1       6.250   4.653  16.688  0.00  0.00    +0.000 C 
BRANCH  16  18
ATOM     17  N   UNL     1       5.834   4.072  14.001  0.00  0.00    +0.000 NA
ATOM     18  C   UNL     1       6.022   4.336  15.219  0.00  0.00    +0.000 C 
ENDBRANCH  16  18
ENDBRANCH   1  16
TORSDOF 3
ENDMDL
MODEL 5
REMARK VINA RESULT:      -6.6      1.056      1.552
REMARK  Name = 
REMARK  3 active torsions:
REMARK  status: ('A' for Active; 'I' for Inactive)
REMARK    1  A    between atoms: C_2  and  C_3
REMARK    2  A    between atoms: C_3  and  N_4
REMARK    3  A    between atoms: C_6  and  C_7
REMARK                            x       y       z     vdW  Elec       q    Type
REMARK                         _______ _______ _______ _____ _____    ______ ____
ROOT
ATOM      1  N   UNL     1       4.710   5.113  17.443  0.00  0.00    +0.000 N 
ATOM      2  C   UNL     1       4.124   6.378  17.454  0.00  0.00    +0.000 A 
ATOM      3  C   UNL     1       3.201   6.437  18.487  0.00  0.00    +0.000 A 
ATOM      4  N   UNL     1       3.274   5.183  19.057  0.00  0.00    +0.000 N 
ATOM      5  C   UNL     1       4.134   4.399  18.417  0.00  0.00    +0.000 A 
ATOM      6  C   UNL     1       4.119   2.997  18.904  0.00  0.00    +0.000 C 
ATOM      7  C   UNL     1       3.026   3.010  19.995  0.00  0.00    +0.000 C 
ATOM      8  C   UNL     1       2.475   4.458  20.043  0.00  0.00    +0.000 C 
ENDROOT
BRANCH   3   9
ATOM      9  C   UNL     1       2.329   7.592  18.843  0.00  0.00    +0.000 A 
ATOM     10  C   UNL     1       1.889   7.754  20.162  0.00  0.00    +0.000 A 
ATOM     11  C   UNL     1       1.090   8.850  20.499  0.00  0.00    +0.000 A 
ATOM     12  C   UNL     1       0.709   9.763  19.518  0.00  0.00    +0.000 A 
ATOM     13 CL   UNL     1      -0.283  11.101  19.936  0.00  0.00    +0.000 Cl
ATOM     14  C   UNL     1       1.127   9.594  18.201  0.00  0.00    +0.000 A 
ATOM     15  C   UNL     1       1.946   8.512  17.862  0.00  0.00    +0.000 A 
ENDBRANCH   3   9
BRANCH   1  16
ATOM     16  C   UNL     1       5.695   4.627  16.457  0.00  0.00    +0.000 C 
BRANCH  16  18
ATOM     17  N   UNL     1       8.164   4.264  17.683  0.00  0.00    +0.000 NA
ATOM     18  C   UNL     1       7.044   4.429  17.127  0.00  0.00    +0.000 C 
ENDBRANCH  16  18
ENDBRANCH   1  16
TORSDOF 3
ENDMDL
MODEL 6
REMARK VINA RESULT:      -6.6      1.435      3.045
REMARK  Name = 
REMARK  3 active torsions:
REMARK  status: ('A' for Active; 'I' for Inactive)
REMARK    1  A    between atoms: C_2  and  C_3
REMARK    2  A    between atoms: C_3  and  N_4
REMARK    3  A    between atoms: C_6  and  C_7
REMARK                            x       y       z     vdW  Elec       q    Type
REMARK                         _______ _______ _______ _____ _____    ______ ____
ROOT
ATOM      1  N   UNL     1       3.339   3.889  18.089  0.00  0.00    +0.000 N 
ATOM      2  C   UNL     1       2.511   4.824  18.710  0.00  0.00    +0.000 A 
ATOM      3  C   UNL     1       2.852   6.092  18.264  0.00  0.00    +0.000 A 
ATOM      4  N   UNL     1       3.888   5.858  17.384  0.00  0.00    +0.000 N 
ATOM      5  C   UNL     1       4.194   4.567  17.314  0.00  0.00    +0.000 A 
ATOM      6  C   UNL     1       5.406   4.299  16.500  0.00  0.00    +0.000 C 
ATOM      7  C   UNL     1       5.865   5.708  16.069  0.00  0.00    +0.000 C 
ATOM      8  C   UNL     1       4.858   6.706  16.696  0.00  0.00    +0.000 C 
ENDROOT
BRANCH   3   9
ATOM      9  C   UNL     1       2.240   7.383  18.689  0.00  0.00    +0.000 A 
ATOM     10  C   UNL     1       1.876   7.577  20.026  0.00  0.00    +0.000 A 
ATOM     11  C   UNL     1       1.323   8.795  20.428  0.00  0.00    +0.000 A 
ATOM     12  C   UNL     1       1.108   9.805  19.492  0.00  0.00    +0.000 A 
ATOM     13 CL   UNL     1       0.418  11.297  19.989  0.00  0.00    +0.000 Cl
ATOM     14  C   UNL     1       1.450   9.609  18.156  0.00  0.00    +0.000 A 
ATOM     15  C   UNL     1       2.026   8.400  17.753  0.00  0.00    +0.000 A 
ENDBRANCH   3   9
BRANCH   1  16
ATOM     16  C   UNL     1       3.341   2.435  18.342  0.00  0.00    +0.000 C 
BRANCH  16  18
ATOM     17  N   UNL     1       4.980   1.853  20.511  0.00  0.00    +0.000 NA
ATOM     18  C   UNL     1       4.237   2.117  19.527  0.00  0.00    +0.000 C 
ENDBRANCH  16  18
ENDBRANCH   1  16
TORSDOF 3
ENDMDL
MODEL 7
REMARK VINA RESULT:      -6.6      1.460      2.849
REMARK  Name = 
REMARK  3 active torsions:
REMARK  status: ('A' for Active; 'I' for Inactive)
REMARK    1  A    between atoms: C_2  and  C_3
REMARK    2  A    between atoms: C_3  and  N_4
REMARK    3  A    between atoms: C_6  and  C_7
REMARK                            x       y       z     vdW  Elec       q    Type
REMARK                         _______ _______ _______ _____ _____    ______ ____
ROOT
ATOM      1  N   UNL     1       3.427   3.902  18.140  0.00  0.00    +0.000 N 
ATOM      2  C   UNL     1       2.558   4.818  18.733  0.00  0.00    +0.000 A 
ATOM      3  C   UNL     1       2.897   6.095  18.315  0.00  0.00    +0.000 A 
ATOM      4  N   UNL     1       3.974   5.886  17.478  0.00  0.00    +0.000 N 
ATOM      5  C   UNL     1       4.303   4.601  17.409  0.00  0.00    +0.000 A 
ATOM      6  C   UNL     1       5.553   4.360  16.646  0.00  0.00    +0.000 C 
ATOM      7  C   UNL     1       6.008   5.781  16.248  0.00  0.00    +0.000 C 
ATOM      8  C   UNL     1       4.959   6.756  16.840  0.00  0.00    +0.000 C 
ENDROOT
BRANCH   3   9
ATOM      9  C   UNL     1       2.247   7.373  18.725  0.00  0.00    +0.000 A 
ATOM     10  C   UNL     1       1.996   8.365  17.770  0.00  0.00    +0.000 A 
ATOM     11  C   UNL     1       1.367   9.553  18.151  0.00  0.00    +0.000 A 
ATOM     12  C   UNL     1       1.016   9.761  19.483  0.00  0.00    +0.000 A 
ATOM     13 CL   UNL     1       0.253  11.228  19.948  0.00  0.00    +0.000 Cl
ATOM     14  C   UNL     1       1.283   8.784  20.440  0.00  0.00    +0.000 A 
ATOM     15  C   UNL     1       1.891   7.583  20.060  0.00  0.00    +0.000 A 
ENDBRANCH   3   9
BRANCH   1  16
ATOM     16  C   UNL     1       3.441   2.446  18.379  0.00  0.00    +0.000 C 
BRANCH  16  18
ATOM     17  N   UNL     1       4.996   1.866  20.610  0.00  0.00    +0.000 NA
ATOM     18  C   UNL     1       4.291   2.129  19.598  0.00  0.00    +0.000 C 
ENDBRANCH  16  18
ENDBRANCH   1  16
TORSDOF 3
ENDMDL
MODEL 8
REMARK VINA RESULT:      -6.6      1.299      1.299
REMARK  Name = 
REMARK  3 active torsions:
REMARK  status: ('A' for Active; 'I' for Inactive)
REMARK    1  A    between atoms: C_2  and  C_3
REMARK    2  A    between atoms: C_3  and  N_4
REMARK    3  A    between atoms: C_6  and  C_7
REMARK                            x       y       z     vdW  Elec       q    Type
REMARK                         _______ _______ _______ _____ _____    ______ ____
ROOT
ATOM      1  N   UNL     1       4.599   4.769  17.877  0.00  0.00    +0.000 N 
ATOM      2  C   UNL     1       4.062   6.048  17.735  0.00  0.00    +0.000 A 
ATOM      3  C   UNL     1       3.150   6.269  18.756  0.00  0.00    +0.000 A 
ATOM      4  N   UNL     1       3.179   5.092  19.475  0.00  0.00    +0.000 N 
ATOM      5  C   UNL     1       4.003   4.202  18.933  0.00  0.00    +0.000 A 
ATOM      6  C   UNL     1       3.937   2.872  19.588  0.00  0.00    +0.000 C 
ATOM      7  C   UNL     1       2.854   3.061  20.672  0.00  0.00    +0.000 C 
ATOM      8  C   UNL     1       2.360   4.525  20.544  0.00  0.00    +0.000 C 
ENDROOT
BRANCH   3   9
ATOM      9  C   UNL     1       2.327   7.493  18.970  0.00  0.00    +0.000 A 
ATOM     10  C   UNL     1       2.059   8.351  17.897  0.00  0.00    +0.000 A 
ATOM     11  C   UNL     1       1.269   9.485  18.094  0.00  0.00    +0.000 A 
ATOM     12  C   UNL     1       0.772   9.778  19.363  0.00  0.00    +0.000 A 
ATOM     13 CL   UNL     1      -0.189  11.181  19.602  0.00  0.00    +0.000 Cl
ATOM     14  C   UNL     1       1.053   8.938  20.437  0.00  0.00    +0.000 A 
ATOM     15  C   UNL     1       1.824   7.788  20.241  0.00  0.00    +0.000 A 
ENDBRANCH   3   9
BRANCH   1  16
ATOM     16  C   UNL     1       5.556   4.128  16.955  0.00  0.00    +0.000 C 
BRANCH  16  18
ATOM     17  N   UNL     1       7.391   6.004  16.036  0.00  0.00    +0.000 NA
ATOM     18  C   UNL     1       6.558   5.153  16.452  0.00  0.00    +0.000 C 
ENDBRANCH  16  18
ENDBRANCH   1  16
TORSDOF 3
ENDMDL
MODEL 9
REMARK VINA RESULT:      -6.3      1.332      3.346
REMARK  Name = 
REMARK  3 active torsions:
REMARK  status: ('A' for Active; 'I' for Inactive)
REMARK    1  A    between atoms: C_2  and  C_3
REMARK    2  A    between atoms: C_3  and  N_4
REMARK    3  A    between atoms: C_6  and  C_7
REMARK                            x       y       z     vdW  Elec       q    Type
REMARK                         _______ _______ _______ _____ _____    ______ ____
ROOT
ATOM      1  N   UNL     1       3.145   4.153  17.918  0.00  0.00    +0.000 N 
ATOM      2  C   UNL     1       2.286   5.096  18.482  0.00  0.00    +0.000 A 
ATOM      3  C   UNL     1       2.781   6.365  18.225  0.00  0.00    +0.000 A 
ATOM      4  N   UNL     1       3.935   6.124  17.510  0.00  0.00    +0.000 N 
ATOM      5  C   UNL     1       4.163   4.823  17.365  0.00  0.00    +0.000 A 
ATOM      6  C   UNL     1       5.477   4.528  16.741  0.00  0.00    +0.000 C 
ATOM      7  C   UNL     1       6.095   5.927  16.532  0.00  0.00    +0.000 C 
ATOM      8  C   UNL     1       5.063   6.946  17.078  0.00  0.00    +0.000 C 
ENDROOT
BRANCH   3   9
ATOM      9  C   UNL     1       2.191   7.661  18.667  0.00  0.00    +0.000 A 
ATOM     10  C   UNL     1       2.046   8.710  17.752  0.00  0.00    +0.000 A 
ATOM     11  C   UNL     1       1.473   9.916  18.161  0.00  0.00    +0.000 A 
ATOM     12  C   UNL     1       1.073  10.085  19.485  0.00  0.00    +0.000 A 
ATOM     13 CL   UNL     1       0.380  11.574  19.985  0.00  0.00    +0.000 Cl
ATOM     14  C   UNL     1       1.235   9.051  20.404  0.00  0.00    +0.000 A 
ATOM     15  C   UNL     1       1.786   7.833  19.994  0.00  0.00    +0.000 A 
ENDBRANCH   3   9
BRANCH   1  16
ATOM     16  C   UNL     1       3.008   2.688  18.024  0.00  0.00    +0.000 C 
BRANCH  16  18
ATOM     17  N   UNL     1       0.374   2.021  18.614  0.00  0.00    +0.000 NA
ATOM     18  C   UNL     1       1.568   2.324  18.346  0.00  0.00    +0.000 C 
ENDBRANCH  16  18
ENDBRANCH   1  16
TORSDOF 3
ENDMDL
