MODEL 1
REMARK VINA RESULT:      -8.5      0.000      0.000
REMARK  Name = 
REMARK  5 active torsions:
REMARK  status: ('A' for Active; 'I' for Inactive)
REMARK    1  A    between atoms: C_1  and  C_2
REMARK    2  A    between atoms: C_6  and  N_7
REMARK    3  A    between atoms: N_7  and  C_8
REMARK    4  A    between atoms: C_15  and  S_16
REMARK    5  A    between atoms: S_16  and  C_19
REMARK                            x       y       z     vdW  Elec       q    Type
REMARK                         _______ _______ _______ _____ _____    ______ ____
ROOT
ATOM      1  C   UNL     1       2.894   4.815  20.066  0.00  0.00    +0.000 A 
ATOM      2  N   UNL     1       2.229   4.389  21.161  0.00  0.00    +0.000 NA
ATOM      3  C   UNL     1       1.701   3.173  21.142  0.00  0.00    +0.000 A 
ATOM      4  N   UNL     1       1.285   2.612  22.322  0.00  0.00    +0.000 N 
ATOM      5  N   UNL     1       1.572   2.437  20.038  0.00  0.00    +0.000 NA
ATOM      6  C   UNL     1       2.267   2.837  18.970  0.00  0.00    +0.000 A 
ATOM      7  N   UNL     1       2.091   2.025  17.851  0.00  0.00    +0.000 N 
ATOM      8  C   UNL     1       3.121   3.920  19.021  0.00  0.00    +0.000 A 
ATOM      9  H   UNL     1       1.169   3.291  23.059  0.00  0.00    +0.000 HD
ATOM     10  H   UNL     1       0.591   1.893  22.191  0.00  0.00    +0.000 HD
ATOM     11  H   UNL     1       1.257   1.455  17.994  0.00  0.00    +0.000 HD
ATOM     12  H   UNL     1       2.053   2.545  16.970  0.00  0.00    +0.000 HD
ENDROOT
BRANCH   8  13
ATOM     13  S   UNL     1       4.257   4.153  17.702  0.00  0.00    +0.000 S 
ATOM     14  O   UNL     1       4.897   2.868  17.468  0.00  0.00    +0.000 OA
ATOM     15  O   UNL     1       3.501   4.752  16.613  0.00  0.00    +0.000 OA
BRANCH  13  16
ATOM     16  C   UNL     1       5.606   5.310  18.092  0.00  0.00    +0.000 A 
ATOM     17  C   UNL     1       6.545   5.023  19.100  0.00  0.00    +0.000 A 
ATOM     18  C   UNL     1       7.690   5.810  19.249  0.00  0.00    +0.000 A 
ATOM     19  C   UNL     1       7.926   6.875  18.386  0.00  0.00    +0.000 A 
ATOM     20  C   UNL     1       6.995   7.181  17.390  0.00  0.00    +0.000 A 
ATOM     21  C   UNL     1       5.845   6.396  17.236  0.00  0.00    +0.000 A 
ENDBRANCH  13  16
ENDBRANCH   8  13
BRANCH   1  22
ATOM     22  N   UNL     1       3.293   6.176  20.061  0.00  0.00    +0.000 N 
ATOM     23  H   UNL     1       4.242   6.279  19.693  0.00  0.00    +0.000 HD
BRANCH  22  29
ATOM     24  C   UNL     1      -0.269   9.657  20.831  0.00  0.00    +0.000 C 
ATOM     25  C   UNL     1       0.799   9.039  19.971  0.00  0.00    +0.000 A 
ATOM     26  C   UNL     1       0.829   9.333  18.603  0.00  0.00    +0.000 A 
ATOM     27  C   UNL     1       1.739   8.689  17.776  0.00  0.00    +0.000 A 
ATOM     28  C   UNL     1       2.585   7.699  18.300  0.00  0.00    +0.000 A 
ATOM     29  C   UNL     1       2.550   7.337  19.657  0.00  0.00    +0.000 A 
ATOM     30  C   UNL     1       1.690   8.069  20.496  0.00  0.00    +0.000 A 
ENDBRANCH  22  29
ENDBRANCH   1  22
TORSDOF 4
ENDMDL
MODEL 2
REMARK VINA RESULT:      -8.4      1.980      2.451
REMARK  Name = 
REMARK  5 active torsions:
REMARK  status: ('A' for Active; 'I' for Inactive)
REMARK    1  A    between atoms: C_1  and  C_2
REMARK    2  A    between atoms: C_6  and  N_7
REMARK    3  A    between atoms: N_7  and  C_8
REMARK    4  A    between atoms: C_15  and  S_16
REMARK    5  A    between atoms: S_16  and  C_19
REMARK                            x       y       z     vdW  Elec       q    Type
REMARK                         _______ _______ _______ _____ _____    ______ ____
ROOT
ATOM      1  C   UNL     1       2.679   4.893  19.440  0.00  0.00    +0.000 A 
ATOM      2  N   UNL     1       1.718   4.335  20.209  0.00  0.00    +0.000 NA
ATOM      3  C   UNL     1       2.008   3.220  20.866  0.00  0.00    +0.000 A 
ATOM      4  N   UNL     1       1.168   2.802  21.866  0.00  0.00    +0.000 N 
ATOM      5  N   UNL     1       3.094   2.484  20.634  0.00  0.00    +0.000 NA
ATOM      6  C   UNL     1       4.061   3.057  19.912  0.00  0.00    +0.000 A 
ATOM      7  N   UNL     1       5.169   2.236  19.707  0.00  0.00    +0.000 N 
ATOM      8  C   UNL     1       3.968   4.363  19.477  0.00  0.00    +0.000 A 
ATOM      9  H   UNL     1       0.260   3.238  21.821  0.00  0.00    +0.000 HD
ATOM     10  H   UNL     1       1.240   1.814  22.050  0.00  0.00    +0.000 HD
ATOM     11  H   UNL     1       4.900   1.274  19.915  0.00  0.00    +0.000 HD
ATOM     12  H   UNL     1       5.579   2.326  18.774  0.00  0.00    +0.000 HD
ENDROOT
BRANCH   8  13
ATOM     13  S   UNL     1       5.414   5.145  18.859  0.00  0.00    +0.000 S 
ATOM     14  O   UNL     1       5.131   6.570  18.810  0.00  0.00    +0.000 OA
ATOM     15  O   UNL     1       6.513   4.692  19.698  0.00  0.00    +0.000 OA
BRANCH  13  16
ATOM     16  C   UNL     1       5.834   4.668  17.154  0.00  0.00    +0.000 A 
ATOM     17  C   UNL     1       4.847   4.220  16.258  0.00  0.00    +0.000 A 
ATOM     18  C   UNL     1       5.140   4.058  14.901  0.00  0.00    +0.000 A 
ATOM     19  C   UNL     1       6.409   4.360  14.417  0.00  0.00    +0.000 A 
ATOM     20  C   UNL     1       7.403   4.792  15.299  0.00  0.00    +0.000 A 
ATOM     21  C   UNL     1       7.115   4.956  16.660  0.00  0.00    +0.000 A 
ENDBRANCH  13  16
ENDBRANCH   8  13
BRANCH   1  22
ATOM     22  N   UNL     1       2.278   5.981  18.624  0.00  0.00    +0.000 N 
ATOM     23  H   UNL     1       1.551   5.695  17.963  0.00  0.00    +0.000 HD
BRANCH  22  29
ATOM     24  C   UNL     1       0.544   9.445  21.847  0.00  0.00    +0.000 C 
ATOM     25  C   UNL     1       1.144   9.070  20.519  0.00  0.00    +0.000 A 
ATOM     26  C   UNL     1       1.092   9.987  19.464  0.00  0.00    +0.000 A 
ATOM     27  C   UNL     1       1.542   9.618  18.204  0.00  0.00    +0.000 A 
ATOM     28  C   UNL     1       1.990   8.308  17.974  0.00  0.00    +0.000 A 
ATOM     29  C   UNL     1       2.009   7.342  18.995  0.00  0.00    +0.000 A 
ATOM     30  C   UNL     1       1.641   7.764  20.285  0.00  0.00    +0.000 A 
ENDBRANCH  22  29
ENDBRANCH   1  22
TORSDOF 4
ENDMDL
MODEL 3
REMARK VINA RESULT:      -8.3      0.516      1.296
REMARK  Name = 
REMARK  5 active torsions:
REMARK  status: ('A' for Active; 'I' for Inactive)
REMARK    1  A    between atoms: C_1  and  C_2
REMARK    2  A    between atoms: C_6  and  N_7
REMARK    3  A    between atoms: N_7  and  C_8
REMARK    4  A    between atoms: C_15  and  S_16
REMARK    5  A    between atoms: S_16  and  C_19
REMARK                            x       y       z     vdW  Elec       q    Type
REMARK                         _______ _______ _______ _____ _____    ______ ____
ROOT
ATOM      1  C   UNL     1       2.845   4.766  20.104  0.00  0.00    +0.000 A 
ATOM      2  N   UNL     1       2.265   4.241  21.204  0.00  0.00    +0.000 NA
ATOM      3  C   UNL     1       1.858   2.979  21.159  0.00  0.00    +0.000 A 
ATOM      4  N   UNL     1       1.541   2.342  22.332  0.00  0.00    +0.000 N 
ATOM      5  N   UNL     1       1.762   2.271  20.035  0.00  0.00    +0.000 NA
ATOM      6  C   UNL     1       2.377   2.772  18.960  0.00  0.00    +0.000 A 
ATOM      7  N   UNL     1       2.241   1.982  17.819  0.00  0.00    +0.000 N 
ATOM      8  C   UNL     1       3.122   3.932  19.021  0.00  0.00    +0.000 A 
ATOM      9  H   UNL     1       1.386   2.983  23.095  0.00  0.00    +0.000 HD
ATOM     10  H   UNL     1       0.917   1.563  22.198  0.00  0.00    +0.000 HD
ATOM     11  H   UNL     1       1.473   1.328  17.969  0.00  0.00    +0.000 HD
ATOM     12  H   UNL     1       2.121   2.524  16.958  0.00  0.00    +0.000 HD
ENDROOT
BRANCH   8  13
ATOM     13  S   UNL     1       4.182   4.319  17.675  0.00  0.00    +0.000 S 
ATOM     14  O   UNL     1       4.778   3.066  17.239  0.00  0.00    +0.000 OA
ATOM     15  O   UNL     1       3.375   5.064  16.721  0.00  0.00    +0.000 OA
BRANCH  13  16
ATOM     16  C   UNL     1       5.576   5.396  18.126  0.00  0.00    +0.000 A 
ATOM     17  C   UNL     1       6.462   5.048  19.163  0.00  0.00    +0.000 A 
ATOM     18  C   UNL     1       7.641   5.770  19.362  0.00  0.00    +0.000 A 
ATOM     19  C   UNL     1       7.965   6.830  18.521  0.00  0.00    +0.000 A 
ATOM     20  C   UNL     1       7.088   7.196  17.497  0.00  0.00    +0.000 A 
ATOM     21  C   UNL     1       5.904   6.476  17.292  0.00  0.00    +0.000 A 
ENDBRANCH  13  16
ENDBRANCH   8  13
BRANCH   1  22
ATOM     22  N   UNL     1       3.108   6.159  20.134  0.00  0.00    +0.000 N 
ATOM     23  H   UNL     1       3.957   6.384  19.609  0.00  0.00    +0.000 HD
BRANCH  22  29
ATOM     24  C   UNL     1       1.586  10.342  17.771  0.00  0.00    +0.000 C 
ATOM     25  C   UNL     1       1.432   9.322  18.867  0.00  0.00    +0.000 A 
ATOM     26  C   UNL     1       0.640   9.630  19.978  0.00  0.00    +0.000 A 
ATOM     27  C   UNL     1       0.574   8.746  21.047  0.00  0.00    +0.000 A 
ATOM     28  C   UNL     1       1.349   7.576  21.039  0.00  0.00    +0.000 A 
ATOM     29  C   UNL     1       2.197   7.257  19.965  0.00  0.00    +0.000 A 
ATOM     30  C   UNL     1       2.175   8.115  18.852  0.00  0.00    +0.000 A 
ENDBRANCH  22  29
ENDBRANCH   1  22
TORSDOF 4
ENDMDL
MODEL 4
REMARK VINA RESULT:      -8.1      1.995      2.457
REMARK  Name = 
REMARK  5 active torsions:
REMARK  status: ('A' for Active; 'I' for Inactive)
REMARK    1  A    between atoms: C_1  and  C_2
REMARK    2  A    between atoms: C_6  and  N_7
REMARK    3  A    between atoms: N_7  and  C_8
REMARK    4  A    between atoms: C_15  and  S_16
REMARK    5  A    between atoms: S_16  and  C_19
REMARK                            x       y       z     vdW  Elec       q    Type
REMARK                         _______ _______ _______ _____ _____    ______ ____
ROOT
ATOM      1  C   UNL     1       2.672   5.074  19.139  0.00  0.00    +0.000 A 
ATOM      2  N   UNL     1       1.655   4.522  19.834  0.00  0.00    +0.000 NA
ATOM      3  C   UNL     1       1.860   3.352  20.425  0.00  0.00    +0.000 A 
ATOM      4  N   UNL     1       0.961   2.917  21.364  0.00  0.00    +0.000 N 
ATOM      5  N   UNL     1       2.913   2.573  20.181  0.00  0.00    +0.000 NA
ATOM      6  C   UNL     1       3.935   3.137  19.532  0.00  0.00    +0.000 A 
ATOM      7  N   UNL     1       5.005   2.270  19.311  0.00  0.00    +0.000 N 
ATOM      8  C   UNL     1       3.929   4.472  19.183  0.00  0.00    +0.000 A 
ATOM      9  H   UNL     1       0.080   3.405  21.319  0.00  0.00    +0.000 HD
ATOM     10  H   UNL     1       0.973   1.916  21.484  0.00  0.00    +0.000 HD
ATOM     11  H   UNL     1       4.678   1.313  19.444  0.00  0.00    +0.000 HD
ATOM     12  H   UNL     1       5.454   2.398  18.400  0.00  0.00    +0.000 HD
ENDROOT
BRANCH   8  13
ATOM     13  S   UNL     1       5.437   5.210  18.669  0.00  0.00    +0.000 S 
ATOM     14  O   UNL     1       5.281   6.645  18.841  0.00  0.00    +0.000 OA
ATOM     15  O   UNL     1       6.494   4.541  19.412  0.00  0.00    +0.000 OA
BRANCH  13  16
ATOM     16  C   UNL     1       5.810   4.965  16.905  0.00  0.00    +0.000 A 
ATOM     17  C   UNL     1       7.064   5.312  16.369  0.00  0.00    +0.000 A 
ATOM     18  C   UNL     1       7.412   4.929  15.072  0.00  0.00    +0.000 A 
ATOM     19  C   UNL     1       6.530   4.179  14.301  0.00  0.00    +0.000 A 
ATOM     20  C   UNL     1       5.275   3.840  14.815  0.00  0.00    +0.000 A 
ATOM     21  C   UNL     1       4.920   4.221  16.115  0.00  0.00    +0.000 A 
ENDBRANCH  13  16
ENDBRANCH   8  13
BRANCH   1  22
ATOM     22  N   UNL     1       2.362   6.234  18.384  0.00  0.00    +0.000 N 
ATOM     23  H   UNL     1       1.733   6.009  17.609  0.00  0.00    +0.000 HD
BRANCH  22  29
ATOM     24  C   UNL     1       0.604   9.395  21.893  0.00  0.00    +0.000 C 
ATOM     25  C   UNL     1       1.139   9.132  20.512  0.00  0.00    +0.000 A 
ATOM     26  C   UNL     1       0.950  10.093  19.513  0.00  0.00    +0.000 A 
ATOM     27  C   UNL     1       1.340   9.821  18.208  0.00  0.00    +0.000 A 
ATOM     28  C   UNL     1       1.864   8.562  17.880  0.00  0.00    +0.000 A 
ATOM     29  C   UNL     1       2.021   7.551  18.844  0.00  0.00    +0.000 A 
ATOM     30  C   UNL     1       1.712   7.879  20.176  0.00  0.00    +0.000 A 
ENDBRANCH  22  29
ENDBRANCH   1  22
TORSDOF 4
ENDMDL
MODEL 5
REMARK VINA RESULT:      -8.1      2.324      4.878
REMARK  Name = 
REMARK  5 active torsions:
REMARK  status: ('A' for Active; 'I' for Inactive)
REMARK    1  A    between atoms: C_1  and  C_2
REMARK    2  A    between atoms: C_6  and  N_7
REMARK    3  A    between atoms: N_7  and  C_8
REMARK    4  A    between atoms: C_15  and  S_16
REMARK    5  A    between atoms: S_16  and  C_19
REMARK                            x       y       z     vdW  Elec       q    Type
REMARK                         _______ _______ _______ _____ _____    ______ ____
ROOT
ATOM      1  C   UNL     1       4.409   6.515  17.399  0.00  0.00    +0.000 A 
ATOM      2  N   UNL     1       5.422   7.382  17.183  0.00  0.00    +0.000 NA
ATOM      3  C   UNL     1       6.658   6.984  17.455  0.00  0.00    +0.000 A 
ATOM      4  N   UNL     1       7.712   7.720  16.977  0.00  0.00    +0.000 N 
ATOM      5  N   UNL     1       6.948   5.883  18.148  0.00  0.00    +0.000 NA
ATOM      6  C   UNL     1       5.954   5.008  18.320  0.00  0.00    +0.000 A 
ATOM      7  N   UNL     1       6.322   3.879  19.050  0.00  0.00    +0.000 N 
ATOM      8  C   UNL     1       4.707   5.201  17.760  0.00  0.00    +0.000 A 
ATOM      9  H   UNL     1       7.442   8.650  16.694  0.00  0.00    +0.000 HD
ATOM     10  H   UNL     1       8.557   7.584  17.507  0.00  0.00    +0.000 HD
ATOM     11  H   UNL     1       7.195   4.081  19.537  0.00  0.00    +0.000 HD
ATOM     12  H   UNL     1       5.594   3.549  19.690  0.00  0.00    +0.000 HD
ENDROOT
BRANCH   8  13
ATOM     13  S   UNL     1       3.585   3.850  17.726  0.00  0.00    +0.000 S 
ATOM     14  O   UNL     1       2.535   4.202  16.784  0.00  0.00    +0.000 OA
ATOM     15  O   UNL     1       4.383   2.665  17.453  0.00  0.00    +0.000 OA
BRANCH  13  16
ATOM     16  C   UNL     1       2.745   3.555  19.312  0.00  0.00    +0.000 A 
ATOM     17  C   UNL     1       1.363   3.777  19.458  0.00  0.00    +0.000 A 
ATOM     18  C   UNL     1       0.693   3.350  20.608  0.00  0.00    +0.000 A 
ATOM     19  C   UNL     1       1.382   2.681  21.614  0.00  0.00    +0.000 A 
ATOM     20  C   UNL     1       2.758   2.468  21.489  0.00  0.00    +0.000 A 
ATOM     21  C   UNL     1       3.435   2.892  20.339  0.00  0.00    +0.000 A 
ENDBRANCH  13  16
ENDBRANCH   8  13
BRANCH   1  22
ATOM     22  N   UNL     1       3.097   7.033  17.262  0.00  0.00    +0.000 N 
ATOM     23  H   UNL     1       2.489   6.370  16.775  0.00  0.00    +0.000 HD
BRANCH  22  29
ATOM     24  C   UNL     1       0.553  11.089  18.835  0.00  0.00    +0.000 C 
ATOM     25  C   UNL     1       1.061   9.691  19.056  0.00  0.00    +0.000 A 
ATOM     26  C   UNL     1       1.095   9.175  20.356  0.00  0.00    +0.000 A 
ATOM     27  C   UNL     1       1.661   7.929  20.591  0.00  0.00    +0.000 A 
ATOM     28  C   UNL     1       2.255   7.217  19.537  0.00  0.00    +0.000 A 
ATOM     29  C   UNL     1       2.288   7.725  18.227  0.00  0.00    +0.000 A 
ATOM     30  C   UNL     1       1.624   8.941  17.992  0.00  0.00    +0.000 A 
ENDBRANCH  22  29
ENDBRANCH   1  22
TORSDOF 4
ENDMDL
MODEL 6
REMARK VINA RESULT:      -8.1      0.895      1.821
REMARK  Name = 
REMARK  5 active torsions:
REMARK  status: ('A' for Active; 'I' for Inactive)
REMARK    1  A    between atoms: C_1  and  C_2
REMARK    2  A    between atoms: C_6  and  N_7
REMARK    3  A    between atoms: N_7  and  C_8
REMARK    4  A    between atoms: C_15  and  S_16
REMARK    5  A    between atoms: S_16  and  C_19
REMARK                            x       y       z     vdW  Elec       q    Type
REMARK                         _______ _______ _______ _____ _____    ______ ____
ROOT
ATOM      1  C   UNL     1       2.786   5.381  20.025  0.00  0.00    +0.000 A 
ATOM      2  N   UNL     1       2.364   4.688  21.105  0.00  0.00    +0.000 NA
ATOM      3  C   UNL     1       2.140   3.388  20.969  0.00  0.00    +0.000 A 
ATOM      4  N   UNL     1       2.000   2.617  22.094  0.00  0.00    +0.000 N 
ATOM      5  N   UNL     1       2.071   2.767  19.792  0.00  0.00    +0.000 NA
ATOM      6  C   UNL     1       2.531   3.439  18.734  0.00  0.00    +0.000 A 
ATOM      7  N   UNL     1       2.432   2.734  17.535  0.00  0.00    +0.000 N 
ATOM      8  C   UNL     1       3.104   4.689  18.858  0.00  0.00    +0.000 A 
ATOM      9  H   UNL     1       1.806   3.163  22.920  0.00  0.00    +0.000 HD
ATOM     10  H   UNL     1       1.487   1.767  21.925  0.00  0.00    +0.000 HD
ATOM     11  H   UNL     1       1.778   1.963  17.668  0.00  0.00    +0.000 HD
ATOM     12  H   UNL     1       2.176   3.320  16.735  0.00  0.00    +0.000 HD
ENDROOT
BRANCH   8  13
ATOM     13  S   UNL     1       4.002   5.337  17.495  0.00  0.00    +0.000 S 
ATOM     14  O   UNL     1       4.097   4.272  16.511  0.00  0.00    +0.000 OA
ATOM     15  O   UNL     1       3.330   6.569  17.112  0.00  0.00    +0.000 OA
BRANCH  13  16
ATOM     16  C   UNL     1       5.718   5.789  17.897  0.00  0.00    +0.000 A 
ATOM     17  C   UNL     1       6.370   6.844  17.231  0.00  0.00    +0.000 A 
ATOM     18  C   UNL     1       7.603   7.317  17.688  0.00  0.00    +0.000 A 
ATOM     19  C   UNL     1       8.191   6.765  18.820  0.00  0.00    +0.000 A 
ATOM     20  C   UNL     1       7.562   5.706  19.483  0.00  0.00    +0.000 A 
ATOM     21  C   UNL     1       6.326   5.228  19.030  0.00  0.00    +0.000 A 
ENDBRANCH  13  16
ENDBRANCH   8  13
BRANCH   1  22
ATOM     22  N   UNL     1       2.847   6.791  20.167  0.00  0.00    +0.000 N 
ATOM     23  H   UNL     1       3.582   7.187  19.576  0.00  0.00    +0.000 HD
BRANCH  22  29
ATOM     24  C   UNL     1       0.592  11.016  18.599  0.00  0.00    +0.000 C 
ATOM     25  C   UNL     1       0.650   9.818  19.506  0.00  0.00    +0.000 A 
ATOM     26  C   UNL     1      -0.120   9.808  20.674  0.00  0.00    +0.000 A 
ATOM     27  C   UNL     1       0.004   8.760  21.577  0.00  0.00    +0.000 A 
ATOM     28  C   UNL     1       0.945   7.744  21.348  0.00  0.00    +0.000 A 
ATOM     29  C   UNL     1       1.774   7.745  20.213  0.00  0.00    +0.000 A 
ATOM     30  C   UNL     1       1.565   8.762  19.265  0.00  0.00    +0.000 A 
ENDBRANCH  22  29
ENDBRANCH   1  22
TORSDOF 4
ENDMDL
MODEL 7
REMARK VINA RESULT:      -8.1      2.347      4.801
REMARK  Name = 
REMARK  5 active torsions:
REMARK  status: ('A' for Active; 'I' for Inactive)
REMARK    1  A    between atoms: C_1  and  C_2
REMARK    2  A    between atoms: C_6  and  N_7
REMARK    3  A    between atoms: N_7  and  C_8
REMARK    4  A    between atoms: C_15  and  S_16
REMARK    5  A    between atoms: S_16  and  C_19
REMARK                            x       y       z     vdW  Elec       q    Type
REMARK                         _______ _______ _______ _____ _____    ______ ____
ROOT
ATOM      1  C   UNL     1       4.294   6.516  17.490  0.00  0.00    +0.000 A 
ATOM      2  N   UNL     1       5.291   7.393  17.245  0.00  0.00    +0.000 NA
ATOM      3  C   UNL     1       6.543   6.983  17.409  0.00  0.00    +0.000 A 
ATOM      4  N   UNL     1       7.562   7.742  16.894  0.00  0.00    +0.000 N 
ATOM      5  N   UNL     1       6.877   5.851  18.027  0.00  0.00    +0.000 NA
ATOM      6  C   UNL     1       5.895   4.967  18.226  0.00  0.00    +0.000 A 
ATOM      7  N   UNL     1       6.311   3.805  18.874  0.00  0.00    +0.000 N 
ATOM      8  C   UNL     1       4.612   5.187  17.766  0.00  0.00    +0.000 A 
ATOM      9  H   UNL     1       7.276   8.684  16.676  0.00  0.00    +0.000 HD
ATOM     10  H   UNL     1       8.443   7.580  17.356  0.00  0.00    +0.000 HD
ATOM     11  H   UNL     1       7.217   3.983  19.307  0.00  0.00    +0.000 HD
ATOM     12  H   UNL     1       5.628   3.445  19.547  0.00  0.00    +0.000 HD
ENDROOT
BRANCH   8  13
ATOM     13  S   UNL     1       3.487   3.839  17.746  0.00  0.00    +0.000 S 
ATOM     14  O   UNL     1       2.411   4.205  16.839  0.00  0.00    +0.000 OA
ATOM     15  O   UNL     1       4.274   2.655  17.436  0.00  0.00    +0.000 OA
BRANCH  13  16
ATOM     16  C   UNL     1       2.691   3.525  19.352  0.00  0.00    +0.000 A 
ATOM     17  C   UNL     1       1.319   3.769  19.546  0.00  0.00    +0.000 A 
ATOM     18  C   UNL     1       0.677   3.330  20.707  0.00  0.00    +0.000 A 
ATOM     19  C   UNL     1       1.385   2.627  21.677  0.00  0.00    +0.000 A 
ATOM     20  C   UNL     1       2.751   2.391  21.504  0.00  0.00    +0.000 A 
ATOM     21  C   UNL     1       3.400   2.828  20.342  0.00  0.00    +0.000 A 
ENDBRANCH  13  16
ENDBRANCH   8  13
BRANCH   1  22
ATOM     22  N   UNL     1       2.977   7.041  17.470  0.00  0.00    +0.000 N 
ATOM     23  H   UNL     1       2.288   6.298  17.326  0.00  0.00    +0.000 HD
BRANCH  22  29
ATOM     24  C   UNL     1       0.606   8.349  21.721  0.00  0.00    +0.000 C 
ATOM     25  C   UNL     1       1.188   8.702  20.380  0.00  0.00    +0.000 A 
ATOM     26  C   UNL     1       0.814   9.905  19.769  0.00  0.00    +0.000 A 
ATOM     27  C   UNL     1       1.256  10.196  18.486  0.00  0.00    +0.000 A 
ATOM     28  C   UNL     1       2.024   9.258  17.778  0.00  0.00    +0.000 A 
ATOM     29  C   UNL     1       2.376   8.018  18.335  0.00  0.00    +0.000 A 
ATOM     30  C   UNL     1       2.002   7.783  19.671  0.00  0.00    +0.000 A 
ENDBRANCH  22  29
ENDBRANCH   1  22
TORSDOF 4
ENDMDL
MODEL 8
REMARK VINA RESULT:      -8.1      2.341      4.629
REMARK  Name = 
REMARK  5 active torsions:
REMARK  status: ('A' for Active; 'I' for Inactive)
REMARK    1  A    between atoms: C_1  and  C_2
REMARK    2  A    between atoms: C_6  and  N_7
REMARK    3  A    between atoms: N_7  and  C_8
REMARK    4  A    between atoms: C_15  and  S_16
REMARK    5  A    between atoms: S_16  and  C_19
REMARK                            x       y       z     vdW  Elec       q    Type
REMARK                         _______ _______ _______ _____ _____    ______ ____
ROOT
ATOM      1  C   UNL     1       3.987   6.380  17.605  0.00  0.00    +0.000 A 
ATOM      2  N   UNL     1       4.923   7.331  17.396  0.00  0.00    +0.000 NA
ATOM      3  C   UNL     1       6.201   6.975  17.437  0.00  0.00    +0.000 A 
ATOM      4  N   UNL     1       7.146   7.838  16.945  0.00  0.00    +0.000 N 
ATOM      5  N   UNL     1       6.629   5.804  17.907  0.00  0.00    +0.000 NA
ATOM      6  C   UNL     1       5.706   4.852  18.070  0.00  0.00    +0.000 A 
ATOM      7  N   UNL     1       6.220   3.653  18.562  0.00  0.00    +0.000 N 
ATOM      8  C   UNL     1       4.387   5.048  17.716  0.00  0.00    +0.000 A 
ATOM      9  H   UNL     1       6.801   8.781  16.848  0.00  0.00    +0.000 HD
ATOM     10  H   UNL     1       8.062   7.678  17.332  0.00  0.00    +0.000 HD
ATOM     11  H   UNL     1       7.143   3.835  18.955  0.00  0.00    +0.000 HD
ATOM     12  H   UNL     1       5.602   3.188  19.233  0.00  0.00    +0.000 HD
ENDROOT
BRANCH   8  13
ATOM     13  S   UNL     1       3.329   3.650  17.620  0.00  0.00    +0.000 S 
ATOM     14  O   UNL     1       2.201   4.035  16.787  0.00  0.00    +0.000 OA
ATOM     15  O   UNL     1       4.159   2.539  17.181  0.00  0.00    +0.000 OA
BRANCH  13  16
ATOM     16  C   UNL     1       2.613   3.161  19.220  0.00  0.00    +0.000 A 
ATOM     17  C   UNL     1       3.413   2.613  20.240  0.00  0.00    +0.000 A 
ATOM     18  C   UNL     1       2.900   2.438  21.528  0.00  0.00    +0.000 A 
ATOM     19  C   UNL     1       1.597   2.824  21.822  0.00  0.00    +0.000 A 
ATOM     20  C   UNL     1       0.786   3.356  20.815  0.00  0.00    +0.000 A 
ATOM     21  C   UNL     1       1.295   3.534  19.522  0.00  0.00    +0.000 A 
ENDBRANCH  13  16
ENDBRANCH   8  13
BRANCH   1  22
ATOM     22  N   UNL     1       2.648   6.830  17.723  0.00  0.00    +0.000 N 
ATOM     23  H   UNL     1       2.005   6.043  17.842  0.00  0.00    +0.000 HD
BRANCH  22  29
ATOM     24  C   UNL     1       0.653   8.764  21.928  0.00  0.00    +0.000 C 
ATOM     25  C   UNL     1       1.117   8.914  20.505  0.00  0.00    +0.000 A 
ATOM     26  C   UNL     1       0.692  10.021  19.762  0.00  0.00    +0.000 A 
ATOM     27  C   UNL     1       1.021  10.120  18.417  0.00  0.00    +0.000 A 
ATOM     28  C   UNL     1       1.725   9.081  17.788  0.00  0.00    +0.000 A 
ATOM     29  C   UNL     1       2.124   7.929  18.487  0.00  0.00    +0.000 A 
ATOM     30  C   UNL     1       1.867   7.893  19.869  0.00  0.00    +0.000 A 
ENDBRANCH  22  29
ENDBRANCH   1  22
TORSDOF 4
ENDMDL
MODEL 9
REMARK VINA RESULT:      -7.9      2.871      5.661
REMARK  Name = 
REMARK  5 active torsions:
REMARK  status: ('A' for Active; 'I' for Inactive)
REMARK    1  A    between atoms: C_1  and  C_2
REMARK    2  A    between atoms: C_6  and  N_7
REMARK    3  A    between atoms: N_7  and  C_8
REMARK    4  A    between atoms: C_15  and  S_16
REMARK    5  A    between atoms: S_16  and  C_19
REMARK                            x       y       z     vdW  Elec       q    Type
REMARK                         _______ _______ _______ _____ _____    ______ ____
ROOT
ATOM      1  C   UNL     1       5.225   3.808  16.565  0.00  0.00    +0.000 A 
ATOM      2  N   UNL     1       5.535   3.112  15.449  0.00  0.00    +0.000 NA
ATOM      3  C   UNL     1       5.835   3.790  14.349  0.00  0.00    +0.000 A 
ATOM      4  N   UNL     1       6.430   3.130  13.305  0.00  0.00    +0.000 N 
ATOM      5  N   UNL     1       5.619   5.096  14.201  0.00  0.00    +0.000 NA
ATOM      6  C   UNL     1       5.357   5.788  15.313  0.00  0.00    +0.000 A 
ATOM      7  N   UNL     1       5.143   7.147  15.090  0.00  0.00    +0.000 N 
ATOM      8  C   UNL     1       5.368   5.195  16.559  0.00  0.00    +0.000 A 
ATOM      9  H   UNL     1       6.333   2.128  13.369  0.00  0.00    +0.000 HD
ATOM     10  H   UNL     1       6.290   3.590  12.419  0.00  0.00    +0.000 HD
ATOM     11  H   UNL     1       4.959   7.286  14.097  0.00  0.00    +0.000 HD
ATOM     12  H   UNL     1       4.406   7.548  15.677  0.00  0.00    +0.000 HD
ENDROOT
BRANCH   8  13
ATOM     13  S   UNL     1       5.377   6.229  17.979  0.00  0.00    +0.000 S 
ATOM     14  O   UNL     1       5.780   5.396  19.101  0.00  0.00    +0.000 OA
ATOM     15  O   UNL     1       6.205   7.376  17.643  0.00  0.00    +0.000 OA
BRANCH  13  16
ATOM     16  C   UNL     1       3.738   6.885  18.418  0.00  0.00    +0.000 A 
ATOM     17  C   UNL     1       3.095   6.505  19.611  0.00  0.00    +0.000 A 
ATOM     18  C   UNL     1       1.943   7.169  20.040  0.00  0.00    +0.000 A 
ATOM     19  C   UNL     1       1.429   8.229  19.300  0.00  0.00    +0.000 A 
ATOM     20  C   UNL     1       2.047   8.607  18.105  0.00  0.00    +0.000 A 
ATOM     21  C   UNL     1       3.203   7.946  17.671  0.00  0.00    +0.000 A 
ENDBRANCH  13  16
ENDBRANCH   8  13
BRANCH   1  22
ATOM     22  N   UNL     1       4.745   3.052  17.664  0.00  0.00    +0.000 N 
ATOM     23  H   UNL     1       5.486   2.895  18.352  0.00  0.00    +0.000 HD
BRANCH  22  29
ATOM     24  C   UNL     1       1.938   2.452  21.806  0.00  0.00    +0.000 C 
ATOM     25  C   UNL     1       2.089   2.884  20.373  0.00  0.00    +0.000 A 
ATOM     26  C   UNL     1       0.943   3.061  19.590  0.00  0.00    +0.000 A 
ATOM     27  C   UNL     1       1.067   3.354  18.239  0.00  0.00    +0.000 A 
ATOM     28  C   UNL     1       2.338   3.410  17.646  0.00  0.00    +0.000 A 
ATOM     29  C   UNL     1       3.511   3.186  18.387  0.00  0.00    +0.000 A 
ATOM     30  C   UNL     1       3.369   2.988  19.772  0.00  0.00    +0.000 A 
ENDBRANCH  22  29
ENDBRANCH   1  22
TORSDOF 4
ENDMDL
