MODEL 1
REMARK VINA RESULT:      -7.2      0.000      0.000
REMARK  Name = 
REMARK  4 active torsions:
REMARK  status: ('A' for Active; 'I' for Inactive)
REMARK    1  A    between atoms: C_1  and  C_2
REMARK    2  A    between atoms: N_4  and  C_5
REMARK    3  A    between atoms: C_7  and  C_8
REMARK    4  A    between atoms: C_11  and  C_12
REMARK                            x       y       z     vdW  Elec       q    Type
REMARK                         _______ _______ _______ _____ _____    ______ ____
ROOT
ATOM      1  C   UNL     1       3.731   4.842  17.537  0.00  0.00    +0.000 A 
ATOM      2  C   UNL     1       4.540   4.078  16.672  0.00  0.00    +0.000 A 
ATOM      3  C   UNL     1       5.423   4.672  15.756  0.00  0.00    +0.000 A 
ATOM      4  C   UNL     1       6.252   3.838  14.825  0.00  0.00    +0.000 C 
ATOM      5  C   UNL     1       5.522   6.061  15.717  0.00  0.00    +0.000 A 
ATOM      6  C   UNL     1       4.739   6.840  16.565  0.00  0.00    +0.000 A 
ATOM      7  C   UNL     1       3.841   6.253  17.478  0.00  0.00    +0.000 A 
ATOM      8  C   UNL     1       3.085   7.185  18.387  0.00  0.00    +0.000 C 
ENDROOT
BRANCH   1  12
ATOM      9  C   UNL     1       2.385   2.715  21.680  0.00  0.00    +0.000 C 
ATOM     10  C   UNL     1       2.311   3.240  20.289  0.00  0.00    +0.000 C 
ATOM     11  N   UNL     1       3.307   3.799  19.679  0.00  0.00    +0.000 NA
ATOM     12  N   UNL     1       2.849   4.177  18.434  0.00  0.00    +0.000 N 
ATOM     13  C   UNL     1       1.489   3.876  18.226  0.00  0.00    +0.000 C 
ATOM     14  O   UNL     1       0.758   4.080  17.272  0.00  0.00    +0.000 OA
ATOM     15  C   UNL     1       1.073   3.141  19.466  0.00  0.00    +0.000 C 
ENDBRANCH   1  12
TORSDOF 1
ENDMDL
MODEL 2
REMARK VINA RESULT:      -7.0      2.365      5.143
REMARK  Name = 
REMARK  4 active torsions:
REMARK  status: ('A' for Active; 'I' for Inactive)
REMARK    1  A    between atoms: C_1  and  C_2
REMARK    2  A    between atoms: N_4  and  C_5
REMARK    3  A    between atoms: C_7  and  C_8
REMARK    4  A    between atoms: C_11  and  C_12
REMARK                            x       y       z     vdW  Elec       q    Type
REMARK                         _______ _______ _______ _____ _____    ______ ____
ROOT
ATOM      1  C   UNL     1       3.992   4.874  18.822  0.00  0.00    +0.000 A 
ATOM      2  C   UNL     1       3.628   3.834  19.702  0.00  0.00    +0.000 A 
ATOM      3  C   UNL     1       2.555   3.956  20.599  0.00  0.00    +0.000 A 
ATOM      4  C   UNL     1       2.206   2.847  21.547  0.00  0.00    +0.000 C 
ATOM      5  C   UNL     1       1.808   5.132  20.604  0.00  0.00    +0.000 A 
ATOM      6  C   UNL     1       2.141   6.172  19.740  0.00  0.00    +0.000 A 
ATOM      7  C   UNL     1       3.224   6.064  18.846  0.00  0.00    +0.000 A 
ATOM      8  C   UNL     1       3.462   7.226  17.918  0.00  0.00    +0.000 C 
ENDROOT
BRANCH   1  12
ATOM      9  C   UNL     1       6.218   3.922  14.622  0.00  0.00    +0.000 C 
ATOM     10  C   UNL     1       6.028   4.255  16.061  0.00  0.00    +0.000 C 
ATOM     11  N   UNL     1       4.869   4.336  16.632  0.00  0.00    +0.000 NA
ATOM     12  N   UNL     1       5.097   4.690  17.946  0.00  0.00    +0.000 N 
ATOM     13  C   UNL     1       6.462   4.871  18.245  0.00  0.00    +0.000 C 
ATOM     14  O   UNL     1       7.021   5.199  19.277  0.00  0.00    +0.000 OA
ATOM     15  C   UNL     1       7.176   4.500  16.979  0.00  0.00    +0.000 C 
ENDBRANCH   1  12
TORSDOF 1
ENDMDL
MODEL 3
REMARK VINA RESULT:      -6.8      2.436      5.472
REMARK  Name = 
REMARK  4 active torsions:
REMARK  status: ('A' for Active; 'I' for Inactive)
REMARK    1  A    between atoms: C_1  and  C_2
REMARK    2  A    between atoms: N_4  and  C_5
REMARK    3  A    between atoms: C_7  and  C_8
REMARK    4  A    between atoms: C_11  and  C_12
REMARK                            x       y       z     vdW  Elec       q    Type
REMARK                         _______ _______ _______ _____ _____    ______ ____
ROOT
ATOM      1  C   UNL     1       3.646   4.129  18.682  0.00  0.00    +0.000 A 
ATOM      2  C   UNL     1       3.137   5.299  19.283  0.00  0.00    +0.000 A 
ATOM      3  C   UNL     1       2.015   5.277  20.126  0.00  0.00    +0.000 A 
ATOM      4  C   UNL     1       1.474   6.540  20.730  0.00  0.00    +0.000 C 
ATOM      5  C   UNL     1       1.398   4.059  20.399  0.00  0.00    +0.000 A 
ATOM      6  C   UNL     1       1.884   2.887  19.824  0.00  0.00    +0.000 A 
ATOM      7  C   UNL     1       3.001   2.901  18.966  0.00  0.00    +0.000 A 
ATOM      8  C   UNL     1       3.477   1.571  18.444  0.00  0.00    +0.000 C 
ENDROOT
BRANCH   1  12
ATOM      9  C   UNL     1       6.045   4.107  14.470  0.00  0.00    +0.000 C 
ATOM     10  C   UNL     1       5.790   4.195  15.933  0.00  0.00    +0.000 C 
ATOM     11  N   UNL     1       4.622   4.041  16.469  0.00  0.00    +0.000 NA
ATOM     12  N   UNL     1       4.780   4.222  17.828  0.00  0.00    +0.000 N 
ATOM     13  C   UNL     1       6.103   4.531  18.197  0.00  0.00    +0.000 C 
ATOM     14  O   UNL     1       6.598   4.772  19.286  0.00  0.00    +0.000 OA
ATOM     15  C   UNL     1       6.880   4.448  16.917  0.00  0.00    +0.000 C 
ENDBRANCH   1  12
TORSDOF 1
ENDMDL
MODEL 4
REMARK VINA RESULT:      -6.7      1.668      2.028
REMARK  Name = 
REMARK  4 active torsions:
REMARK  status: ('A' for Active; 'I' for Inactive)
REMARK    1  A    between atoms: C_1  and  C_2
REMARK    2  A    between atoms: N_4  and  C_5
REMARK    3  A    between atoms: C_7  and  C_8
REMARK    4  A    between atoms: C_11  and  C_12
REMARK                            x       y       z     vdW  Elec       q    Type
REMARK                         _______ _______ _______ _____ _____    ______ ____
ROOT
ATOM      1  C   UNL     1       4.257   4.576  17.097  0.00  0.00    +0.000 A 
ATOM      2  C   UNL     1       4.974   3.945  16.060  0.00  0.00    +0.000 A 
ATOM      3  C   UNL     1       5.658   4.674  15.075  0.00  0.00    +0.000 A 
ATOM      4  C   UNL     1       6.390   3.981  13.964  0.00  0.00    +0.000 C 
ATOM      5  C   UNL     1       5.650   6.066  15.136  0.00  0.00    +0.000 A 
ATOM      6  C   UNL     1       4.955   6.715  16.153  0.00  0.00    +0.000 A 
ATOM      7  C   UNL     1       4.255   5.992  17.139  0.00  0.00    +0.000 A 
ATOM      8  C   UNL     1       3.584   6.791  18.224  0.00  0.00    +0.000 C 
ENDROOT
BRANCH   1  12
ATOM      9  C   UNL     1       0.513   2.166  19.014  0.00  0.00    +0.000 C 
ATOM     10  C   UNL     1       1.881   2.732  18.861  0.00  0.00    +0.000 C 
ATOM     11  N   UNL     1       2.243   3.475  17.864  0.00  0.00    +0.000 NA
ATOM     12  N   UNL     1       3.575   3.778  18.058  0.00  0.00    +0.000 N 
ATOM     13  C   UNL     1       4.117   3.191  19.218  0.00  0.00    +0.000 C 
ATOM     14  O   UNL     1       5.243   3.224  19.683  0.00  0.00    +0.000 OA
ATOM     15  C   UNL     1       2.953   2.507  19.871  0.00  0.00    +0.000 C 
ENDBRANCH   1  12
TORSDOF 1
ENDMDL
MODEL 5
REMARK VINA RESULT:      -6.6      2.234      2.582
REMARK  Name = 
REMARK  4 active torsions:
REMARK  status: ('A' for Active; 'I' for Inactive)
REMARK    1  A    between atoms: C_1  and  C_2
REMARK    2  A    between atoms: N_4  and  C_5
REMARK    3  A    between atoms: C_7  and  C_8
REMARK    4  A    between atoms: C_11  and  C_12
REMARK                            x       y       z     vdW  Elec       q    Type
REMARK                         _______ _______ _______ _____ _____    ______ ____
ROOT
ATOM      1  C   UNL     1       5.158   4.292  17.832  0.00  0.00    +0.000 A 
ATOM      2  C   UNL     1       4.920   3.930  16.490  0.00  0.00    +0.000 A 
ATOM      3  C   UNL     1       5.801   4.282  15.456  0.00  0.00    +0.000 A 
ATOM      4  C   UNL     1       5.511   3.911  14.031  0.00  0.00    +0.000 C 
ATOM      5  C   UNL     1       6.960   4.989  15.765  0.00  0.00    +0.000 A 
ATOM      6  C   UNL     1       7.224   5.353  17.083  0.00  0.00    +0.000 A 
ATOM      7  C   UNL     1       6.339   5.017  18.127  0.00  0.00    +0.000 A 
ATOM      8  C   UNL     1       6.747   5.411  19.521  0.00  0.00    +0.000 C 
ENDROOT
BRANCH   1  12
ATOM      9  C   UNL     1       1.051   4.560  20.393  0.00  0.00    +0.000 C 
ATOM     10  C   UNL     1       2.386   4.086  19.936  0.00  0.00    +0.000 C 
ATOM     11  N   UNL     1       3.060   4.648  18.985  0.00  0.00    +0.000 NA
ATOM     12  N   UNL     1       4.219   3.915  18.832  0.00  0.00    +0.000 N 
ATOM     13  C   UNL     1       4.299   2.812  19.704  0.00  0.00    +0.000 C 
ATOM     14  O   UNL     1       5.151   1.950  19.832  0.00  0.00    +0.000 OA
ATOM     15  C   UNL     1       3.074   2.923  20.564  0.00  0.00    +0.000 C 
ENDBRANCH   1  12
TORSDOF 1
ENDMDL
MODEL 6
REMARK VINA RESULT:      -6.6      1.835      2.309
REMARK  Name = 
REMARK  4 active torsions:
REMARK  status: ('A' for Active; 'I' for Inactive)
REMARK    1  A    between atoms: C_1  and  C_2
REMARK    2  A    between atoms: N_4  and  C_5
REMARK    3  A    between atoms: C_7  and  C_8
REMARK    4  A    between atoms: C_11  and  C_12
REMARK                            x       y       z     vdW  Elec       q    Type
REMARK                         _______ _______ _______ _____ _____    ______ ____
ROOT
ATOM      1  C   UNL     1       4.823   4.460  16.986  0.00  0.00    +0.000 A 
ATOM      2  C   UNL     1       4.964   4.157  15.616  0.00  0.00    +0.000 A 
ATOM      3  C   UNL     1       6.200   4.242  14.956  0.00  0.00    +0.000 A 
ATOM      4  C   UNL     1       6.319   3.943  13.491  0.00  0.00    +0.000 C 
ATOM      5  C   UNL     1       7.330   4.612  15.682  0.00  0.00    +0.000 A 
ATOM      6  C   UNL     1       7.221   4.909  17.038  0.00  0.00    +0.000 A 
ATOM      7  C   UNL     1       5.982   4.840  17.706  0.00  0.00    +0.000 A 
ATOM      8  C   UNL     1       5.986   5.129  19.183  0.00  0.00    +0.000 C 
ENDROOT
BRANCH   1  12
ATOM      9  C   UNL     1       0.950   2.223  18.855  0.00  0.00    +0.000 C 
ATOM     10  C   UNL     1       1.848   3.321  18.402  0.00  0.00    +0.000 C 
ATOM     11  N   UNL     1       2.996   3.121  17.837  0.00  0.00    +0.000 NA
ATOM     12  N   UNL     1       3.539   4.366  17.591  0.00  0.00    +0.000 N 
ATOM     13  C   UNL     1       2.725   5.426  18.034  0.00  0.00    +0.000 C 
ATOM     14  O   UNL     1       2.891   6.633  18.004  0.00  0.00    +0.000 OA
ATOM     15  C   UNL     1       1.482   4.758  18.542  0.00  0.00    +0.000 C 
ENDBRANCH   1  12
TORSDOF 1
ENDMDL
MODEL 7
REMARK VINA RESULT:      -6.6      2.190      2.755
REMARK  Name = 
REMARK  4 active torsions:
REMARK  status: ('A' for Active; 'I' for Inactive)
REMARK    1  A    between atoms: C_1  and  C_2
REMARK    2  A    between atoms: N_4  and  C_5
REMARK    3  A    between atoms: C_7  and  C_8
REMARK    4  A    between atoms: C_11  and  C_12
REMARK                            x       y       z     vdW  Elec       q    Type
REMARK                         _______ _______ _______ _____ _____    ______ ____
ROOT
ATOM      1  C   UNL     1       4.606   4.657  18.752  0.00  0.00    +0.000 A 
ATOM      2  C   UNL     1       5.755   5.287  19.273  0.00  0.00    +0.000 A 
ATOM      3  C   UNL     1       6.944   5.399  18.535  0.00  0.00    +0.000 A 
ATOM      4  C   UNL     1       8.163   6.048  19.122  0.00  0.00    +0.000 C 
ATOM      5  C   UNL     1       6.984   4.895  17.237  0.00  0.00    +0.000 A 
ATOM      6  C   UNL     1       5.862   4.274  16.695  0.00  0.00    +0.000 A 
ATOM      7  C   UNL     1       4.668   4.145  17.433  0.00  0.00    +0.000 A 
ATOM      8  C   UNL     1       3.498   3.507  16.732  0.00  0.00    +0.000 C 
ENDROOT
BRANCH   1  12
ATOM      9  C   UNL     1       1.455   2.566  21.784  0.00  0.00    +0.000 C 
ATOM     10  C   UNL     1       2.073   3.588  20.896  0.00  0.00    +0.000 C 
ATOM     11  N   UNL     1       3.170   3.395  20.236  0.00  0.00    +0.000 NA
ATOM     12  N   UNL     1       3.436   4.567  19.557  0.00  0.00    +0.000 N 
ATOM     13  C   UNL     1       2.487   5.579  19.799  0.00  0.00    +0.000 C 
ATOM     14  O   UNL     1       2.416   6.726  19.394  0.00  0.00    +0.000 OA
ATOM     15  C   UNL     1       1.456   4.925  20.671  0.00  0.00    +0.000 C 
ENDBRANCH   1  12
TORSDOF 1
ENDMDL
MODEL 8
REMARK VINA RESULT:      -6.6      1.944      2.266
REMARK  Name = 
REMARK  4 active torsions:
REMARK  status: ('A' for Active; 'I' for Inactive)
REMARK    1  A    between atoms: C_1  and  C_2
REMARK    2  A    between atoms: N_4  and  C_5
REMARK    3  A    between atoms: C_7  and  C_8
REMARK    4  A    between atoms: C_11  and  C_12
REMARK                            x       y       z     vdW  Elec       q    Type
REMARK                         _______ _______ _______ _____ _____    ______ ____
ROOT
ATOM      1  C   UNL     1       5.059   4.750  17.770  0.00  0.00    +0.000 A 
ATOM      2  C   UNL     1       4.776   4.374  16.441  0.00  0.00    +0.000 A 
ATOM      3  C   UNL     1       5.767   4.342  15.447  0.00  0.00    +0.000 A 
ATOM      4  C   UNL     1       5.435   3.967  14.033  0.00  0.00    +0.000 C 
ATOM      5  C   UNL     1       7.077   4.669  15.788  0.00  0.00    +0.000 A 
ATOM      6  C   UNL     1       7.386   5.038  17.095  0.00  0.00    +0.000 A 
ATOM      7  C   UNL     1       6.396   5.085  18.096  0.00  0.00    +0.000 A 
ATOM      8  C   UNL     1       6.848   5.443  19.487  0.00  0.00    +0.000 C 
ENDROOT
BRANCH   1  12
ATOM      9  C   UNL     1       2.269   3.030  21.341  0.00  0.00    +0.000 C 
ATOM     10  C   UNL     1       2.800   3.956  20.304  0.00  0.00    +0.000 C 
ATOM     11  N   UNL     1       3.789   3.665  19.521  0.00  0.00    +0.000 NA
ATOM     12  N   UNL     1       4.006   4.773  18.727  0.00  0.00    +0.000 N 
ATOM     13  C   UNL     1       3.138   5.843  19.015  0.00  0.00    +0.000 C 
ATOM     14  O   UNL     1       3.057   6.962  18.537  0.00  0.00    +0.000 OA
ATOM     15  C   UNL     1       2.210   5.303  20.062  0.00  0.00    +0.000 C 
ENDBRANCH   1  12
TORSDOF 1
ENDMDL
MODEL 9
REMARK VINA RESULT:      -6.5      2.345      5.118
REMARK  Name = 
REMARK  4 active torsions:
REMARK  status: ('A' for Active; 'I' for Inactive)
REMARK    1  A    between atoms: C_1  and  C_2
REMARK    2  A    between atoms: N_4  and  C_5
REMARK    3  A    between atoms: C_7  and  C_8
REMARK    4  A    between atoms: C_11  and  C_12
REMARK                            x       y       z     vdW  Elec       q    Type
REMARK                         _______ _______ _______ _____ _____    ______ ____
ROOT
ATOM      1  C   UNL     1       3.982   4.508  17.665  0.00  0.00    +0.000 A 
ATOM      2  C   UNL     1       3.374   3.306  18.083  0.00  0.00    +0.000 A 
ATOM      3  C   UNL     1       2.203   3.292  18.857  0.00  0.00    +0.000 A 
ATOM      4  C   UNL     1       1.592   2.000  19.314  0.00  0.00    +0.000 C 
ATOM      5  C   UNL     1       1.607   4.502  19.204  0.00  0.00    +0.000 A 
ATOM      6  C   UNL     1       2.182   5.704  18.799  0.00  0.00    +0.000 A 
ATOM      7  C   UNL     1       3.364   5.728  18.033  0.00  0.00    +0.000 A 
ATOM      8  C   UNL     1       3.870   7.080  17.602  0.00  0.00    +0.000 C 
ENDROOT
BRANCH   1  12
ATOM      9  C   UNL     1       6.643   4.268  13.621  0.00  0.00    +0.000 C 
ATOM     10  C   UNL     1       6.301   4.340  15.068  0.00  0.00    +0.000 C 
ATOM     11  N   UNL     1       5.087   4.351  15.519  0.00  0.00    +0.000 NA
ATOM     12  N   UNL     1       5.175   4.453  16.892  0.00  0.00    +0.000 N 
ATOM     13  C   UNL     1       6.500   4.535  17.361  0.00  0.00    +0.000 C 
ATOM     14  O   UNL     1       6.946   4.653  18.490  0.00  0.00    +0.000 OA
ATOM     15  C   UNL     1       7.344   4.380  16.131  0.00  0.00    +0.000 C 
ENDBRANCH   1  12
TORSDOF 1
ENDMDL
