MODEL 1
REMARK VINA RESULT:      -7.1      0.000      0.000
REMARK  Name = 
REMARK  5 active torsions:
REMARK  status: ('A' for Active; 'I' for Inactive)
REMARK    1  A    between atoms: C_1  and  O_2
REMARK    2  A    between atoms: O_2  and  C_3
REMARK    3  A    between atoms: C_6  and  O_7
REMARK    4  A    between atoms: O_7  and  C_8
REMARK    5  A    between atoms: C_13  and  C_14
REMARK                            x       y       z     vdW  Elec       q    Type
REMARK                         _______ _______ _______ _____ _____    ______ ____
ROOT
ATOM      1  O   UNL     1       4.372   4.753  16.539  0.00  0.00    +0.000 OA
ENDROOT
BRANCH   1   2
ATOM      2  C   UNL     1       5.603   4.059  16.595  0.00  0.00    +0.000 C 
ATOM      3  C   UNL     1       6.596   4.480  17.678  0.00  0.00    +0.000 C 
ATOM      4  O   UNL     1       6.432   4.544  18.886  0.00  0.00    +0.000 OA
ATOM      5  N   UNL     1       7.771   4.764  17.001  0.00  0.00    +0.000 N 
ATOM      6  N   UNL     1       7.688   4.693  15.642  0.00  0.00    +0.000 NA
ATOM      7  C   UNL     1       6.466   4.334  15.373  0.00  0.00    +0.000 C 
ATOM      8  C   UNL     1       5.979   4.095  13.985  0.00  0.00    +0.000 C 
ATOM      9  H   UNL     1       8.625   5.061  17.460  0.00  0.00    +0.000 HD
ENDBRANCH   1   2
BRANCH   1  13
ATOM     10  C   UNL     1       1.588   3.422  19.368  0.00  0.00    +0.000 A 
ATOM     11  C   UNL     1       1.991   4.753  19.383  0.00  0.00    +0.000 A 
ATOM     12  C   UNL     1       2.900   5.236  18.442  0.00  0.00    +0.000 A 
ATOM     13  C   UNL     1       3.441   4.385  17.478  0.00  0.00    +0.000 A 
ATOM     14  C   UNL     1       3.017   3.055  17.443  0.00  0.00    +0.000 A 
ATOM     15  C   UNL     1       2.097   2.569  18.389  0.00  0.00    +0.000 A 
BRANCH  10  17
ATOM     16  C   UNL     1       1.339   2.704  21.611  0.00  0.00    +0.000 C 
ATOM     17  O   UNL     1       0.738   3.077  20.381  0.00  0.00    +0.000 OA
ENDBRANCH  10  17
ENDBRANCH   1  13
TORSDOF 3
ENDMDL
MODEL 2
REMARK VINA RESULT:      -6.9      0.825      1.368
REMARK  Name = 
REMARK  5 active torsions:
REMARK  status: ('A' for Active; 'I' for Inactive)
REMARK    1  A    between atoms: C_1  and  O_2
REMARK    2  A    between atoms: O_2  and  C_3
REMARK    3  A    between atoms: C_6  and  O_7
REMARK    4  A    between atoms: O_7  and  C_8
REMARK    5  A    between atoms: C_13  and  C_14
REMARK                            x       y       z     vdW  Elec       q    Type
REMARK                         _______ _______ _______ _____ _____    ______ ____
ROOT
ATOM      1  O   UNL     1       4.365   4.404  16.170  0.00  0.00    +0.000 OA
ENDROOT
BRANCH   1   2
ATOM      2  C   UNL     1       5.769   4.337  16.328  0.00  0.00    +0.000 C 
ATOM      3  C   UNL     1       6.429   5.419  17.181  0.00  0.00    +0.000 C 
ATOM      4  O   UNL     1       6.188   5.741  18.334  0.00  0.00    +0.000 OA
ATOM      5  N   UNL     1       7.409   5.970  16.372  0.00  0.00    +0.000 N 
ATOM      6  N   UNL     1       7.439   5.496  15.094  0.00  0.00    +0.000 NA
ATOM      7  C   UNL     1       6.500   4.598  15.020  0.00  0.00    +0.000 C 
ATOM      8  C   UNL     1       6.238   3.801  13.788  0.00  0.00    +0.000 C 
ATOM      9  H   UNL     1       8.031   6.713  16.671  0.00  0.00    +0.000 HD
ENDBRANCH   1   2
BRANCH   1  13
ATOM     10  C   UNL     1       1.966   3.122  19.351  0.00  0.00    +0.000 A 
ATOM     11  C   UNL     1       2.934   2.264  18.841  0.00  0.00    +0.000 A 
ATOM     12  C   UNL     1       3.766   2.666  17.795  0.00  0.00    +0.000 A 
ATOM     13  C   UNL     1       3.627   3.932  17.226  0.00  0.00    +0.000 A 
ATOM     14  C   UNL     1       2.674   4.806  17.756  0.00  0.00    +0.000 A 
ATOM     15  C   UNL     1       1.838   4.402  18.812  0.00  0.00    +0.000 A 
BRANCH  10  17
ATOM     16  C   UNL     1       1.695   2.653  21.657  0.00  0.00    +0.000 C 
ATOM     17  O   UNL     1       1.189   2.576  20.334  0.00  0.00    +0.000 OA
ENDBRANCH  10  17
ENDBRANCH   1  13
TORSDOF 3
ENDMDL
MODEL 3
REMARK VINA RESULT:      -6.9      3.381      5.804
REMARK  Name = 
REMARK  5 active torsions:
REMARK  status: ('A' for Active; 'I' for Inactive)
REMARK    1  A    between atoms: C_1  and  O_2
REMARK    2  A    between atoms: O_2  and  C_3
REMARK    3  A    between atoms: C_6  and  O_7
REMARK    4  A    between atoms: O_7  and  C_8
REMARK    5  A    between atoms: C_13  and  C_14
REMARK                            x       y       z     vdW  Elec       q    Type
REMARK                         _______ _______ _______ _____ _____    ______ ____
ROOT
ATOM      1  O   UNL     1       3.917   3.067  19.027  0.00  0.00    +0.000 OA
ENDROOT
BRANCH   1   2
ATOM      2  C   UNL     1       2.895   3.670  19.797  0.00  0.00    +0.000 C 
ATOM      3  C   UNL     1       2.381   2.894  21.009  0.00  0.00    +0.000 C 
ATOM      4  O   UNL     1       3.007   2.451  21.958  0.00  0.00    +0.000 OA
ATOM      5  N   UNL     1       1.010   2.808  20.829  0.00  0.00    +0.000 N 
ATOM      6  N   UNL     1       0.548   3.315  19.650  0.00  0.00    +0.000 NA
ATOM      7  C   UNL     1       1.590   3.777  19.022  0.00  0.00    +0.000 C 
ATOM      8  C   UNL     1       1.501   4.464  17.703  0.00  0.00    +0.000 C 
ATOM      9  H   UNL     1       0.385   2.355  21.486  0.00  0.00    +0.000 HD
ENDBRANCH   1   2
BRANCH   1  13
ATOM     10  C   UNL     1       6.638   5.662  17.189  0.00  0.00    +0.000 A 
ATOM     11  C   UNL     1       6.470   5.718  18.569  0.00  0.00    +0.000 A 
ATOM     12  C   UNL     1       5.588   4.853  19.217  0.00  0.00    +0.000 A 
ATOM     13  C   UNL     1       4.839   3.929  18.489  0.00  0.00    +0.000 A 
ATOM     14  C   UNL     1       5.028   3.852  17.107  0.00  0.00    +0.000 A 
ATOM     15  C   UNL     1       5.920   4.720  16.454  0.00  0.00    +0.000 A 
BRANCH  10  17
ATOM     16  C   UNL     1       7.708   7.754  17.488  0.00  0.00    +0.000 C 
ATOM     17  O   UNL     1       7.491   6.605  16.686  0.00  0.00    +0.000 OA
ENDBRANCH  10  17
ENDBRANCH   1  13
TORSDOF 3
ENDMDL
MODEL 4
REMARK VINA RESULT:      -6.7      0.988      1.000
REMARK  Name = 
REMARK  5 active torsions:
REMARK  status: ('A' for Active; 'I' for Inactive)
REMARK    1  A    between atoms: C_1  and  O_2
REMARK    2  A    between atoms: O_2  and  C_3
REMARK    3  A    between atoms: C_6  and  O_7
REMARK    4  A    between atoms: O_7  and  C_8
REMARK    5  A    between atoms: C_13  and  C_14
REMARK                            x       y       z     vdW  Elec       q    Type
REMARK                         _______ _______ _______ _____ _____    ______ ____
ROOT
ATOM      1  O   UNL     1       4.278   5.571  16.637  0.00  0.00    +0.000 OA
ENDROOT
BRANCH   1   2
ATOM      2  C   UNL     1       5.582   5.025  16.668  0.00  0.00    +0.000 C 
ATOM      3  C   UNL     1       6.680   5.870  17.312  0.00  0.00    +0.000 C 
ATOM      4  O   UNL     1       6.719   6.352  18.433  0.00  0.00    +0.000 OA
ATOM      5  N   UNL     1       7.673   5.968  16.351  0.00  0.00    +0.000 N 
ATOM      6  N   UNL     1       7.368   5.408  15.145  0.00  0.00    +0.000 NA
ATOM      7  C   UNL     1       6.177   4.899  15.274  0.00  0.00    +0.000 C 
ATOM      8  C   UNL     1       5.497   4.146  14.182  0.00  0.00    +0.000 C 
ATOM      9  H   UNL     1       8.545   6.464  16.494  0.00  0.00    +0.000 HD
ENDBRANCH   1   2
BRANCH   1  13
ATOM     10  C   UNL     1       1.757   4.179  19.674  0.00  0.00    +0.000 A 
ATOM     11  C   UNL     1       2.391   5.407  19.826  0.00  0.00    +0.000 A 
ATOM     12  C   UNL     1       3.221   5.912  18.825  0.00  0.00    +0.000 A 
ATOM     13  C   UNL     1       3.448   5.182  17.658  0.00  0.00    +0.000 A 
ATOM     14  C   UNL     1       2.788   3.961  17.491  0.00  0.00    +0.000 A 
ATOM     15  C   UNL     1       1.949   3.454  18.498  0.00  0.00    +0.000 A 
BRANCH  10  17
ATOM     16  C   UNL     1       1.544   2.711  21.521  0.00  0.00    +0.000 C 
ATOM     17  O   UNL     1       1.020   3.785  20.756  0.00  0.00    +0.000 OA
ENDBRANCH  10  17
ENDBRANCH   1  13
TORSDOF 3
ENDMDL
MODEL 5
REMARK VINA RESULT:      -6.7      1.500      2.359
REMARK  Name = 
REMARK  5 active torsions:
REMARK  status: ('A' for Active; 'I' for Inactive)
REMARK    1  A    between atoms: C_1  and  O_2
REMARK    2  A    between atoms: O_2  and  C_3
REMARK    3  A    between atoms: C_6  and  O_7
REMARK    4  A    between atoms: O_7  and  C_8
REMARK    5  A    between atoms: C_13  and  C_14
REMARK                            x       y       z     vdW  Elec       q    Type
REMARK                         _______ _______ _______ _____ _____    ______ ____
ROOT
ATOM      1  O   UNL     1       5.400   3.503  16.736  0.00  0.00    +0.000 OA
ENDROOT
BRANCH   1   2
ATOM      2  C   UNL     1       5.596   4.670  15.961  0.00  0.00    +0.000 C 
ATOM      3  C   UNL     1       6.210   4.493  14.572  0.00  0.00    +0.000 C 
ATOM      4  O   UNL     1       5.828   3.792  13.649  0.00  0.00    +0.000 OA
ATOM      5  N   UNL     1       7.311   5.334  14.553  0.00  0.00    +0.000 N 
ATOM      6  N   UNL     1       7.580   5.961  15.734  0.00  0.00    +0.000 NA
ATOM      7  C   UNL     1       6.654   5.581  16.565  0.00  0.00    +0.000 C 
ATOM      8  C   UNL     1       6.565   6.087  17.963  0.00  0.00    +0.000 C 
ATOM      9  H   UNL     1       7.919   5.443  13.749  0.00  0.00    +0.000 HD
ENDBRANCH   1   2
BRANCH   1  13
ATOM     10  C   UNL     1       2.030   3.616  19.216  0.00  0.00    +0.000 A 
ATOM     11  C   UNL     1       3.257   3.240  19.752  0.00  0.00    +0.000 A 
ATOM     12  C   UNL     1       4.405   3.212  18.959  0.00  0.00    +0.000 A 
ATOM     13  C   UNL     1       4.339   3.541  17.605  0.00  0.00    +0.000 A 
ATOM     14  C   UNL     1       3.114   3.947  17.072  0.00  0.00    +0.000 A 
ATOM     15  C   UNL     1       1.958   3.979  17.871  0.00  0.00    +0.000 A 
BRANCH  10  17
ATOM     16  C   UNL     1       1.238   2.890  21.326  0.00  0.00    +0.000 C 
ATOM     17  O   UNL     1       0.984   3.544  20.093  0.00  0.00    +0.000 OA
ENDBRANCH  10  17
ENDBRANCH   1  13
TORSDOF 3
ENDMDL
MODEL 6
REMARK VINA RESULT:      -6.6      3.504      5.958
REMARK  Name = 
REMARK  5 active torsions:
REMARK  status: ('A' for Active; 'I' for Inactive)
REMARK    1  A    between atoms: C_1  and  O_2
REMARK    2  A    between atoms: O_2  and  C_3
REMARK    3  A    between atoms: C_6  and  O_7
REMARK    4  A    between atoms: O_7  and  C_8
REMARK    5  A    between atoms: C_13  and  C_14
REMARK                            x       y       z     vdW  Elec       q    Type
REMARK                         _______ _______ _______ _____ _____    ______ ____
ROOT
ATOM      1  O   UNL     1       3.973   4.262  19.632  0.00  0.00    +0.000 OA
ENDROOT
BRANCH   1   2
ATOM      2  C   UNL     1       2.632   4.293  19.184  0.00  0.00    +0.000 C 
ATOM      3  C   UNL     1       1.567   4.726  20.191  0.00  0.00    +0.000 C 
ATOM      4  O   UNL     1       1.505   5.754  20.846  0.00  0.00    +0.000 OA
ATOM      5  N   UNL     1       0.637   3.699  20.199  0.00  0.00    +0.000 N 
ATOM      6  N   UNL     1       0.963   2.617  19.436  0.00  0.00    +0.000 NA
ATOM      7  C   UNL     1       2.104   2.900  18.876  0.00  0.00    +0.000 C 
ATOM      8  C   UNL     1       2.784   1.984  17.917  0.00  0.00    +0.000 C 
ATOM      9  H   UNL     1      -0.202   3.707  20.768  0.00  0.00    +0.000 HD
ENDBRANCH   1   2
BRANCH   1  13
ATOM     10  C   UNL     1       6.463   6.829  17.456  0.00  0.00    +0.000 A 
ATOM     11  C   UNL     1       7.001   6.080  18.498  0.00  0.00    +0.000 A 
ATOM     12  C   UNL     1       6.205   5.199  19.230  0.00  0.00    +0.000 A 
ATOM     13  C   UNL     1       4.846   5.067  18.944  0.00  0.00    +0.000 A 
ATOM     14  C   UNL     1       4.310   5.797  17.880  0.00  0.00    +0.000 A 
ATOM     15  C   UNL     1       5.113   6.682  17.140  0.00  0.00    +0.000 A 
BRANCH  10  17
ATOM     16  C   UNL     1       8.056   8.560  17.731  0.00  0.00    +0.000 C 
ATOM     17  O   UNL     1       7.345   7.689  16.865  0.00  0.00    +0.000 OA
ENDBRANCH  10  17
ENDBRANCH   1  13
TORSDOF 3
ENDMDL
MODEL 7
REMARK VINA RESULT:      -6.6      3.204      5.914
REMARK  Name = 
REMARK  5 active torsions:
REMARK  status: ('A' for Active; 'I' for Inactive)
REMARK    1  A    between atoms: C_1  and  O_2
REMARK    2  A    between atoms: O_2  and  C_3
REMARK    3  A    between atoms: C_6  and  O_7
REMARK    4  A    between atoms: O_7  and  C_8
REMARK    5  A    between atoms: C_13  and  C_14
REMARK                            x       y       z     vdW  Elec       q    Type
REMARK                         _______ _______ _______ _____ _____    ______ ____
ROOT
ATOM      1  O   UNL     1       4.061   4.574  19.546  0.00  0.00    +0.000 OA
ENDROOT
BRANCH   1   2
ATOM      2  C   UNL     1       2.702   4.320  19.249  0.00  0.00    +0.000 C 
ATOM      3  C   UNL     1       1.663   4.781  20.270  0.00  0.00    +0.000 C 
ATOM      4  O   UNL     1       1.484   5.897  20.732  0.00  0.00    +0.000 OA
ATOM      5  N   UNL     1       0.919   3.651  20.566  0.00  0.00    +0.000 N 
ATOM      6  N   UNL     1       1.358   2.500  19.981  0.00  0.00    +0.000 NA
ATOM      7  C   UNL     1       2.388   2.831  19.259  0.00  0.00    +0.000 C 
ATOM      8  C   UNL     1       3.131   1.855  18.413  0.00  0.00    +0.000 C 
ATOM      9  H   UNL     1       0.138   3.647  21.213  0.00  0.00    +0.000 HD
ENDBRANCH   1   2
BRANCH   1  13
ATOM     10  C   UNL     1       6.642   5.352  16.344  0.00  0.00    +0.000 A 
ATOM     11  C   UNL     1       5.288   5.641  16.212  0.00  0.00    +0.000 A 
ATOM     12  C   UNL     1       4.403   5.415  17.267  0.00  0.00    +0.000 A 
ATOM     13  C   UNL     1       4.857   4.873  18.469  0.00  0.00    +0.000 A 
ATOM     14  C   UNL     1       6.222   4.609  18.613  0.00  0.00    +0.000 A 
ATOM     15  C   UNL     1       7.114   4.840  17.552  0.00  0.00    +0.000 A 
BRANCH  10  17
ATOM     16  C   UNL     1       7.024   4.810  14.070  0.00  0.00    +0.000 C 
ATOM     17  O   UNL     1       7.379   5.571  15.214  0.00  0.00    +0.000 OA
ENDBRANCH  10  17
ENDBRANCH   1  13
TORSDOF 3
ENDMDL
MODEL 8
REMARK VINA RESULT:      -6.5      1.110      1.664
REMARK  Name = 
REMARK  5 active torsions:
REMARK  status: ('A' for Active; 'I' for Inactive)
REMARK    1  A    between atoms: C_1  and  O_2
REMARK    2  A    between atoms: O_2  and  C_3
REMARK    3  A    between atoms: C_6  and  O_7
REMARK    4  A    between atoms: O_7  and  C_8
REMARK    5  A    between atoms: C_13  and  C_14
REMARK                            x       y       z     vdW  Elec       q    Type
REMARK                         _______ _______ _______ _____ _____    ______ ____
ROOT
ATOM      1  O   UNL     1       4.343   5.483  16.596  0.00  0.00    +0.000 OA
ENDROOT
BRANCH   1   2
ATOM      2  C   UNL     1       5.691   5.056  16.575  0.00  0.00    +0.000 C 
ATOM      3  C   UNL     1       6.741   6.025  17.117  0.00  0.00    +0.000 C 
ATOM      4  O   UNL     1       6.797   6.563  18.211  0.00  0.00    +0.000 OA
ATOM      5  N   UNL     1       7.668   6.162  16.096  0.00  0.00    +0.000 N 
ATOM      6  N   UNL     1       7.350   5.519  14.936  0.00  0.00    +0.000 NA
ATOM      7  C   UNL     1       6.219   4.914  15.156  0.00  0.00    +0.000 C 
ATOM      8  C   UNL     1       5.552   4.051  14.140  0.00  0.00    +0.000 C 
ATOM      9  H   UNL     1       8.498   6.740  16.165  0.00  0.00    +0.000 HD
ENDBRANCH   1   2
BRANCH   1  13
ATOM     10  C   UNL     1       2.032   4.453  19.930  0.00  0.00    +0.000 A 
ATOM     11  C   UNL     1       2.501   3.448  19.091  0.00  0.00    +0.000 A 
ATOM     12  C   UNL     1       3.292   3.754  17.983  0.00  0.00    +0.000 A 
ATOM     13  C   UNL     1       3.610   5.078  17.683  0.00  0.00    +0.000 A 
ATOM     14  C   UNL     1       3.164   6.087  18.542  0.00  0.00    +0.000 A 
ATOM     15  C   UNL     1       2.371   5.779  19.660  0.00  0.00    +0.000 A 
BRANCH  10  17
ATOM     16  C   UNL     1       1.481   2.707  21.433  0.00  0.00    +0.000 C 
ATOM     17  O   UNL     1       1.225   4.013  20.942  0.00  0.00    +0.000 OA
ENDBRANCH  10  17
ENDBRANCH   1  13
TORSDOF 3
ENDMDL
MODEL 9
REMARK VINA RESULT:      -6.5      3.526      5.981
REMARK  Name = 
REMARK  5 active torsions:
REMARK  status: ('A' for Active; 'I' for Inactive)
REMARK    1  A    between atoms: C_1  and  O_2
REMARK    2  A    between atoms: O_2  and  C_3
REMARK    3  A    between atoms: C_6  and  O_7
REMARK    4  A    between atoms: O_7  and  C_8
REMARK    5  A    between atoms: C_13  and  C_14
REMARK                            x       y       z     vdW  Elec       q    Type
REMARK                         _______ _______ _______ _____ _____    ______ ____
ROOT
ATOM      1  O   UNL     1       3.967   4.206  19.411  0.00  0.00    +0.000 OA
ENDROOT
BRANCH   1   2
ATOM      2  C   UNL     1       2.598   4.338  19.082  0.00  0.00    +0.000 C 
ATOM      3  C   UNL     1       1.650   4.781  20.195  0.00  0.00    +0.000 C 
ATOM      4  O   UNL     1       1.706   5.777  20.899  0.00  0.00    +0.000 OA
ATOM      5  N   UNL     1       0.661   3.812  20.237  0.00  0.00    +0.000 N 
ATOM      6  N   UNL     1       0.854   2.752  19.400  0.00  0.00    +0.000 NA
ATOM      7  C   UNL     1       1.960   2.995  18.758  0.00  0.00    +0.000 C 
ATOM      8  C   UNL     1       2.499   2.091  17.704  0.00  0.00    +0.000 C 
ATOM      9  H   UNL     1      -0.126   3.840  20.876  0.00  0.00    +0.000 HD
ENDBRANCH   1   2
BRANCH   1  13
ATOM     10  C   UNL     1       6.709   6.832  17.649  0.00  0.00    +0.000 A 
ATOM     11  C   UNL     1       5.388   6.833  17.212  0.00  0.00    +0.000 A 
ATOM     12  C   UNL     1       4.443   5.986  17.792  0.00  0.00    +0.000 A 
ATOM     13  C   UNL     1       4.810   5.105  18.808  0.00  0.00    +0.000 A 
ATOM     14  C   UNL     1       6.130   5.123  19.268  0.00  0.00    +0.000 A 
ATOM     15  C   UNL     1       7.081   5.978  18.687  0.00  0.00    +0.000 A 
BRANCH  10  17
ATOM     16  C   UNL     1       8.087   8.758  17.678  0.00  0.00    +0.000 C 
ATOM     17  O   UNL     1       7.534   7.671  16.954  0.00  0.00    +0.000 OA
ENDBRANCH  10  17
ENDBRANCH   1  13
TORSDOF 3
ENDMDL
