MODEL 1
REMARK VINA RESULT:      -7.7      0.000      0.000
REMARK  Name = 
REMARK  7 active torsions:
REMARK  status: ('A' for Active; 'I' for Inactive)
REMARK    1  A    between atoms: C_1  and  O_2
REMARK    2  A    between atoms: O_2  and  C_3
REMARK    3  A    between atoms: C_7  and  C_8
REMARK    4  A    between atoms: N_12  and  C_13
REMARK    5  A    between atoms: N_19  and  C_20
REMARK    6  A    between atoms: C_20  and  C_21
REMARK    7  A    between atoms: C_21  and  O_22
REMARK                            x       y       z     vdW  Elec       q    Type
REMARK                         _______ _______ _______ _____ _____    ______ ____
ROOT
ATOM      1  C   UNL     1       1.121   6.452  20.978  0.00  0.00    +0.000 C 
ATOM      2  C   UNL     1       2.025   5.703  20.327  0.00  0.00    +0.000 C 
ATOM      3  S   UNL     1       3.262   6.276  19.282  0.00  0.00    +0.000 S 
ATOM      4  C   UNL     1       4.137   4.764  19.350  0.00  0.00    +0.000 C 
ATOM      5  N   UNL     1       5.371   4.546  19.018  0.00  0.00    +0.000 NA
ATOM      6  N   UNL     1       3.302   3.789  19.844  0.00  0.00    +0.000 N 
ATOM      7  C   UNL     1       2.143   4.228  20.462  0.00  0.00    +0.000 C 
ATOM      8  O   UNL     1       1.335   3.535  21.063  0.00  0.00    +0.000 OA
ENDROOT
BRANCH   1  13
ATOM      9  C   UNL     1       0.549  10.062  21.875  0.00  0.00    +0.000 A 
ATOM     10  C   UNL     1       0.732  10.669  20.631  0.00  0.00    +0.000 A 
ATOM     11  C   UNL     1       1.116   9.916  19.521  0.00  0.00    +0.000 A 
ATOM     12  C   UNL     1       1.298   8.539  19.645  0.00  0.00    +0.000 A 
ATOM     13  C   UNL     1       1.105   7.918  20.884  0.00  0.00    +0.000 A 
ATOM     14  C   UNL     1       0.758   8.688  22.004  0.00  0.00    +0.000 A 
BRANCH   9  16
ATOM     15  C   UNL     1      -1.165  11.470  22.737  0.00  0.00    +0.000 C 
ATOM     16  O   UNL     1       0.134  10.906  22.870  0.00  0.00    +0.000 OA
ENDBRANCH   9  16
ENDBRANCH   1  13
BRANCH   5  17
ATOM     17  C   UNL     1       6.229   5.572  18.571  0.00  0.00    +0.000 A 
ATOM     18  C   UNL     1       7.448   5.887  19.190  0.00  0.00    +0.000 A 
ATOM     19  C   UNL     1       8.236   6.953  18.749  0.00  0.00    +0.000 A 
ATOM     20  C   UNL     1       7.864   7.664  17.612  0.00  0.00    +0.000 A 
ATOM     21  C   UNL     1       6.709   7.301  16.922  0.00  0.00    +0.000 A 
ATOM     22  C   UNL     1       5.896   6.270  17.403  0.00  0.00    +0.000 A 
ENDBRANCH   5  17
BRANCH   6  23
ATOM     23  C   UNL     1       3.656   2.372  19.860  0.00  0.00    +0.000 C 
BRANCH  23  24
ATOM     24  C   UNL     1       3.169   1.629  18.610  0.00  0.00    +0.000 C 
BRANCH  24  25
ATOM     25  O   UNL     1       1.755   1.450  18.633  0.00  0.00    +0.000 OA
ATOM     26  H   UNL     1       1.465   1.557  19.556  0.00  0.00    +0.000 HD
ENDBRANCH  24  25
ENDBRANCH  23  24
ENDBRANCH   6  23
TORSDOF 6
ENDMDL
MODEL 2
REMARK VINA RESULT:      -7.6      4.925      9.286
REMARK  Name = 
REMARK  7 active torsions:
REMARK  status: ('A' for Active; 'I' for Inactive)
REMARK    1  A    between atoms: C_1  and  O_2
REMARK    2  A    between atoms: O_2  and  C_3
REMARK    3  A    between atoms: C_7  and  C_8
REMARK    4  A    between atoms: N_12  and  C_13
REMARK    5  A    between atoms: N_19  and  C_20
REMARK    6  A    between atoms: C_20  and  C_21
REMARK    7  A    between atoms: C_21  and  O_22
REMARK                            x       y       z     vdW  Elec       q    Type
REMARK                         _______ _______ _______ _____ _____    ______ ____
ROOT
ATOM      1  C   UNL     1       6.706   4.504  13.778  0.00  0.00    +0.000 C 
ATOM      2  C   UNL     1       6.242   4.873  14.982  0.00  0.00    +0.000 C 
ATOM      3  S   UNL     1       4.721   4.452  15.662  0.00  0.00    +0.000 S 
ATOM      4  C   UNL     1       5.219   4.911  17.274  0.00  0.00    +0.000 C 
ATOM      5  N   UNL     1       4.661   4.589  18.399  0.00  0.00    +0.000 NA
ATOM      6  N   UNL     1       6.351   5.688  17.185  0.00  0.00    +0.000 N 
ATOM      7  C   UNL     1       7.016   5.669  15.970  0.00  0.00    +0.000 C 
ATOM      8  O   UNL     1       8.093   6.192  15.725  0.00  0.00    +0.000 OA
ENDROOT
BRANCH   1  13
ATOM      9  C   UNL     1       5.871   1.723  11.382  0.00  0.00    +0.000 A 
ATOM     10  C   UNL     1       4.637   2.164  10.897  0.00  0.00    +0.000 A 
ATOM     11  C   UNL     1       4.044   3.321  11.404  0.00  0.00    +0.000 A 
ATOM     12  C   UNL     1       4.696   4.060  12.390  0.00  0.00    +0.000 A 
ATOM     13  C   UNL     1       5.938   3.636  12.875  0.00  0.00    +0.000 A 
ATOM     14  C   UNL     1       6.509   2.451  12.388  0.00  0.00    +0.000 A 
BRANCH   9  16
ATOM     15  C   UNL     1       6.010  -0.651  11.352  0.00  0.00    +0.000 C 
ATOM     16  O   UNL     1       6.359   0.600  10.773  0.00  0.00    +0.000 OA
ENDBRANCH   9  16
ENDBRANCH   1  13
BRANCH   5  17
ATOM     17  C   UNL     1       3.536   3.741  18.472  0.00  0.00    +0.000 A 
ATOM     18  C   UNL     1       3.624   2.352  18.649  0.00  0.00    +0.000 A 
ATOM     19  C   UNL     1       2.484   1.545  18.655  0.00  0.00    +0.000 A 
ATOM     20  C   UNL     1       1.223   2.128  18.581  0.00  0.00    +0.000 A 
ATOM     21  C   UNL     1       1.110   3.515  18.507  0.00  0.00    +0.000 A 
ATOM     22  C   UNL     1       2.258   4.312  18.445  0.00  0.00    +0.000 A 
ENDBRANCH   5  17
BRANCH   6  23
ATOM     23  C   UNL     1       6.925   6.391  18.329  0.00  0.00    +0.000 C 
BRANCH  23  24
ATOM     24  C   UNL     1       8.021   5.578  19.031  0.00  0.00    +0.000 C 
BRANCH  24  25
ATOM     25  O   UNL     1       7.809   5.534  20.440  0.00  0.00    +0.000 OA
ATOM     26  H   UNL     1       7.695   6.450  20.744  0.00  0.00    +0.000 HD
ENDBRANCH  24  25
ENDBRANCH  23  24
ENDBRANCH   6  23
TORSDOF 6
ENDMDL
MODEL 3
REMARK VINA RESULT:      -7.3      2.813      7.119
REMARK  Name = 
REMARK  7 active torsions:
REMARK  status: ('A' for Active; 'I' for Inactive)
REMARK    1  A    between atoms: C_1  and  O_2
REMARK    2  A    between atoms: O_2  and  C_3
REMARK    3  A    between atoms: C_7  and  C_8
REMARK    4  A    between atoms: N_12  and  C_13
REMARK    5  A    between atoms: N_19  and  C_20
REMARK    6  A    between atoms: C_20  and  C_21
REMARK    7  A    between atoms: C_21  and  O_22
REMARK                            x       y       z     vdW  Elec       q    Type
REMARK                         _______ _______ _______ _____ _____    ______ ____
ROOT
ATOM      1  C   UNL     1       5.196   3.248  17.669  0.00  0.00    +0.000 C 
ATOM      2  C   UNL     1       4.529   3.906  18.630  0.00  0.00    +0.000 C 
ATOM      3  S   UNL     1       4.195   5.591  18.670  0.00  0.00    +0.000 S 
ATOM      4  C   UNL     1       2.967   5.404  19.901  0.00  0.00    +0.000 C 
ATOM      5  N   UNL     1       2.045   6.251  20.236  0.00  0.00    +0.000 NA
ATOM      6  N   UNL     1       3.108   4.167  20.485  0.00  0.00    +0.000 N 
ATOM      7  C   UNL     1       3.902   3.255  19.809  0.00  0.00    +0.000 C 
ATOM      8  O   UNL     1       4.059   2.077  20.098  0.00  0.00    +0.000 OA
ENDROOT
BRANCH   1  13
ATOM      9  C   UNL     1       5.702   4.196  14.061  0.00  0.00    +0.000 A 
ATOM     10  C   UNL     1       6.895   4.918  14.150  0.00  0.00    +0.000 A 
ATOM     11  C   UNL     1       7.490   5.161  15.388  0.00  0.00    +0.000 A 
ATOM     12  C   UNL     1       6.904   4.661  16.550  0.00  0.00    +0.000 A 
ATOM     13  C   UNL     1       5.716   3.925  16.473  0.00  0.00    +0.000 A 
ATOM     14  C   UNL     1       5.103   3.719  15.228  0.00  0.00    +0.000 A 
BRANCH   9  16
ATOM     15  C   UNL     1       5.879   2.971  12.030  0.00  0.00    +0.000 C 
ATOM     16  O   UNL     1       5.246   3.995  12.787  0.00  0.00    +0.000 OA
ENDBRANCH   9  16
ENDBRANCH   1  13
BRANCH   5  17
ATOM     17  C   UNL     1       1.879   7.490  19.584  0.00  0.00    +0.000 A 
ATOM     18  C   UNL     1       2.214   7.708  18.239  0.00  0.00    +0.000 A 
ATOM     19  C   UNL     1       2.090   8.969  17.651  0.00  0.00    +0.000 A 
ATOM     20  C   UNL     1       1.533  10.018  18.376  0.00  0.00    +0.000 A 
ATOM     21  C   UNL     1       1.099   9.797  19.682  0.00  0.00    +0.000 A 
ATOM     22  C   UNL     1       1.279   8.545  20.281  0.00  0.00    +0.000 A 
ENDBRANCH   5  17
BRANCH   6  23
ATOM     23  C   UNL     1       2.363   3.759  21.673  0.00  0.00    +0.000 C 
BRANCH  23  24
ATOM     24  C   UNL     1       1.186   2.832  21.341  0.00  0.00    +0.000 C 
BRANCH  24  25
ATOM     25  O   UNL     1       0.394   3.362  20.281  0.00  0.00    +0.000 OA
ATOM     26  H   UNL     1      -0.147   2.633  19.931  0.00  0.00    +0.000 HD
ENDBRANCH  24  25
ENDBRANCH  23  24
ENDBRANCH   6  23
TORSDOF 6
ENDMDL
MODEL 4
REMARK VINA RESULT:      -7.3      2.522      4.747
REMARK  Name = 
REMARK  7 active torsions:
REMARK  status: ('A' for Active; 'I' for Inactive)
REMARK    1  A    between atoms: C_1  and  O_2
REMARK    2  A    between atoms: O_2  and  C_3
REMARK    3  A    between atoms: C_7  and  C_8
REMARK    4  A    between atoms: N_12  and  C_13
REMARK    5  A    between atoms: N_19  and  C_20
REMARK    6  A    between atoms: C_20  and  C_21
REMARK    7  A    between atoms: C_21  and  O_22
REMARK                            x       y       z     vdW  Elec       q    Type
REMARK                         _______ _______ _______ _____ _____    ______ ____
ROOT
ATOM      1  C   UNL     1       2.781   8.623  17.468  0.00  0.00    +0.000 C 
ATOM      2  C   UNL     1       3.371   7.438  17.688  0.00  0.00    +0.000 C 
ATOM      3  S   UNL     1       3.078   6.383  19.011  0.00  0.00    +0.000 S 
ATOM      4  C   UNL     1       3.843   5.029  18.211  0.00  0.00    +0.000 C 
ATOM      5  N   UNL     1       3.739   3.771  18.506  0.00  0.00    +0.000 NA
ATOM      6  N   UNL     1       4.596   5.501  17.161  0.00  0.00    +0.000 N 
ATOM      7  C   UNL     1       4.348   6.805  16.764  0.00  0.00    +0.000 C 
ATOM      8  O   UNL     1       4.822   7.367  15.788  0.00  0.00    +0.000 OA
ENDROOT
BRANCH   1  13
ATOM      9  C   UNL     1       0.739   9.237  20.570  0.00  0.00    +0.000 A 
ATOM     10  C   UNL     1      -0.373   9.881  20.022  0.00  0.00    +0.000 A 
ATOM     11  C   UNL     1      -0.423  10.181  18.661  0.00  0.00    +0.000 A 
ATOM     12  C   UNL     1       0.635   9.819  17.830  0.00  0.00    +0.000 A 
ATOM     13  C   UNL     1       1.750   9.163  18.364  0.00  0.00    +0.000 A 
ATOM     14  C   UNL     1       1.810   8.899  19.741  0.00  0.00    +0.000 A 
BRANCH   9  16
ATOM     15  C   UNL     1      -0.314   9.708  22.650  0.00  0.00    +0.000 C 
ATOM     16  O   UNL     1       0.644   8.965  21.907  0.00  0.00    +0.000 OA
ENDBRANCH   9  16
ENDBRANCH   1  13
BRANCH   5  17
ATOM     17  C   UNL     1       2.913   3.302  19.549  0.00  0.00    +0.000 A 
ATOM     18  C   UNL     1       1.512   3.334  19.501  0.00  0.00    +0.000 A 
ATOM     19  C   UNL     1       0.735   2.915  20.584  0.00  0.00    +0.000 A 
ATOM     20  C   UNL     1       1.349   2.361  21.702  0.00  0.00    +0.000 A 
ATOM     21  C   UNL     1       2.736   2.226  21.729  0.00  0.00    +0.000 A 
ATOM     22  C   UNL     1       3.510   2.700  20.664  0.00  0.00    +0.000 A 
ENDBRANCH   5  17
BRANCH   6  23
ATOM     23  C   UNL     1       5.510   4.658  16.395  0.00  0.00    +0.000 C 
BRANCH  23  24
ATOM     24  C   UNL     1       6.948   4.713  16.927  0.00  0.00    +0.000 C 
BRANCH  24  25
ATOM     25  O   UNL     1       7.043   4.125  18.222  0.00  0.00    +0.000 OA
ATOM     26  H   UNL     1       6.700   4.773  18.861  0.00  0.00    +0.000 HD
ENDBRANCH  24  25
ENDBRANCH  23  24
ENDBRANCH   6  23
TORSDOF 6
ENDMDL
MODEL 5
REMARK VINA RESULT:      -7.3      2.708      4.767
REMARK  Name = 
REMARK  7 active torsions:
REMARK  status: ('A' for Active; 'I' for Inactive)
REMARK    1  A    between atoms: C_1  and  O_2
REMARK    2  A    between atoms: O_2  and  C_3
REMARK    3  A    between atoms: C_7  and  C_8
REMARK    4  A    between atoms: N_12  and  C_13
REMARK    5  A    between atoms: N_19  and  C_20
REMARK    6  A    between atoms: C_20  and  C_21
REMARK    7  A    between atoms: C_21  and  O_22
REMARK                            x       y       z     vdW  Elec       q    Type
REMARK                         _______ _______ _______ _____ _____    ______ ____
ROOT
ATOM      1  C   UNL     1       2.799   8.574  17.479  0.00  0.00    +0.000 C 
ATOM      2  C   UNL     1       3.391   7.388  17.689  0.00  0.00    +0.000 C 
ATOM      3  S   UNL     1       3.125   6.337  19.021  0.00  0.00    +0.000 S 
ATOM      4  C   UNL     1       3.868   4.979  18.208  0.00  0.00    +0.000 C 
ATOM      5  N   UNL     1       3.767   3.722  18.509  0.00  0.00    +0.000 NA
ATOM      6  N   UNL     1       4.599   5.446  17.140  0.00  0.00    +0.000 N 
ATOM      7  C   UNL     1       4.346   6.750  16.745  0.00  0.00    +0.000 C 
ATOM      8  O   UNL     1       4.800   7.309  15.758  0.00  0.00    +0.000 OA
ENDROOT
BRANCH   1  13
ATOM      9  C   UNL     1       0.771   9.136  20.599  0.00  0.00    +0.000 A 
ATOM     10  C   UNL     1      -0.307   9.857  20.079  0.00  0.00    +0.000 A 
ATOM     11  C   UNL     1      -0.335  10.224  18.733  0.00  0.00    +0.000 A 
ATOM     12  C   UNL     1       0.711   9.852  17.890  0.00  0.00    +0.000 A 
ATOM     13  C   UNL     1       1.790   9.119  18.396  0.00  0.00    +0.000 A 
ATOM     14  C   UNL     1       1.829   8.787  19.759  0.00  0.00    +0.000 A 
BRANCH   9  16
ATOM     15  C   UNL     1      -0.183   9.630  22.722  0.00  0.00    +0.000 C 
ATOM     16  O   UNL     1       0.655   8.806  21.922  0.00  0.00    +0.000 OA
ENDBRANCH   9  16
ENDBRANCH   1  13
BRANCH   5  17
ATOM     17  C   UNL     1       2.964   3.258  19.571  0.00  0.00    +0.000 A 
ATOM     18  C   UNL     1       3.484   2.756  20.773  0.00  0.00    +0.000 A 
ATOM     19  C   UNL     1       2.651   2.250  21.773  0.00  0.00    +0.000 A 
ATOM     20  C   UNL     1       1.270   2.328  21.628  0.00  0.00    +0.000 A 
ATOM     21  C   UNL     1       0.731   2.915  20.485  0.00  0.00    +0.000 A 
ATOM     22  C   UNL     1       1.572   3.368  19.462  0.00  0.00    +0.000 A 
ENDBRANCH   5  17
BRANCH   6  23
ATOM     23  C   UNL     1       5.494   4.598  16.357  0.00  0.00    +0.000 C 
BRANCH  23  24
ATOM     24  C   UNL     1       6.972   4.830  16.697  0.00  0.00    +0.000 C 
BRANCH  24  25
ATOM     25  O   UNL     1       7.528   5.874  15.902  0.00  0.00    +0.000 OA
ATOM     26  H   UNL     1       6.850   6.138  15.256  0.00  0.00    +0.000 HD
ENDBRANCH  24  25
ENDBRANCH  23  24
ENDBRANCH   6  23
TORSDOF 6
ENDMDL
MODEL 6
REMARK VINA RESULT:      -7.2      3.009      5.066
REMARK  Name = 
REMARK  7 active torsions:
REMARK  status: ('A' for Active; 'I' for Inactive)
REMARK    1  A    between atoms: C_1  and  O_2
REMARK    2  A    between atoms: O_2  and  C_3
REMARK    3  A    between atoms: C_7  and  C_8
REMARK    4  A    between atoms: N_12  and  C_13
REMARK    5  A    between atoms: N_19  and  C_20
REMARK    6  A    between atoms: C_20  and  C_21
REMARK    7  A    between atoms: C_21  and  O_22
REMARK                            x       y       z     vdW  Elec       q    Type
REMARK                         _______ _______ _______ _____ _____    ______ ____
ROOT
ATOM      1  C   UNL     1       3.203   8.485  17.253  0.00  0.00    +0.000 C 
ATOM      2  C   UNL     1       3.700   7.260  17.485  0.00  0.00    +0.000 C 
ATOM      3  S   UNL     1       3.341   6.252  18.829  0.00  0.00    +0.000 S 
ATOM      4  C   UNL     1       3.984   4.830  18.041  0.00  0.00    +0.000 C 
ATOM      5  N   UNL     1       3.783   3.589  18.358  0.00  0.00    +0.000 NA
ATOM      6  N   UNL     1       4.758   5.224  16.975  0.00  0.00    +0.000 N 
ATOM      7  C   UNL     1       4.610   6.537  16.559  0.00  0.00    +0.000 C 
ATOM      8  O   UNL     1       5.114   7.045  15.569  0.00  0.00    +0.000 OA
ENDROOT
BRANCH   1  13
ATOM      9  C   UNL     1       1.104  11.129  18.918  0.00  0.00    +0.000 A 
ATOM     10  C   UNL     1       0.665  10.435  20.047  0.00  0.00    +0.000 A 
ATOM     11  C   UNL     1       0.988   9.090  20.227  0.00  0.00    +0.000 A 
ATOM     12  C   UNL     1       1.775   8.432  19.283  0.00  0.00    +0.000 A 
ATOM     13  C   UNL     1       2.231   9.120  18.153  0.00  0.00    +0.000 A 
ATOM     14  C   UNL     1       1.869  10.462  17.960  0.00  0.00    +0.000 A 
BRANCH   9  16
ATOM     15  C   UNL     1      -0.581  12.754  18.490  0.00  0.00    +0.000 C 
ATOM     16  O   UNL     1       0.752  12.451  18.883  0.00  0.00    +0.000 OA
ENDBRANCH   9  16
ENDBRANCH   1  13
BRANCH   5  17
ATOM     17  C   UNL     1       2.937   3.204  19.419  0.00  0.00    +0.000 A 
ATOM     18  C   UNL     1       1.537   3.192  19.327  0.00  0.00    +0.000 A 
ATOM     19  C   UNL     1       0.737   2.861  20.424  0.00  0.00    +0.000 A 
ATOM     20  C   UNL     1       1.330   2.440  21.609  0.00  0.00    +0.000 A 
ATOM     21  C   UNL     1       2.718   2.346  21.690  0.00  0.00    +0.000 A 
ATOM     22  C   UNL     1       3.513   2.734  20.605  0.00  0.00    +0.000 A 
ENDBRANCH   5  17
BRANCH   6  23
ATOM     23  C   UNL     1       5.591   4.298  16.212  0.00  0.00    +0.000 C 
BRANCH  23  24
ATOM     24  C   UNL     1       7.091   4.549  16.418  0.00  0.00    +0.000 C 
BRANCH  24  25
ATOM     25  O   UNL     1       7.634   5.330  15.357  0.00  0.00    +0.000 OA
ATOM     26  H   UNL     1       7.979   6.151  15.749  0.00  0.00    +0.000 HD
ENDBRANCH  24  25
ENDBRANCH  23  24
ENDBRANCH   6  23
TORSDOF 6
ENDMDL
MODEL 7
REMARK VINA RESULT:      -7.1      3.031      5.167
REMARK  Name = 
REMARK  7 active torsions:
REMARK  status: ('A' for Active; 'I' for Inactive)
REMARK    1  A    between atoms: C_1  and  O_2
REMARK    2  A    between atoms: O_2  and  C_3
REMARK    3  A    between atoms: C_7  and  C_8
REMARK    4  A    between atoms: N_12  and  C_13
REMARK    5  A    between atoms: N_19  and  C_20
REMARK    6  A    between atoms: C_20  and  C_21
REMARK    7  A    between atoms: C_21  and  O_22
REMARK                            x       y       z     vdW  Elec       q    Type
REMARK                         _______ _______ _______ _____ _____    ______ ____
ROOT
ATOM      1  C   UNL     1       2.701   8.646  17.394  0.00  0.00    +0.000 C 
ATOM      2  C   UNL     1       3.314   7.480  17.651  0.00  0.00    +0.000 C 
ATOM      3  S   UNL     1       2.985   6.421  18.963  0.00  0.00    +0.000 S 
ATOM      4  C   UNL     1       3.829   5.089  18.210  0.00  0.00    +0.000 C 
ATOM      5  N   UNL     1       3.748   3.829  18.507  0.00  0.00    +0.000 NA
ATOM      6  N   UNL     1       4.622   5.579  17.199  0.00  0.00    +0.000 N 
ATOM      7  C   UNL     1       4.356   6.873  16.782  0.00  0.00    +0.000 C 
ATOM      8  O   UNL     1       4.863   7.446  15.829  0.00  0.00    +0.000 OA
ENDROOT
BRANCH   1  13
ATOM      9  C   UNL     1      -0.551  10.253  18.402  0.00  0.00    +0.000 A 
ATOM     10  C   UNL     1      -0.328  10.451  19.766  0.00  0.00    +0.000 A 
ATOM     11  C   UNL     1       0.845   9.995  20.370  0.00  0.00    +0.000 A 
ATOM     12  C   UNL     1       1.816   9.352  19.604  0.00  0.00    +0.000 A 
ATOM     13  C   UNL     1       1.610   9.158  18.233  0.00  0.00    +0.000 A 
ATOM     14  C   UNL     1       0.411   9.585  17.642  0.00  0.00    +0.000 A 
BRANCH   9  16
ATOM     15  C   UNL     1      -2.590   9.903  17.227  0.00  0.00    +0.000 C 
ATOM     16  O   UNL     1      -1.719  10.783  17.928  0.00  0.00    +0.000 OA
ENDBRANCH   9  16
ENDBRANCH   1  13
BRANCH   5  17
ATOM     17  C   UNL     1       2.884   3.339  19.508  0.00  0.00    +0.000 A 
ATOM     18  C   UNL     1       1.503   3.169  19.324  0.00  0.00    +0.000 A 
ATOM     19  C   UNL     1       0.676   2.739  20.364  0.00  0.00    +0.000 A 
ATOM     20  C   UNL     1       1.234   2.375  21.585  0.00  0.00    +0.000 A 
ATOM     21  C   UNL     1       2.616   2.440  21.757  0.00  0.00    +0.000 A 
ATOM     22  C   UNL     1       3.431   2.926  20.729  0.00  0.00    +0.000 A 
ENDBRANCH   5  17
BRANCH   6  23
ATOM     23  C   UNL     1       5.599   4.760  16.486  0.00  0.00    +0.000 C 
BRANCH  23  24
ATOM     24  C   UNL     1       7.040   5.041  16.932  0.00  0.00    +0.000 C 
BRANCH  24  25
ATOM     25  O   UNL     1       7.582   6.168  16.249  0.00  0.00    +0.000 OA
ATOM     26  H   UNL     1       8.543   6.165  16.403  0.00  0.00    +0.000 HD
ENDBRANCH  24  25
ENDBRANCH  23  24
ENDBRANCH   6  23
TORSDOF 6
ENDMDL
MODEL 8
REMARK VINA RESULT:      -7.1      2.850      4.888
REMARK  Name = 
REMARK  7 active torsions:
REMARK  status: ('A' for Active; 'I' for Inactive)
REMARK    1  A    between atoms: C_1  and  O_2
REMARK    2  A    between atoms: O_2  and  C_3
REMARK    3  A    between atoms: C_7  and  C_8
REMARK    4  A    between atoms: N_12  and  C_13
REMARK    5  A    between atoms: N_19  and  C_20
REMARK    6  A    between atoms: C_20  and  C_21
REMARK    7  A    between atoms: C_21  and  O_22
REMARK                            x       y       z     vdW  Elec       q    Type
REMARK                         _______ _______ _______ _____ _____    ______ ____
ROOT
ATOM      1  C   UNL     1       3.238   8.443  17.251  0.00  0.00    +0.000 C 
ATOM      2  C   UNL     1       3.748   7.228  17.503  0.00  0.00    +0.000 C 
ATOM      3  S   UNL     1       3.397   6.237  18.861  0.00  0.00    +0.000 S 
ATOM      4  C   UNL     1       4.059   4.810  18.098  0.00  0.00    +0.000 C 
ATOM      5  N   UNL     1       3.872   3.572  18.433  0.00  0.00    +0.000 NA
ATOM      6  N   UNL     1       4.833   5.197  17.028  0.00  0.00    +0.000 N 
ATOM      7  C   UNL     1       4.670   6.501  16.592  0.00  0.00    +0.000 C 
ATOM      8  O   UNL     1       5.172   7.000  15.595  0.00  0.00    +0.000 OA
ENDROOT
BRANCH   1  13
ATOM      9  C   UNL     1       1.117  11.091  18.882  0.00  0.00    +0.000 A 
ATOM     10  C   UNL     1       0.666  10.401  20.010  0.00  0.00    +0.000 A 
ATOM     11  C   UNL     1       0.990   9.056  20.199  0.00  0.00    +0.000 A 
ATOM     12  C   UNL     1       1.788   8.397  19.265  0.00  0.00    +0.000 A 
ATOM     13  C   UNL     1       2.255   9.080  18.138  0.00  0.00    +0.000 A 
ATOM     14  C   UNL     1       1.893  10.421  17.936  0.00  0.00    +0.000 A 
BRANCH   9  16
ATOM     15  C   UNL     1      -0.587  12.707  18.505  0.00  0.00    +0.000 C 
ATOM     16  O   UNL     1       0.763  12.412  18.839  0.00  0.00    +0.000 OA
ENDBRANCH   9  16
ENDBRANCH   1  13
BRANCH   5  17
ATOM     17  C   UNL     1       3.027   3.193  19.497  0.00  0.00    +0.000 A 
ATOM     18  C   UNL     1       3.500   2.766  20.747  0.00  0.00    +0.000 A 
ATOM     19  C   UNL     1       2.626   2.341  21.751  0.00  0.00    +0.000 A 
ATOM     20  C   UNL     1       1.252   2.429  21.554  0.00  0.00    +0.000 A 
ATOM     21  C   UNL     1       0.760   2.947  20.357  0.00  0.00    +0.000 A 
ATOM     22  C   UNL     1       1.642   3.317  19.335  0.00  0.00    +0.000 A 
ENDBRANCH   5  17
BRANCH   6  23
ATOM     23  C   UNL     1       5.679   4.269  16.282  0.00  0.00    +0.000 C 
BRANCH  23  24
ATOM     24  C   UNL     1       7.171   4.462  16.583  0.00  0.00    +0.000 C 
BRANCH  24  25
ATOM     25  O   UNL     1       7.459   4.205  17.955  0.00  0.00    +0.000 OA
ATOM     26  H   UNL     1       8.416   4.329  18.079  0.00  0.00    +0.000 HD
ENDBRANCH  24  25
ENDBRANCH  23  24
ENDBRANCH   6  23
TORSDOF 6
ENDMDL
MODEL 9
REMARK VINA RESULT:      -7.0      2.867      4.989
REMARK  Name = 
REMARK  7 active torsions:
REMARK  status: ('A' for Active; 'I' for Inactive)
REMARK    1  A    between atoms: C_1  and  O_2
REMARK    2  A    between atoms: O_2  and  C_3
REMARK    3  A    between atoms: C_7  and  C_8
REMARK    4  A    between atoms: N_12  and  C_13
REMARK    5  A    between atoms: N_19  and  C_20
REMARK    6  A    between atoms: C_20  and  C_21
REMARK    7  A    between atoms: C_21  and  O_22
REMARK                            x       y       z     vdW  Elec       q    Type
REMARK                         _______ _______ _______ _____ _____    ______ ____
ROOT
ATOM      1  C   UNL     1       2.569   8.770  17.420  0.00  0.00    +0.000 C 
ATOM      2  C   UNL     1       3.210   7.620  17.682  0.00  0.00    +0.000 C 
ATOM      3  S   UNL     1       2.909   6.563  19.002  0.00  0.00    +0.000 S 
ATOM      4  C   UNL     1       3.781   5.245  18.254  0.00  0.00    +0.000 C 
ATOM      5  N   UNL     1       3.729   3.986  18.559  0.00  0.00    +0.000 NA
ATOM      6  N   UNL     1       4.558   5.746  17.236  0.00  0.00    +0.000 N 
ATOM      7  C   UNL     1       4.262   7.031  16.813  0.00  0.00    +0.000 C 
ATOM      8  O   UNL     1       4.752   7.609  15.854  0.00  0.00    +0.000 OA
ENDROOT
BRANCH   1  13
ATOM      9  C   UNL     1      -0.820  10.046  18.445  0.00  0.00    +0.000 A 
ATOM     10  C   UNL     1      -0.540  10.519  19.729  0.00  0.00    +0.000 A 
ATOM     11  C   UNL     1       0.728  10.354  20.287  0.00  0.00    +0.000 A 
ATOM     12  C   UNL     1       1.735   9.731  19.552  0.00  0.00    +0.000 A 
ATOM     13  C   UNL     1       1.470   9.264  18.260  0.00  0.00    +0.000 A 
ATOM     14  C   UNL     1       0.182   9.399  17.721  0.00  0.00    +0.000 A 
BRANCH   9  16
ATOM     15  C   UNL     1      -2.351  10.070  16.624  0.00  0.00    +0.000 C 
ATOM     16  O   UNL     1      -2.088  10.308  18.001  0.00  0.00    +0.000 OA
ENDBRANCH   9  16
ENDBRANCH   1  13
BRANCH   5  17
ATOM     17  C   UNL     1       2.880   3.483  19.567  0.00  0.00    +0.000 A 
ATOM     18  C   UNL     1       3.328   3.115  20.844  0.00  0.00    +0.000 A 
ATOM     19  C   UNL     1       2.461   2.563  21.791  0.00  0.00    +0.000 A 
ATOM     20  C   UNL     1       1.103   2.462  21.507  0.00  0.00    +0.000 A 
ATOM     21  C   UNL     1       0.619   2.917  20.282  0.00  0.00    +0.000 A 
ATOM     22  C   UNL     1       1.503   3.415  19.318  0.00  0.00    +0.000 A 
ENDBRANCH   5  17
BRANCH   6  23
ATOM     23  C   UNL     1       5.551   4.945  16.525  0.00  0.00    +0.000 C 
BRANCH  23  24
ATOM     24  C   UNL     1       6.924   4.966  17.209  0.00  0.00    +0.000 C 
BRANCH  24  25
ATOM     25  O   UNL     1       6.945   4.115  18.353  0.00  0.00    +0.000 OA
ATOM     26  H   UNL     1       6.411   3.330  18.140  0.00  0.00    +0.000 HD
ENDBRANCH  24  25
ENDBRANCH  23  24
ENDBRANCH   6  23
TORSDOF 6
ENDMDL
