MODEL 1
REMARK VINA RESULT:      -7.0      0.000      0.000
REMARK  Name = 
REMARK  4 active torsions:
REMARK  status: ('A' for Active; 'I' for Inactive)
REMARK    1  A    between atoms: S_2  and  C_4
REMARK    2  A    between atoms: S_2  and  N_11
REMARK    3  A    between atoms: N_14  and  C_15
REMARK    4  A    between atoms: C_15  and  C_16
REMARK                            x       y       z     vdW  Elec       q    Type
REMARK                         _______ _______ _______ _____ _____    ______ ____
ROOT
ATOM      1  N   UNL     1       5.931   6.145  17.773  0.00  0.00    +0.000 NA
ATOM      2  C   UNL     1       4.898   7.137  17.376  0.00  0.00    +0.000 C 
ATOM      3  C   UNL     1       3.489   6.603  17.086  0.00  0.00    +0.000 C 
ATOM      4  N   UNL     1       2.994   5.497  17.919  0.00  0.00    +0.000 NA
ATOM      5  C   UNL     1       4.060   4.488  18.060  0.00  0.00    +0.000 C 
ATOM      6  C   UNL     1       5.382   5.045  18.625  0.00  0.00    +0.000 C 
ENDROOT
BRANCH   1   8
ATOM      7  O   UNL     1       7.923   4.605  17.517  0.00  0.00    +0.000 OA
ATOM      8  S   UNL     1       7.234   5.667  16.805  0.00  0.00    +0.000 S 
ATOM      9  O   UNL     1       7.952   6.869  16.439  0.00  0.00    +0.000 OA
BRANCH   8  10
ATOM     10  C   UNL     1       6.644   4.948  15.288  0.00  0.00    +0.000 A 
ATOM     11  C   UNL     1       5.512   4.135  15.252  0.00  0.00    +0.000 A 
ATOM     12  C   UNL     1       5.196   3.449  14.074  0.00  0.00    +0.000 A 
ATOM     13  C   UNL     1       5.970   3.630  12.928  0.00  0.00    +0.000 A 
ATOM     14 CL   UNL     1       5.594   2.754  11.496  0.00  0.00    +0.000 Cl
ATOM     15  C   UNL     1       7.052   4.509  12.935  0.00  0.00    +0.000 A 
ATOM     16  C   UNL     1       7.389   5.170  14.118  0.00  0.00    +0.000 A 
ENDBRANCH   8  10
ENDBRANCH   1   8
BRANCH   4  17
ATOM     17  C   UNL     1       2.465   5.932  19.218  0.00  0.00    +0.000 C 
BRANCH  17  18
ATOM     18  C   UNL     1       1.988   4.770  20.060  0.00  0.00    +0.000 A 
ATOM     19  C   UNL     1       2.581   4.491  21.297  0.00  0.00    +0.000 A 
ATOM     20  C   UNL     1       2.214   3.329  21.957  0.00  0.00    +0.000 A 
ATOM     21  N   UNL     1       1.301   2.452  21.485  0.00  0.00    +0.000 NA
ATOM     22  C   UNL     1       0.726   2.754  20.302  0.00  0.00    +0.000 A 
ATOM     23  C   UNL     1       1.027   3.886  19.565  0.00  0.00    +0.000 A 
ENDBRANCH  17  18
ENDBRANCH   4  17
TORSDOF 4
ENDMDL
MODEL 2
REMARK VINA RESULT:      -6.9      0.281      1.047
REMARK  Name = 
REMARK  4 active torsions:
REMARK  status: ('A' for Active; 'I' for Inactive)
REMARK    1  A    between atoms: S_2  and  C_4
REMARK    2  A    between atoms: S_2  and  N_11
REMARK    3  A    between atoms: N_14  and  C_15
REMARK    4  A    between atoms: C_15  and  C_16
REMARK                            x       y       z     vdW  Elec       q    Type
REMARK                         _______ _______ _______ _____ _____    ______ ____
ROOT
ATOM      1  N   UNL     1       5.942   6.193  17.964  0.00  0.00    +0.000 NA
ATOM      2  C   UNL     1       4.914   7.151  17.480  0.00  0.00    +0.000 C 
ATOM      3  C   UNL     1       3.548   6.572  17.089  0.00  0.00    +0.000 C 
ATOM      4  N   UNL     1       3.023   5.458  17.891  0.00  0.00    +0.000 NA
ATOM      5  C   UNL     1       4.104   4.482  18.122  0.00  0.00    +0.000 C 
ATOM      6  C   UNL     1       5.363   5.082  18.782  0.00  0.00    +0.000 C 
ENDROOT
BRANCH   1   8
ATOM      7  O   UNL     1       8.030   4.763  17.909  0.00  0.00    +0.000 OA
ATOM      8  S   UNL     1       7.329   5.747  17.103  0.00  0.00    +0.000 S 
ATOM      9  O   UNL     1       8.000   6.971  16.720  0.00  0.00    +0.000 OA
BRANCH   8  10
ATOM     10  C   UNL     1       6.879   4.923  15.592  0.00  0.00    +0.000 A 
ATOM     11  C   UNL     1       7.525   5.196  14.386  0.00  0.00    +0.000 A 
ATOM     12  C   UNL     1       7.017   4.660  13.198  0.00  0.00    +0.000 A 
ATOM     13  C   UNL     1       5.913   3.809  13.228  0.00  0.00    +0.000 A 
ATOM     14 CL   UNL     1       5.274   3.185  11.758  0.00  0.00    +0.000 Cl
ATOM     15  C   UNL     1       5.317   3.464  14.440  0.00  0.00    +0.000 A 
ATOM     16  C   UNL     1       5.802   4.022  15.625  0.00  0.00    +0.000 A 
ENDBRANCH   8  10
ENDBRANCH   1   8
BRANCH   4  17
ATOM     17  C   UNL     1       2.384   5.885  19.142  0.00  0.00    +0.000 C 
BRANCH  17  18
ATOM     18  C   UNL     1       1.944   4.713  19.990  0.00  0.00    +0.000 A 
ATOM     19  C   UNL     1       2.459   4.528  21.279  0.00  0.00    +0.000 A 
ATOM     20  C   UNL     1       2.142   3.360  21.954  0.00  0.00    +0.000 A 
ATOM     21  N   UNL     1       1.349   2.390  21.447  0.00  0.00    +0.000 NA
ATOM     22  C   UNL     1       0.846   2.601  20.213  0.00  0.00    +0.000 A 
ATOM     23  C   UNL     1       1.105   3.732  19.458  0.00  0.00    +0.000 A 
ENDBRANCH  17  18
ENDBRANCH   4  17
TORSDOF 4
ENDMDL
MODEL 3
REMARK VINA RESULT:      -6.7      3.700      4.703
REMARK  Name = 
REMARK  4 active torsions:
REMARK  status: ('A' for Active; 'I' for Inactive)
REMARK    1  A    between atoms: S_2  and  C_4
REMARK    2  A    between atoms: S_2  and  N_11
REMARK    3  A    between atoms: N_14  and  C_15
REMARK    4  A    between atoms: C_15  and  C_16
REMARK                            x       y       z     vdW  Elec       q    Type
REMARK                         _______ _______ _______ _____ _____    ______ ____
ROOT
ATOM      1  N   UNL     1       3.869   5.191  19.590  0.00  0.00    +0.000 NA
ATOM      2  C   UNL     1       3.797   6.537  18.964  0.00  0.00    +0.000 C 
ATOM      3  C   UNL     1       2.418   7.207  18.904  0.00  0.00    +0.000 C 
ATOM      4  N   UNL     1       1.512   7.009  20.044  0.00  0.00    +0.000 NA
ATOM      5  C   UNL     1       1.530   5.586  20.430  0.00  0.00    +0.000 C 
ATOM      6  C   UNL     1       2.936   5.039  20.750  0.00  0.00    +0.000 C 
ENDROOT
BRANCH   1   8
ATOM      7  O   UNL     1       2.870   3.325  18.202  0.00  0.00    +0.000 OA
ATOM      8  S   UNL     1       4.146   3.748  18.751  0.00  0.00    +0.000 S 
ATOM      9  O   UNL     1       4.869   2.871  19.646  0.00  0.00    +0.000 OA
BRANCH   8  10
ATOM     10  C   UNL     1       5.214   4.040  17.358  0.00  0.00    +0.000 A 
ATOM     11  C   UNL     1       6.537   4.450  17.520  0.00  0.00    +0.000 A 
ATOM     12  C   UNL     1       7.278   4.841  16.399  0.00  0.00    +0.000 A 
ATOM     13  C   UNL     1       6.717   4.759  15.125  0.00  0.00    +0.000 A 
ATOM     14 CL   UNL     1       7.623   5.277  13.758  0.00  0.00    +0.000 Cl
ATOM     15  C   UNL     1       5.424   4.268  14.950  0.00  0.00    +0.000 A 
ATOM     16  C   UNL     1       4.671   3.907  16.069  0.00  0.00    +0.000 A 
ENDBRANCH   8  10
ENDBRANCH   1   8
BRANCH   4  17
ATOM     17  C   UNL     1       1.795   7.896  21.180  0.00  0.00    +0.000 C 
BRANCH  17  18
ATOM     18  C   UNL     1       0.721   8.943  21.370  0.00  0.00    +0.000 A 
ATOM     19  C   UNL     1       0.287   9.728  20.295  0.00  0.00    +0.000 A 
ATOM     20  C   UNL     1      -0.585  10.774  20.552  0.00  0.00    +0.000 A 
ATOM     21  N   UNL     1      -1.057  11.075  21.782  0.00  0.00    +0.000 NA
ATOM     22  C   UNL     1      -0.643  10.291  22.799  0.00  0.00    +0.000 A 
ATOM     23  C   UNL     1       0.228   9.226  22.646  0.00  0.00    +0.000 A 
ENDBRANCH  17  18
ENDBRANCH   4  17
TORSDOF 4
ENDMDL
MODEL 4
REMARK VINA RESULT:      -6.6      1.620      2.234
REMARK  Name = 
REMARK  4 active torsions:
REMARK  status: ('A' for Active; 'I' for Inactive)
REMARK    1  A    between atoms: S_2  and  C_4
REMARK    2  A    between atoms: S_2  and  N_11
REMARK    3  A    between atoms: N_14  and  C_15
REMARK    4  A    between atoms: C_15  and  C_16
REMARK                            x       y       z     vdW  Elec       q    Type
REMARK                         _______ _______ _______ _____ _____    ______ ____
ROOT
ATOM      1  N   UNL     1       6.094   4.640  16.750  0.00  0.00    +0.000 NA
ATOM      2  C   UNL     1       6.845   4.693  18.032  0.00  0.00    +0.000 C 
ATOM      3  C   UNL     1       6.106   5.260  19.251  0.00  0.00    +0.000 C 
ATOM      4  N   UNL     1       4.676   4.951  19.388  0.00  0.00    +0.000 NA
ATOM      5  C   UNL     1       4.018   5.137  18.081  0.00  0.00    +0.000 C 
ATOM      6  C   UNL     1       4.646   4.314  16.938  0.00  0.00    +0.000 C 
ENDROOT
BRANCH   1   8
ATOM      7  O   UNL     1       7.746   6.148  15.564  0.00  0.00    +0.000 OA
ATOM      8  S   UNL     1       6.398   5.628  15.410  0.00  0.00    +0.000 S 
ATOM      9  O   UNL     1       5.284   6.544  15.299  0.00  0.00    +0.000 OA
BRANCH   8  10
ATOM     10  C   UNL     1       6.406   4.658  13.918  0.00  0.00    +0.000 A 
ATOM     11  C   UNL     1       5.393   3.744  13.632  0.00  0.00    +0.000 A 
ATOM     12  C   UNL     1       5.537   2.879  12.542  0.00  0.00    +0.000 A 
ATOM     13  C   UNL     1       6.654   2.975  11.712  0.00  0.00    +0.000 A 
ATOM     14 CL   UNL     1       6.839   1.883  10.396  0.00  0.00    +0.000 Cl
ATOM     15  C   UNL     1       7.627   3.946  11.945  0.00  0.00    +0.000 A 
ATOM     16  C   UNL     1       7.502   4.790  13.050  0.00  0.00    +0.000 A 
ENDBRANCH   8  10
ENDBRANCH   1   8
BRANCH   4  17
ATOM     17  C   UNL     1       4.413   3.623  19.957  0.00  0.00    +0.000 C 
BRANCH  17  18
ATOM     18  C   UNL     1       2.958   3.229  19.846  0.00  0.00    +0.000 A 
ATOM     19  C   UNL     1       2.557   2.203  18.982  0.00  0.00    +0.000 A 
ATOM     20  C   UNL     1       1.200   1.984  18.803  0.00  0.00    +0.000 A 
ATOM     21  N   UNL     1       0.235   2.695  19.427  0.00  0.00    +0.000 NA
ATOM     22  C   UNL     1       0.645   3.664  20.272  0.00  0.00    +0.000 A 
ATOM     23  C   UNL     1       1.975   3.961  20.516  0.00  0.00    +0.000 A 
ENDBRANCH  17  18
ENDBRANCH   4  17
TORSDOF 4
ENDMDL
MODEL 5
REMARK VINA RESULT:      -6.6      3.246      4.327
REMARK  Name = 
REMARK  4 active torsions:
REMARK  status: ('A' for Active; 'I' for Inactive)
REMARK    1  A    between atoms: S_2  and  C_4
REMARK    2  A    between atoms: S_2  and  N_11
REMARK    3  A    between atoms: N_14  and  C_15
REMARK    4  A    between atoms: C_15  and  C_16
REMARK                            x       y       z     vdW  Elec       q    Type
REMARK                         _______ _______ _______ _____ _____    ______ ____
ROOT
ATOM      1  N   UNL     1       3.273   4.802  17.851  0.00  0.00    +0.000 NA
ATOM      2  C   UNL     1       2.037   4.669  18.664  0.00  0.00    +0.000 C 
ATOM      3  C   UNL     1       1.938   5.527  19.932  0.00  0.00    +0.000 C 
ATOM      4  N   UNL     1       2.501   6.884  19.884  0.00  0.00    +0.000 NA
ATOM      5  C   UNL     1       3.822   6.833  19.230  0.00  0.00    +0.000 C 
ATOM      6  C   UNL     1       3.804   6.201  17.824  0.00  0.00    +0.000 C 
ENDROOT
BRANCH   1   8
ATOM      7  O   UNL     1       3.809   2.371  17.389  0.00  0.00    +0.000 OA
ATOM      8  S   UNL     1       4.476   3.618  17.720  0.00  0.00    +0.000 S 
ATOM      9  O   UNL     1       5.285   3.704  18.917  0.00  0.00    +0.000 OA
BRANCH   8  10
ATOM     10  C   UNL     1       5.554   3.983  16.353  0.00  0.00    +0.000 A 
ATOM     11  C   UNL     1       6.819   4.539  16.544  0.00  0.00    +0.000 A 
ATOM     12  C   UNL     1       7.553   4.975  15.436  0.00  0.00    +0.000 A 
ATOM     13  C   UNL     1       7.050   4.795  14.147  0.00  0.00    +0.000 A 
ATOM     14 CL   UNL     1       7.943   5.367  12.793  0.00  0.00    +0.000 Cl
ATOM     15  C   UNL     1       5.824   4.161  13.948  0.00  0.00    +0.000 A 
ATOM     16  C   UNL     1       5.075   3.754  15.053  0.00  0.00    +0.000 A 
ENDBRANCH   8  10
ENDBRANCH   1   8
BRANCH   4  17
ATOM     17  C   UNL     1       1.609   7.867  19.256  0.00  0.00    +0.000 C 
BRANCH  17  18
ATOM     18  C   UNL     1       1.085   8.881  20.248  0.00  0.00    +0.000 A 
ATOM     19  C   UNL     1       0.816  10.197  19.853  0.00  0.00    +0.000 A 
ATOM     20  C   UNL     1       0.484  11.123  20.829  0.00  0.00    +0.000 A 
ATOM     21  N   UNL     1       0.389  10.829  22.145  0.00  0.00    +0.000 NA
ATOM     22  C   UNL     1       0.630   9.549  22.499  0.00  0.00    +0.000 A 
ATOM     23  C   UNL     1       0.970   8.552  21.601  0.00  0.00    +0.000 A 
ENDBRANCH  17  18
ENDBRANCH   4  17
TORSDOF 4
ENDMDL
MODEL 6
REMARK VINA RESULT:      -6.5      4.037      5.398
REMARK  Name = 
REMARK  4 active torsions:
REMARK  status: ('A' for Active; 'I' for Inactive)
REMARK    1  A    between atoms: S_2  and  C_4
REMARK    2  A    between atoms: S_2  and  N_11
REMARK    3  A    between atoms: N_14  and  C_15
REMARK    4  A    between atoms: C_15  and  C_16
REMARK                            x       y       z     vdW  Elec       q    Type
REMARK                         _______ _______ _______ _____ _____    ______ ____
ROOT
ATOM      1  N   UNL     1       1.933   4.389  18.777  0.00  0.00    +0.000 NA
ATOM      2  C   UNL     1       1.540   4.186  20.195  0.00  0.00    +0.000 C 
ATOM      3  C   UNL     1       1.894   5.302  21.186  0.00  0.00    +0.000 C 
ATOM      4  N   UNL     1       1.798   6.691  20.714  0.00  0.00    +0.000 NA
ATOM      5  C   UNL     1       2.411   6.786  19.375  0.00  0.00    +0.000 C 
ATOM      6  C   UNL     1       1.810   5.815  18.338  0.00  0.00    +0.000 C 
ENDROOT
BRANCH   1   8
ATOM      7  O   UNL     1       2.692   3.276  16.634  0.00  0.00    +0.000 OA
ATOM      8  S   UNL     1       3.162   3.540  17.983  0.00  0.00    +0.000 S 
ATOM      9  O   UNL     1       3.536   2.437  18.841  0.00  0.00    +0.000 OA
BRANCH   8  10
ATOM     10  C   UNL     1       4.609   4.562  17.814  0.00  0.00    +0.000 A 
ATOM     11  C   UNL     1       5.516   4.729  18.859  0.00  0.00    +0.000 A 
ATOM     12  C   UNL     1       6.534   5.681  18.741  0.00  0.00    +0.000 A 
ATOM     13  C   UNL     1       6.678   6.410  17.560  0.00  0.00    +0.000 A 
ATOM     14 CL   UNL     1       7.911   7.603  17.438  0.00  0.00    +0.000 Cl
ATOM     15  C   UNL     1       5.826   6.184  16.480  0.00  0.00    +0.000 A 
ATOM     16  C   UNL     1       4.789   5.257  16.607  0.00  0.00    +0.000 A 
ENDBRANCH   8  10
ENDBRANCH   1   8
BRANCH   4  17
ATOM     17  C   UNL     1       0.431   7.226  20.737  0.00  0.00    +0.000 C 
BRANCH  17  18
ATOM     18  C   UNL     1       0.371   8.620  21.318  0.00  0.00    +0.000 A 
ATOM     19  C   UNL     1      -0.287   8.864  22.530  0.00  0.00    +0.000 A 
ATOM     20  C   UNL     1      -0.446  10.177  22.941  0.00  0.00    +0.000 A 
ATOM     21  N   UNL     1       0.012  11.243  22.248  0.00  0.00    +0.000 NA
ATOM     22  C   UNL     1       0.662  10.983  21.095  0.00  0.00    +0.000 A 
ATOM     23  C   UNL     1       0.870   9.708  20.598  0.00  0.00    +0.000 A 
ENDBRANCH  17  18
ENDBRANCH   4  17
TORSDOF 4
ENDMDL
MODEL 7
REMARK VINA RESULT:      -6.5      4.239      7.730
REMARK  Name = 
REMARK  4 active torsions:
REMARK  status: ('A' for Active; 'I' for Inactive)
REMARK    1  A    between atoms: S_2  and  C_4
REMARK    2  A    between atoms: S_2  and  N_11
REMARK    3  A    between atoms: N_14  and  C_15
REMARK    4  A    between atoms: C_15  and  C_16
REMARK                            x       y       z     vdW  Elec       q    Type
REMARK                         _______ _______ _______ _____ _____    ______ ____
ROOT
ATOM      1  N   UNL     1       4.230   5.936  18.543  0.00  0.00    +0.000 NA
ATOM      2  C   UNL     1       5.485   5.322  19.051  0.00  0.00    +0.000 C 
ATOM      3  C   UNL     1       6.039   4.120  18.275  0.00  0.00    +0.000 C 
ATOM      4  N   UNL     1       5.908   4.132  16.811  0.00  0.00    +0.000 NA
ATOM      5  C   UNL     1       4.545   4.568  16.455  0.00  0.00    +0.000 C 
ATOM      6  C   UNL     1       4.146   5.934  17.049  0.00  0.00    +0.000 C 
ENDROOT
BRANCH   1   8
ATOM      7  O   UNL     1       2.956   5.259  20.622  0.00  0.00    +0.000 OA
ATOM      8  S   UNL     1       2.724   5.830  19.307  0.00  0.00    +0.000 S 
ATOM      9  O   UNL     1       1.828   5.167  18.384  0.00  0.00    +0.000 OA
BRANCH   8  10
ATOM     10  C   UNL     1       2.056   7.456  19.581  0.00  0.00    +0.000 A 
ATOM     11  C   UNL     1       1.536   7.837  20.817  0.00  0.00    +0.000 A 
ATOM     12  C   UNL     1       0.860   9.056  20.932  0.00  0.00    +0.000 A 
ATOM     13  C   UNL     1       0.764   9.911  19.834  0.00  0.00    +0.000 A 
ATOM     14 CL   UNL     1      -0.101  11.391  19.977  0.00  0.00    +0.000 Cl
ATOM     15  C   UNL     1       1.358   9.573  18.620  0.00  0.00    +0.000 A 
ATOM     16  C   UNL     1       2.006   8.342  18.493  0.00  0.00    +0.000 A 
ENDBRANCH   8  10
ENDBRANCH   1   8
BRANCH   4  17
ATOM     17  C   UNL     1       6.939   4.930  16.136  0.00  0.00    +0.000 C 
BRANCH  17  18
ATOM     18  C   UNL     1       6.920   4.741  14.636  0.00  0.00    +0.000 A 
ATOM     19  C   UNL     1       6.164   3.717  14.053  0.00  0.00    +0.000 A 
ATOM     20  C   UNL     1       6.300   3.490  12.693  0.00  0.00    +0.000 A 
ATOM     21  N   UNL     1       7.110   4.211  11.887  0.00  0.00    +0.000 NA
ATOM     22  C   UNL     1       7.812   5.207  12.467  0.00  0.00    +0.000 A 
ATOM     23  C   UNL     1       7.748   5.511  13.816  0.00  0.00    +0.000 A 
ENDBRANCH  17  18
ENDBRANCH   4  17
TORSDOF 4
ENDMDL
MODEL 8
REMARK VINA RESULT:      -6.5      3.395      4.425
REMARK  Name = 
REMARK  4 active torsions:
REMARK  status: ('A' for Active; 'I' for Inactive)
REMARK    1  A    between atoms: S_2  and  C_4
REMARK    2  A    between atoms: S_2  and  N_11
REMARK    3  A    between atoms: N_14  and  C_15
REMARK    4  A    between atoms: C_15  and  C_16
REMARK                            x       y       z     vdW  Elec       q    Type
REMARK                         _______ _______ _______ _____ _____    ______ ____
ROOT
ATOM      1  N   UNL     1       2.941   4.582  18.331  0.00  0.00    +0.000 NA
ATOM      2  C   UNL     1       1.977   4.444  19.454  0.00  0.00    +0.000 C 
ATOM      3  C   UNL     1       2.075   5.470  20.590  0.00  0.00    +0.000 C 
ATOM      4  N   UNL     1       2.408   6.856  20.232  0.00  0.00    +0.000 NA
ATOM      5  C   UNL     1       3.519   6.847  19.262  0.00  0.00    +0.000 C 
ATOM      6  C   UNL     1       3.243   6.009  17.997  0.00  0.00    +0.000 C 
ENDROOT
BRANCH   1   8
ATOM      7  O   UNL     1       3.653   2.265  17.602  0.00  0.00    +0.000 OA
ATOM      8  S   UNL     1       4.230   3.528  18.029  0.00  0.00    +0.000 S 
ATOM      9  O   UNL     1       5.090   3.567  19.192  0.00  0.00    +0.000 OA
BRANCH   8  10
ATOM     10  C   UNL     1       5.202   4.118  16.661  0.00  0.00    +0.000 A 
ATOM     11  C   UNL     1       4.739   4.049  15.347  0.00  0.00    +0.000 A 
ATOM     12  C   UNL     1       5.608   4.356  14.295  0.00  0.00    +0.000 A 
ATOM     13  C   UNL     1       6.906   4.790  14.562  0.00  0.00    +0.000 A 
ATOM     14 CL   UNL     1       7.979   5.130  13.261  0.00  0.00    +0.000 Cl
ATOM     15  C   UNL     1       7.345   4.944  15.876  0.00  0.00    +0.000 A 
ATOM     16  C   UNL     1       6.491   4.608  16.928  0.00  0.00    +0.000 A 
ENDBRANCH   8  10
ENDBRANCH   1   8
BRANCH   4  17
ATOM     17  C   UNL     1       1.258   7.631  19.750  0.00  0.00    +0.000 C 
BRANCH  17  18
ATOM     18  C   UNL     1       0.951   8.814  20.641  0.00  0.00    +0.000 A 
ATOM     19  C   UNL     1       0.652   8.631  21.997  0.00  0.00    +0.000 A 
ATOM     20  C   UNL     1       0.229   9.726  22.732  0.00  0.00    +0.000 A 
ATOM     21  N   UNL     1       0.101  10.971  22.222  0.00  0.00    +0.000 NA
ATOM     22  C   UNL     1       0.415  11.128  20.919  0.00  0.00    +0.000 A 
ATOM     23  C   UNL     1       0.844  10.097  20.101  0.00  0.00    +0.000 A 
ENDBRANCH  17  18
ENDBRANCH   4  17
TORSDOF 4
ENDMDL
MODEL 9
REMARK VINA RESULT:      -6.4      3.824      4.799
REMARK  Name = 
REMARK  4 active torsions:
REMARK  status: ('A' for Active; 'I' for Inactive)
REMARK    1  A    between atoms: S_2  and  C_4
REMARK    2  A    between atoms: S_2  and  N_11
REMARK    3  A    between atoms: N_14  and  C_15
REMARK    4  A    between atoms: C_15  and  C_16
REMARK                            x       y       z     vdW  Elec       q    Type
REMARK                         _______ _______ _______ _____ _____    ______ ____
ROOT
ATOM      1  N   UNL     1       3.644   5.156  19.724  0.00  0.00    +0.000 NA
ATOM      2  C   UNL     1       3.698   6.536  19.176  0.00  0.00    +0.000 C 
ATOM      3  C   UNL     1       2.380   7.320  19.126  0.00  0.00    +0.000 C 
ATOM      4  N   UNL     1       1.431   7.133  20.233  0.00  0.00    +0.000 NA
ATOM      5  C   UNL     1       1.324   5.693  20.535  0.00  0.00    +0.000 C 
ATOM      6  C   UNL     1       2.672   5.015  20.853  0.00  0.00    +0.000 C 
ENDROOT
BRANCH   1   8
ATOM      7  O   UNL     1       2.542   3.477  18.183  0.00  0.00    +0.000 OA
ATOM      8  S   UNL     1       3.826   3.745  18.807  0.00  0.00    +0.000 S 
ATOM      9  O   UNL     1       4.424   2.752  19.674  0.00  0.00    +0.000 OA
BRANCH   8  10
ATOM     10  C   UNL     1       4.977   4.016  17.479  0.00  0.00    +0.000 A 
ATOM     11  C   UNL     1       6.302   4.378  17.718  0.00  0.00    +0.000 A 
ATOM     12  C   UNL     1       7.116   4.756  16.645  0.00  0.00    +0.000 A 
ATOM     13  C   UNL     1       6.624   4.709  15.341  0.00  0.00    +0.000 A 
ATOM     14 CL   UNL     1       7.621   5.210  14.032  0.00  0.00    +0.000 Cl
ATOM     15  C   UNL     1       5.327   4.264  15.089  0.00  0.00    +0.000 A 
ATOM     16  C   UNL     1       4.502   3.917  16.161  0.00  0.00    +0.000 A 
ENDBRANCH   8  10
ENDBRANCH   1   8
BRANCH   4  17
ATOM     17  C   UNL     1       1.755   7.927  21.425  0.00  0.00    +0.000 C 
BRANCH  17  18
ATOM     18  C   UNL     1       0.822   9.104  21.600  0.00  0.00    +0.000 A 
ATOM     19  C   UNL     1       0.223   9.365  22.838  0.00  0.00    +0.000 A 
ATOM     20  C   UNL     1      -0.739  10.361  22.908  0.00  0.00    +0.000 A 
ATOM     21  N   UNL     1      -1.126  11.109  21.852  0.00  0.00    +0.000 NA
ATOM     22  C   UNL     1      -0.519  10.854  20.674  0.00  0.00    +0.000 A 
ATOM     23  C   UNL     1       0.451   9.882  20.501  0.00  0.00    +0.000 A 
ENDBRANCH  17  18
ENDBRANCH   4  17
TORSDOF 4
ENDMDL
