MODEL 1
REMARK VINA RESULT:      -6.7      0.000      0.000
REMARK  Name = 
REMARK  9 active torsions:
REMARK  status: ('A' for Active; 'I' for Inactive)
REMARK    1  A    between atoms: C_1  and  C_2
REMARK    2  A    between atoms: C_2  and  C_3
REMARK    3  A    between atoms: C_3  and  C_4
REMARK    4  A    between atoms: N_10  and  C_11
REMARK    5  A    between atoms: C_11  and  C_12
REMARK    6  A    between atoms: C_11  and  C_13
REMARK    7  A    between atoms: C_13  and  N_14
REMARK    8  A    between atoms: C_20  and  C_21
REMARK    9  A    between atoms: C_21  and  C_22
REMARK                            x       y       z     vdW  Elec       q    Type
REMARK                         _______ _______ _______ _____ _____    ______ ____
ROOT
ATOM      1  C   UNL     1       0.100  10.205  19.936  0.00  0.00    +0.000 A 
ATOM      2  N   UNL     1       0.816   9.068  19.629  0.00  0.00    +0.000 NA
ATOM      3  C   UNL     1       1.273   8.493  20.704  0.00  0.00    +0.000 A 
ATOM      4  N   UNL     1       2.058   7.374  20.771  0.00  0.00    +0.000 N 
ATOM      5  C   UNL     1       2.723   6.962  19.643  0.00  0.00    +0.000 C 
ATOM      6  O   UNL     1       2.759   7.543  18.565  0.00  0.00    +0.000 OA
ATOM      7  N   UNL     1       3.431   5.791  19.825  0.00  0.00    +0.000 N 
ATOM      8  S   UNL     1       0.837   9.230  22.177  0.00  0.00    +0.000 S 
ATOM      9  C   UNL     1       0.049  10.496  21.291  0.00  0.00    +0.000 A 
ATOM     10  H   UNL     1       2.308   7.017  21.677  0.00  0.00    +0.000 HD
ATOM     11  H   UNL     1       3.201   5.187  20.605  0.00  0.00    +0.000 HD
ENDROOT
BRANCH   7  12
ATOM     12  C   UNL     1       4.194   5.250  18.695  0.00  0.00    +0.000 C 
ATOM     13  C   UNL     1       5.685   5.323  19.023  0.00  0.00    +0.000 C 
BRANCH  12  14
ATOM     14  C   UNL     1       3.800   3.823  18.302  0.00  0.00    +0.000 C 
BRANCH  14  15
ATOM     15  N   UNL     1       2.630   3.356  19.013  0.00  0.00    +0.000 N 
ATOM     16  C   UNL     1       1.367   3.191  18.531  0.00  0.00    +0.000 A 
ATOM     17  N   UNL     1       0.598   2.711  19.480  0.00  0.00    +0.000 NA
ATOM     18  C   UNL     1       1.449   2.609  20.544  0.00  0.00    +0.000 A 
ATOM     19  N   UNL     1       2.712   2.983  20.305  0.00  0.00    +0.000 NA
ENDBRANCH  14  15
ENDBRANCH  12  14
ENDBRANCH   7  12
BRANCH   9  20
ATOM     20  C   UNL     1      -0.535  11.680  22.001  0.00  0.00    +0.000 C 
ATOM     21  C   UNL     1      -1.484  11.289  23.121  0.00  0.00    +0.000 C 
ENDBRANCH   9  20
BRANCH   1  22
ATOM     22  C   UNL     1      -0.477  10.946  18.778  0.00  0.00    +0.000 C 
BRANCH  22  24
ATOM     23  C   UNL     1      -2.551  10.038  17.644  0.00  0.00    +0.000 C 
ATOM     24  C   UNL     1      -1.038   9.980  17.728  0.00  0.00    +0.000 C 
ENDBRANCH  22  24
ENDBRANCH   1  22
TORSDOF 6
ENDMDL
MODEL 2
REMARK VINA RESULT:      -6.7      0.939      1.140
REMARK  Name = 
REMARK  9 active torsions:
REMARK  status: ('A' for Active; 'I' for Inactive)
REMARK    1  A    between atoms: C_1  and  C_2
REMARK    2  A    between atoms: C_2  and  C_3
REMARK    3  A    between atoms: C_3  and  C_4
REMARK    4  A    between atoms: N_10  and  C_11
REMARK    5  A    between atoms: C_11  and  C_12
REMARK    6  A    between atoms: C_11  and  C_13
REMARK    7  A    between atoms: C_13  and  N_14
REMARK    8  A    between atoms: C_20  and  C_21
REMARK    9  A    between atoms: C_21  and  C_22
REMARK                            x       y       z     vdW  Elec       q    Type
REMARK                         _______ _______ _______ _____ _____    ______ ____
ROOT
ATOM      1  C   UNL     1       0.534  10.130  19.722  0.00  0.00    +0.000 A 
ATOM      2  N   UNL     1       1.200   9.008  19.279  0.00  0.00    +0.000 NA
ATOM      3  C   UNL     1       1.513   8.223  20.269  0.00  0.00    +0.000 A 
ATOM      4  N   UNL     1       2.212   7.048  20.202  0.00  0.00    +0.000 N 
ATOM      5  C   UNL     1       2.953   6.782  19.078  0.00  0.00    +0.000 C 
ATOM      6  O   UNL     1       3.131   7.533  18.126  0.00  0.00    +0.000 OA
ATOM      7  N   UNL     1       3.561   5.543  19.107  0.00  0.00    +0.000 N 
ATOM      8  S   UNL     1       0.987   8.730  21.808  0.00  0.00    +0.000 S 
ATOM      9  C   UNL     1       0.373  10.189  21.099  0.00  0.00    +0.000 A 
ATOM     10  H   UNL     1       2.349   6.522  21.048  0.00  0.00    +0.000 HD
ATOM     11  H   UNL     1       3.219   4.835  19.745  0.00  0.00    +0.000 HD
ENDROOT
BRANCH   7  12
ATOM     12  C   UNL     1       4.392   5.143  17.966  0.00  0.00    +0.000 C 
ATOM     13  C   UNL     1       5.798   4.814  18.468  0.00  0.00    +0.000 C 
BRANCH  12  14
ATOM     14  C   UNL     1       3.822   3.971  17.160  0.00  0.00    +0.000 C 
BRANCH  14  15
ATOM     15  N   UNL     1       2.806   3.241  17.888  0.00  0.00    +0.000 N 
ATOM     16  C   UNL     1       2.976   2.187  18.734  0.00  0.00    +0.000 A 
ATOM     17  N   UNL     1       1.812   1.831  19.224  0.00  0.00    +0.000 NA
ATOM     18  C   UNL     1       0.947   2.705  18.628  0.00  0.00    +0.000 A 
ATOM     19  N   UNL     1       1.510   3.598  17.806  0.00  0.00    +0.000 NA
ENDBRANCH  14  15
ENDBRANCH  12  14
ENDBRANCH   7  12
BRANCH   9  20
ATOM     20  C   UNL     1      -0.198  11.279  21.957  0.00  0.00    +0.000 C 
ATOM     21  C   UNL     1      -1.072  10.749  23.081  0.00  0.00    +0.000 C 
ENDBRANCH   9  20
BRANCH   1  22
ATOM     22  C   UNL     1       0.121  11.103  18.670  0.00  0.00    +0.000 C 
BRANCH  22  24
ATOM     23  C   UNL     1      -1.843  10.023  17.492  0.00  0.00    +0.000 C 
ATOM     24  C   UNL     1      -1.400  11.091  18.474  0.00  0.00    +0.000 C 
ENDBRANCH  22  24
ENDBRANCH   1  22
TORSDOF 6
ENDMDL
MODEL 3
REMARK VINA RESULT:      -6.6      2.774      7.440
REMARK  Name = 
REMARK  9 active torsions:
REMARK  status: ('A' for Active; 'I' for Inactive)
REMARK    1  A    between atoms: C_1  and  C_2
REMARK    2  A    between atoms: C_2  and  C_3
REMARK    3  A    between atoms: C_3  and  C_4
REMARK    4  A    between atoms: N_10  and  C_11
REMARK    5  A    between atoms: C_11  and  C_12
REMARK    6  A    between atoms: C_11  and  C_13
REMARK    7  A    between atoms: C_13  and  N_14
REMARK    8  A    between atoms: C_20  and  C_21
REMARK    9  A    between atoms: C_21  and  C_22
REMARK                            x       y       z     vdW  Elec       q    Type
REMARK                         _______ _______ _______ _____ _____    ______ ____
ROOT
ATOM      1  C   UNL     1       2.639   5.876  19.751  0.00  0.00    +0.000 A 
ATOM      2  N   UNL     1       1.961   7.049  19.494  0.00  0.00    +0.000 NA
ATOM      3  C   UNL     1       2.452   7.660  18.455  0.00  0.00    +0.000 A 
ATOM      4  N   UNL     1       2.054   8.865  17.941  0.00  0.00    +0.000 N 
ATOM      5  C   UNL     1       1.304   9.704  18.727  0.00  0.00    +0.000 C 
ATOM      6  O   UNL     1       1.003   9.529  19.902  0.00  0.00    +0.000 OA
ATOM      7  N   UNL     1       0.917  10.858  18.076  0.00  0.00    +0.000 N 
ATOM      8  S   UNL     1       3.727   6.856  17.660  0.00  0.00    +0.000 S 
ATOM      9  C   UNL     1       3.690   5.625  18.882  0.00  0.00    +0.000 A 
ATOM     10  H   UNL     1       2.501   9.201  17.106  0.00  0.00    +0.000 HD
ATOM     11  H   UNL     1       0.936  10.889  17.064  0.00  0.00    +0.000 HD
ENDROOT
BRANCH   7  12
ATOM     12  C   UNL     1       0.118  11.844  18.812  0.00  0.00    +0.000 C 
ATOM     13  C   UNL     1       1.033  12.977  19.277  0.00  0.00    +0.000 C 
BRANCH  12  14
ATOM     14  C   UNL     1      -1.068  12.403  18.019  0.00  0.00    +0.000 C 
BRANCH  14  15
ATOM     15  N   UNL     1      -1.970  11.365  17.567  0.00  0.00    +0.000 N 
ATOM     16  C   UNL     1      -2.583  11.257  16.356  0.00  0.00    +0.000 A 
ATOM     17  N   UNL     1      -3.291  10.154  16.323  0.00  0.00    +0.000 NA
ATOM     18  C   UNL     1      -3.084   9.618  17.563  0.00  0.00    +0.000 A 
ATOM     19  N   UNL     1      -2.271  10.320  18.361  0.00  0.00    +0.000 NA
ENDBRANCH  14  15
ENDBRANCH  12  14
ENDBRANCH   7  12
BRANCH   9  20
ATOM     20  C   UNL     1       4.710   4.527  18.895  0.00  0.00    +0.000 C 
ATOM     21  C   UNL     1       4.204   3.242  18.260  0.00  0.00    +0.000 C 
ENDBRANCH   9  20
BRANCH   1  22
ATOM     22  C   UNL     1       2.159   5.088  20.922  0.00  0.00    +0.000 C 
BRANCH  22  24
ATOM     23  C   UNL     1       1.355   2.724  21.343  0.00  0.00    +0.000 C 
ATOM     24  C   UNL     1       1.214   3.964  20.480  0.00  0.00    +0.000 C 
ENDBRANCH  22  24
ENDBRANCH   1  22
TORSDOF 6
ENDMDL
MODEL 4
REMARK VINA RESULT:      -6.5      2.690      7.478
REMARK  Name = 
REMARK  9 active torsions:
REMARK  status: ('A' for Active; 'I' for Inactive)
REMARK    1  A    between atoms: C_1  and  C_2
REMARK    2  A    between atoms: C_2  and  C_3
REMARK    3  A    between atoms: C_3  and  C_4
REMARK    4  A    between atoms: N_10  and  C_11
REMARK    5  A    between atoms: C_11  and  C_12
REMARK    6  A    between atoms: C_11  and  C_13
REMARK    7  A    between atoms: C_13  and  N_14
REMARK    8  A    between atoms: C_20  and  C_21
REMARK    9  A    between atoms: C_21  and  C_22
REMARK                            x       y       z     vdW  Elec       q    Type
REMARK                         _______ _______ _______ _____ _____    ______ ____
ROOT
ATOM      1  C   UNL     1       2.958   5.838  19.540  0.00  0.00    +0.000 A 
ATOM      2  N   UNL     1       2.139   6.931  19.348  0.00  0.00    +0.000 NA
ATOM      3  C   UNL     1       2.539   7.649  18.339  0.00  0.00    +0.000 A 
ATOM      4  N   UNL     1       1.991   8.821  17.892  0.00  0.00    +0.000 N 
ATOM      5  C   UNL     1       1.154   9.521  18.725  0.00  0.00    +0.000 C 
ATOM      6  O   UNL     1       0.891   9.250  19.891  0.00  0.00    +0.000 OA
ATOM      7  N   UNL     1       0.621  10.651  18.138  0.00  0.00    +0.000 N 
ATOM      8  S   UNL     1       3.893   7.049  17.496  0.00  0.00    +0.000 S 
ATOM      9  C   UNL     1       4.021   5.762  18.652  0.00  0.00    +0.000 A 
ATOM     10  H   UNL     1       2.383   9.252  17.072  0.00  0.00    +0.000 HD
ATOM     11  H   UNL     1       0.624  10.735  17.128  0.00  0.00    +0.000 HD
ENDROOT
BRANCH   7  12
ATOM     12  C   UNL     1      -0.283  11.492  18.929  0.00  0.00    +0.000 C 
ATOM     13  C   UNL     1      -0.305  12.898  18.328  0.00  0.00    +0.000 C 
BRANCH  12  14
ATOM     14  C   UNL     1      -1.707  10.938  19.048  0.00  0.00    +0.000 C 
BRANCH  14  15
ATOM     15  N   UNL     1      -2.349  10.782  17.761  0.00  0.00    +0.000 N 
ATOM     16  C   UNL     1      -3.423  11.463  17.272  0.00  0.00    +0.000 A 
ATOM     17  N   UNL     1      -3.677  11.056  16.051  0.00  0.00    +0.000 NA
ATOM     18  C   UNL     1      -2.723  10.102  15.839  0.00  0.00    +0.000 A 
ATOM     19  N   UNL     1      -1.876   9.904  16.857  0.00  0.00    +0.000 NA
ENDBRANCH  14  15
ENDBRANCH  12  14
ENDBRANCH   7  12
BRANCH   9  20
ATOM     20  C   UNL     1       5.168   4.798  18.602  0.00  0.00    +0.000 C 
ATOM     21  C   UNL     1       6.424   5.337  19.264  0.00  0.00    +0.000 C 
ENDBRANCH   9  20
BRANCH   1  22
ATOM     22  C   UNL     1       2.593   4.938  20.671  0.00  0.00    +0.000 C 
BRANCH  22  24
ATOM     23  C   UNL     1       1.098   3.265  19.496  0.00  0.00    +0.000 C 
ATOM     24  C   UNL     1       1.168   4.395  20.506  0.00  0.00    +0.000 C 
ENDBRANCH  22  24
ENDBRANCH   1  22
TORSDOF 6
ENDMDL
MODEL 5
REMARK VINA RESULT:      -6.4      1.055      1.561
REMARK  Name = 
REMARK  9 active torsions:
REMARK  status: ('A' for Active; 'I' for Inactive)
REMARK    1  A    between atoms: C_1  and  C_2
REMARK    2  A    between atoms: C_2  and  C_3
REMARK    3  A    between atoms: C_3  and  C_4
REMARK    4  A    between atoms: N_10  and  C_11
REMARK    5  A    between atoms: C_11  and  C_12
REMARK    6  A    between atoms: C_11  and  C_13
REMARK    7  A    between atoms: C_13  and  N_14
REMARK    8  A    between atoms: C_20  and  C_21
REMARK    9  A    between atoms: C_21  and  C_22
REMARK                            x       y       z     vdW  Elec       q    Type
REMARK                         _______ _______ _______ _____ _____    ______ ____
ROOT
ATOM      1  C   UNL     1      -0.331  10.451  20.394  0.00  0.00    +0.000 A 
ATOM      2  N   UNL     1       0.345   9.295  20.066  0.00  0.00    +0.000 NA
ATOM      3  C   UNL     1       0.924   8.775  21.109  0.00  0.00    +0.000 A 
ATOM      4  N   UNL     1       1.712   7.656  21.144  0.00  0.00    +0.000 N 
ATOM      5  C   UNL     1       2.240   7.182  19.969  0.00  0.00    +0.000 C 
ATOM      6  O   UNL     1       2.151   7.705  18.865  0.00  0.00    +0.000 OA
ATOM      7  N   UNL     1       2.965   6.018  20.129  0.00  0.00    +0.000 N 
ATOM      8  S   UNL     1       0.662   9.590  22.582  0.00  0.00    +0.000 S 
ATOM      9  C   UNL     1      -0.223  10.813  21.728  0.00  0.00    +0.000 A 
ATOM     10  H   UNL     1       2.065   7.345  22.032  0.00  0.00    +0.000 HD
ATOM     11  H   UNL     1       2.827   5.456  20.961  0.00  0.00    +0.000 HD
ENDROOT
BRANCH   7  12
ATOM     12  C   UNL     1       3.591   5.414  18.948  0.00  0.00    +0.000 C 
ATOM     13  C   UNL     1       5.104   5.612  19.033  0.00  0.00    +0.000 C 
BRANCH  12  14
ATOM     14  C   UNL     1       3.254   3.933  18.751  0.00  0.00    +0.000 C 
BRANCH  14  15
ATOM     15  N   UNL     1       2.644   3.343  19.924  0.00  0.00    +0.000 N 
ATOM     16  C   UNL     1       3.246   2.616  20.906  0.00  0.00    +0.000 A 
ATOM     17  N   UNL     1       2.358   2.294  21.815  0.00  0.00    +0.000 NA
ATOM     18  C   UNL     1       1.206   2.846  21.331  0.00  0.00    +0.000 A 
ATOM     19  N   UNL     1       1.332   3.511  20.176  0.00  0.00    +0.000 NA
ENDBRANCH  14  15
ENDBRANCH  12  14
ENDBRANCH   7  12
BRANCH   9  20
ATOM     20  C   UNL     1      -0.721  12.037  22.439  0.00  0.00    +0.000 C 
ATOM     21  C   UNL     1      -2.086  11.836  23.075  0.00  0.00    +0.000 C 
ENDBRANCH   9  20
BRANCH   1  22
ATOM     22  C   UNL     1      -1.039  11.135  19.273  0.00  0.00    +0.000 C 
BRANCH  22  24
ATOM     23  C   UNL     1      -0.653  13.625  19.015  0.00  0.00    +0.000 C 
ATOM     24  C   UNL     1      -0.164  12.234  18.657  0.00  0.00    +0.000 C 
ENDBRANCH  22  24
ENDBRANCH   1  22
TORSDOF 6
ENDMDL
MODEL 6
REMARK VINA RESULT:      -6.4      1.172      1.726
REMARK  Name = 
REMARK  9 active torsions:
REMARK  status: ('A' for Active; 'I' for Inactive)
REMARK    1  A    between atoms: C_1  and  C_2
REMARK    2  A    between atoms: C_2  and  C_3
REMARK    3  A    between atoms: C_3  and  C_4
REMARK    4  A    between atoms: N_10  and  C_11
REMARK    5  A    between atoms: C_11  and  C_12
REMARK    6  A    between atoms: C_11  and  C_13
REMARK    7  A    between atoms: C_13  and  N_14
REMARK    8  A    between atoms: C_20  and  C_21
REMARK    9  A    between atoms: C_21  and  C_22
REMARK                            x       y       z     vdW  Elec       q    Type
REMARK                         _______ _______ _______ _____ _____    ______ ____
ROOT
ATOM      1  C   UNL     1       0.509  10.235  19.759  0.00  0.00    +0.000 A 
ATOM      2  N   UNL     1       1.167   9.109  19.312  0.00  0.00    +0.000 NA
ATOM      3  C   UNL     1       1.465   8.314  20.299  0.00  0.00    +0.000 A 
ATOM      4  N   UNL     1       2.153   7.133  20.228  0.00  0.00    +0.000 N 
ATOM      5  C   UNL     1       2.898   6.867  19.107  0.00  0.00    +0.000 C 
ATOM      6  O   UNL     1       3.090   7.623  18.162  0.00  0.00    +0.000 OA
ATOM      7  N   UNL     1       3.495   5.622  19.132  0.00  0.00    +0.000 N 
ATOM      8  S   UNL     1       0.935   8.817  21.838  0.00  0.00    +0.000 S 
ATOM      9  C   UNL     1       0.340  10.286  21.135  0.00  0.00    +0.000 A 
ATOM     10  H   UNL     1       2.280   6.601  21.072  0.00  0.00    +0.000 HD
ATOM     11  H   UNL     1       3.141   4.913  19.764  0.00  0.00    +0.000 HD
ENDROOT
BRANCH   7  12
ATOM     12  C   UNL     1       4.328   5.221  17.994  0.00  0.00    +0.000 C 
ATOM     13  C   UNL     1       5.732   4.888  18.500  0.00  0.00    +0.000 C 
BRANCH  12  14
ATOM     14  C   UNL     1       3.759   4.051  17.184  0.00  0.00    +0.000 C 
BRANCH  14  15
ATOM     15  N   UNL     1       2.744   3.318  17.910  0.00  0.00    +0.000 N 
ATOM     16  C   UNL     1       2.911   2.247  18.734  0.00  0.00    +0.000 A 
ATOM     17  N   UNL     1       1.750   1.894  19.231  0.00  0.00    +0.000 NA
ATOM     18  C   UNL     1       0.887   2.788  18.663  0.00  0.00    +0.000 A 
ATOM     19  N   UNL     1       1.451   3.691  17.851  0.00  0.00    +0.000 NA
ENDBRANCH  14  15
ENDBRANCH  12  14
ENDBRANCH   7  12
BRANCH   9  20
ATOM     20  C   UNL     1      -0.225  11.376  21.996  0.00  0.00    +0.000 C 
ATOM     21  C   UNL     1      -1.163  10.853  23.071  0.00  0.00    +0.000 C 
ENDBRANCH   9  20
BRANCH   1  22
ATOM     22  C   UNL     1       0.113  11.219  18.711  0.00  0.00    +0.000 C 
BRANCH  22  24
ATOM     23  C   UNL     1       2.349  12.326  18.279  0.00  0.00    +0.000 C 
ATOM     24  C   UNL     1       0.942  12.504  18.819  0.00  0.00    +0.000 C 
ENDBRANCH  22  24
ENDBRANCH   1  22
TORSDOF 6
ENDMDL
MODEL 7
REMARK VINA RESULT:      -6.4      2.194      3.886
REMARK  Name = 
REMARK  9 active torsions:
REMARK  status: ('A' for Active; 'I' for Inactive)
REMARK    1  A    between atoms: C_1  and  C_2
REMARK    2  A    between atoms: C_2  and  C_3
REMARK    3  A    between atoms: C_3  and  C_4
REMARK    4  A    between atoms: N_10  and  C_11
REMARK    5  A    between atoms: C_11  and  C_12
REMARK    6  A    between atoms: C_11  and  C_13
REMARK    7  A    between atoms: C_13  and  N_14
REMARK    8  A    between atoms: C_20  and  C_21
REMARK    9  A    between atoms: C_21  and  C_22
REMARK                            x       y       z     vdW  Elec       q    Type
REMARK                         _______ _______ _______ _____ _____    ______ ____
ROOT
ATOM      1  C   UNL     1       1.148   9.454  20.740  0.00  0.00    +0.000 A 
ATOM      2  N   UNL     1       1.807   8.325  20.303  0.00  0.00    +0.000 NA
ATOM      3  C   UNL     1       1.940   8.327  19.008  0.00  0.00    +0.000 A 
ATOM      4  N   UNL     1       2.503   7.349  18.234  0.00  0.00    +0.000 N 
ATOM      5  C   UNL     1       2.667   6.095  18.768  0.00  0.00    +0.000 C 
ATOM      6  O   UNL     1       2.284   5.714  19.868  0.00  0.00    +0.000 OA
ATOM      7  N   UNL     1       3.298   5.216  17.911  0.00  0.00    +0.000 N 
ATOM      8  S   UNL     1       1.340   9.707  18.207  0.00  0.00    +0.000 S 
ATOM      9  C   UNL     1       0.754  10.312  19.723  0.00  0.00    +0.000 A 
ATOM     10  H   UNL     1       2.573   7.502  17.243  0.00  0.00    +0.000 HD
ATOM     11  H   UNL     1       3.835   5.580  17.132  0.00  0.00    +0.000 HD
ENDROOT
BRANCH   7  12
ATOM     12  C   UNL     1       3.525   3.839  18.360  0.00  0.00    +0.000 C 
ATOM     13  C   UNL     1       2.984   2.877  17.301  0.00  0.00    +0.000 C 
BRANCH  12  14
ATOM     14  C   UNL     1       4.988   3.518  18.678  0.00  0.00    +0.000 C 
BRANCH  14  15
ATOM     15  N   UNL     1       5.903   4.487  18.113  0.00  0.00    +0.000 N 
ATOM     16  C   UNL     1       6.576   4.415  16.932  0.00  0.00    +0.000 A 
ATOM     17  N   UNL     1       7.275   5.512  16.762  0.00  0.00    +0.000 NA
ATOM     18  C   UNL     1       6.999   6.232  17.890  0.00  0.00    +0.000 A 
ATOM     19  N   UNL     1       6.152   5.649  18.747  0.00  0.00    +0.000 NA
ENDBRANCH  14  15
ENDBRANCH  12  14
ENDBRANCH   7  12
BRANCH   9  20
ATOM     20  C   UNL     1      -0.061  11.569  19.784  0.00  0.00    +0.000 C 
ATOM     21  C   UNL     1      -1.527  11.339  19.459  0.00  0.00    +0.000 C 
ENDBRANCH   9  20
BRANCH   1  22
ATOM     22  C   UNL     1       0.942   9.561  22.213  0.00  0.00    +0.000 C 
BRANCH  22  24
ATOM     23  C   UNL     1      -1.179  10.550  23.183  0.00  0.00    +0.000 C 
ATOM     24  C   UNL     1      -0.526   9.318  22.583  0.00  0.00    +0.000 C 
ENDBRANCH  22  24
ENDBRANCH   1  22
TORSDOF 6
ENDMDL
MODEL 8
REMARK VINA RESULT:      -6.3      0.840      1.013
REMARK  Name = 
REMARK  9 active torsions:
REMARK  status: ('A' for Active; 'I' for Inactive)
REMARK    1  A    between atoms: C_1  and  C_2
REMARK    2  A    between atoms: C_2  and  C_3
REMARK    3  A    between atoms: C_3  and  C_4
REMARK    4  A    between atoms: N_10  and  C_11
REMARK    5  A    between atoms: C_11  and  C_12
REMARK    6  A    between atoms: C_11  and  C_13
REMARK    7  A    between atoms: C_13  and  N_14
REMARK    8  A    between atoms: C_20  and  C_21
REMARK    9  A    between atoms: C_21  and  C_22
REMARK                            x       y       z     vdW  Elec       q    Type
REMARK                         _______ _______ _______ _____ _____    ______ ____
ROOT
ATOM      1  C   UNL     1      -0.210  10.416  19.931  0.00  0.00    +0.000 A 
ATOM      2  N   UNL     1       0.542   9.305  19.612  0.00  0.00    +0.000 NA
ATOM      3  C   UNL     1       1.012   8.731  20.681  0.00  0.00    +0.000 A 
ATOM      4  N   UNL     1       1.831   7.635  20.737  0.00  0.00    +0.000 N 
ATOM      5  C   UNL     1       2.512   7.258  19.607  0.00  0.00    +0.000 C 
ATOM      6  O   UNL     1       2.535   7.854  18.536  0.00  0.00    +0.000 OA
ATOM      7  N   UNL     1       3.255   6.108  19.776  0.00  0.00    +0.000 N 
ATOM      8  S   UNL     1       0.549   9.434  22.162  0.00  0.00    +0.000 S 
ATOM      9  C   UNL     1      -0.274  10.687  21.290  0.00  0.00    +0.000 A 
ATOM     10  H   UNL     1       2.088   7.274  21.640  0.00  0.00    +0.000 HD
ATOM     11  H   UNL     1       3.041   5.486  20.547  0.00  0.00    +0.000 HD
ENDROOT
BRANCH   7  12
ATOM     12  C   UNL     1       4.038   5.605  18.642  0.00  0.00    +0.000 C 
ATOM     13  C   UNL     1       5.285   4.899  19.175  0.00  0.00    +0.000 C 
BRANCH  12  14
ATOM     14  C   UNL     1       3.257   4.678  17.705  0.00  0.00    +0.000 C 
BRANCH  14  15
ATOM     15  N   UNL     1       2.465   3.703  18.424  0.00  0.00    +0.000 N 
ATOM     16  C   UNL     1       2.759   2.395  18.659  0.00  0.00    +0.000 A 
ATOM     17  N   UNL     1       1.805   1.857  19.381  0.00  0.00    +0.000 NA
ATOM     18  C   UNL     1       0.930   2.893  19.556  0.00  0.00    +0.000 A 
ATOM     19  N   UNL     1       1.296   4.052  18.995  0.00  0.00    +0.000 NA
ENDBRANCH  14  15
ENDBRANCH  12  14
ENDBRANCH   7  12
BRANCH   9  20
ATOM     20  C   UNL     1      -0.897  11.844  22.013  0.00  0.00    +0.000 C 
ATOM     21  C   UNL     1      -0.059  13.109  21.938  0.00  0.00    +0.000 C 
ENDBRANCH   9  20
BRANCH   1  22
ATOM     22  C   UNL     1      -0.804  11.155  18.780  0.00  0.00    +0.000 C 
BRANCH  22  24
ATOM     23  C   UNL     1      -2.598  10.727  17.044  0.00  0.00    +0.000 C 
ATOM     24  C   UNL     1      -1.357  10.185  17.729  0.00  0.00    +0.000 C 
ENDBRANCH  22  24
ENDBRANCH   1  22
TORSDOF 6
ENDMDL
MODEL 9
REMARK VINA RESULT:      -6.3      0.685      1.103
REMARK  Name = 
REMARK  9 active torsions:
REMARK  status: ('A' for Active; 'I' for Inactive)
REMARK    1  A    between atoms: C_1  and  C_2
REMARK    2  A    between atoms: C_2  and  C_3
REMARK    3  A    between atoms: C_3  and  C_4
REMARK    4  A    between atoms: N_10  and  C_11
REMARK    5  A    between atoms: C_11  and  C_12
REMARK    6  A    between atoms: C_11  and  C_13
REMARK    7  A    between atoms: C_13  and  N_14
REMARK    8  A    between atoms: C_20  and  C_21
REMARK    9  A    between atoms: C_21  and  C_22
REMARK                            x       y       z     vdW  Elec       q    Type
REMARK                         _______ _______ _______ _____ _____    ______ ____
ROOT
ATOM      1  C   UNL     1       0.172  10.266  19.864  0.00  0.00    +0.000 A 
ATOM      2  N   UNL     1       0.875   9.119  19.564  0.00  0.00    +0.000 NA
ATOM      3  C   UNL     1       1.241   8.493  20.645  0.00  0.00    +0.000 A 
ATOM      4  N   UNL     1       1.987   7.348  20.723  0.00  0.00    +0.000 N 
ATOM      5  C   UNL     1       2.716   6.957  19.628  0.00  0.00    +0.000 C 
ATOM      6  O   UNL     1       2.844   7.575  18.578  0.00  0.00    +0.000 OA
ATOM      7  N   UNL     1       3.377   5.759  19.813  0.00  0.00    +0.000 N 
ATOM      8  S   UNL     1       0.725   9.190  22.112  0.00  0.00    +0.000 S 
ATOM      9  C   UNL     1       0.036  10.510  21.223  0.00  0.00    +0.000 A 
ATOM     10  H   UNL     1       2.164   6.952  21.630  0.00  0.00    +0.000 HD
ATOM     11  H   UNL     1       3.077   5.135  20.553  0.00  0.00    +0.000 HD
ENDROOT
BRANCH   7  12
ATOM     12  C   UNL     1       4.200   5.236  18.718  0.00  0.00    +0.000 C 
ATOM     13  C   UNL     1       5.675   5.383  19.093  0.00  0.00    +0.000 C 
BRANCH  12  14
ATOM     14  C   UNL     1       3.886   3.786  18.338  0.00  0.00    +0.000 C 
BRANCH  14  15
ATOM     15  N   UNL     1       2.695   3.288  18.994  0.00  0.00    +0.000 N 
ATOM     16  C   UNL     1       1.474   3.046  18.442  0.00  0.00    +0.000 A 
ATOM     17  N   UNL     1       0.670   2.563  19.359  0.00  0.00    +0.000 NA
ATOM     18  C   UNL     1       1.456   2.539  20.476  0.00  0.00    +0.000 A 
ATOM     19  N   UNL     1       2.713   2.964  20.301  0.00  0.00    +0.000 NA
ENDBRANCH  14  15
ENDBRANCH  12  14
ENDBRANCH   7  12
BRANCH   9  20
ATOM     20  C   UNL     1      -0.562  11.686  21.936  0.00  0.00    +0.000 C 
ATOM     21  C   UNL     1      -1.355  11.288  23.170  0.00  0.00    +0.000 C 
ENDBRANCH   9  20
BRANCH   1  22
ATOM     22  C   UNL     1      -0.302  11.066  18.698  0.00  0.00    +0.000 C 
BRANCH  22  24
ATOM     23  C   UNL     1      -0.452  13.585  18.488  0.00  0.00    +0.000 C 
ATOM     24  C   UNL     1       0.471  12.385  18.583  0.00  0.00    +0.000 C 
ENDBRANCH  22  24
ENDBRANCH   1  22
TORSDOF 6
ENDMDL
