MODEL 1
REMARK VINA RESULT:      -8.2      0.000      0.000
REMARK  Name = 
REMARK  3 active torsions:
REMARK  status: ('A' for Active; 'I' for Inactive)
REMARK    1  A    between atoms: N_4  and  C_5
REMARK    2  A    between atoms: C_13  and  C_14
REMARK    3  A    between atoms: C_23  and  O_24
REMARK                            x       y       z     vdW  Elec       q    Type
REMARK                         _______ _______ _______ _____ _____    ______ ____
ROOT
ATOM      1  O   UNL     1       2.878   8.133  16.804  0.00  0.00    +0.000 OA
ATOM      2  C   UNL     1       2.449   7.984  17.933  0.00  0.00    +0.000 A 
ATOM      3  N   UNL     1       2.040   8.964  18.822  0.00  0.00    +0.000 N 
ATOM      4  N   UNL     1       1.832   8.352  20.055  0.00  0.00    +0.000 N 
ATOM      5  C   UNL     1       1.878   6.980  19.879  0.00  0.00    +0.000 A 
ATOM      6  C   UNL     1       2.287   6.697  18.632  0.00  0.00    +0.000 A 
ATOM      7  C   UNL     1       2.576   5.352  18.105  0.00  0.00    +0.000 C 
ATOM      8  C   UNL     1       1.940   4.282  19.010  0.00  0.00    +0.000 C 
ATOM      9  C   UNL     1       1.655   4.786  20.406  0.00  0.00    +0.000 C 
ATOM     10  N   UNL     1       1.617   6.012  20.807  0.00  0.00    +0.000 NA
ATOM     11  H   UNL     1       2.331   9.929  18.732  0.00  0.00    +0.000 HD
ENDROOT
BRANCH   7  12
ATOM     12  C   UNL     1       4.077   5.117  17.960  0.00  0.00    +0.000 A 
ATOM     13  C   UNL     1       4.952   5.288  19.049  0.00  0.00    +0.000 A 
ATOM     14  C   UNL     1       6.322   5.068  18.902  0.00  0.00    +0.000 A 
ATOM     15  C   UNL     1       6.828   4.673  17.668  0.00  0.00    +0.000 A 
ATOM     16  F   UNL     1       8.147   4.456  17.554  0.00  0.00    +0.000 F 
ATOM     17  C   UNL     1       5.980   4.504  16.576  0.00  0.00    +0.000 A 
ATOM     18 CL   UNL     1       6.604   4.008  15.050  0.00  0.00    +0.000 Cl
ATOM     19  C   UNL     1       4.609   4.729  16.719  0.00  0.00    +0.000 A 
ENDBRANCH   7  12
BRANCH   4  20
ATOM     20  C   UNL     1       1.240   9.067  21.177  0.00  0.00    +0.000 C 
ATOM     21  C   UNL     1      -0.012   8.358  21.690  0.00  0.00    +0.000 C 
ATOM     22  C   UNL     1      -0.713   9.213  22.735  0.00  0.00    +0.000 C 
ATOM     23  O   UNL     1      -0.993  10.512  22.217  0.00  0.00    +0.000 OA
ATOM     24  C   UNL     1       0.196  11.229  21.893  0.00  0.00    +0.000 C 
ATOM     25  C   UNL     1       0.956  10.520  20.785  0.00  0.00    +0.000 C 
ENDBRANCH   4  20
BRANCH   9  26
ATOM     26  O   UNL     1       1.368   3.816  21.294  0.00  0.00    +0.000 OA
ATOM     27  H   UNL     1       1.586   2.926  20.979  0.00  0.00    +0.000 HD
ENDBRANCH   9  26
TORSDOF 3
ENDMDL
MODEL 2
REMARK VINA RESULT:      -7.9      1.057      1.427
REMARK  Name = 
REMARK  3 active torsions:
REMARK  status: ('A' for Active; 'I' for Inactive)
REMARK    1  A    between atoms: N_4  and  C_5
REMARK    2  A    between atoms: C_13  and  C_14
REMARK    3  A    between atoms: C_23  and  O_24
REMARK                            x       y       z     vdW  Elec       q    Type
REMARK                         _______ _______ _______ _____ _____    ______ ____
ROOT
ATOM      1  O   UNL     1       2.850   8.023  16.702  0.00  0.00    +0.000 OA
ATOM      2  C   UNL     1       2.449   7.876  17.842  0.00  0.00    +0.000 A 
ATOM      3  N   UNL     1       2.067   8.858  18.740  0.00  0.00    +0.000 N 
ATOM      4  N   UNL     1       1.887   8.248  19.978  0.00  0.00    +0.000 N 
ATOM      5  C   UNL     1       1.923   6.876  19.802  0.00  0.00    +0.000 A 
ATOM      6  C   UNL     1       2.300   6.590  18.546  0.00  0.00    +0.000 A 
ATOM      7  C   UNL     1       2.569   5.244  18.013  0.00  0.00    +0.000 C 
ATOM      8  C   UNL     1       1.952   4.177  18.933  0.00  0.00    +0.000 C 
ATOM      9  C   UNL     1       1.705   4.683  20.336  0.00  0.00    +0.000 C 
ATOM     10  N   UNL     1       1.682   5.909  20.737  0.00  0.00    +0.000 NA
ATOM     11  H   UNL     1       2.359   9.822  18.642  0.00  0.00    +0.000 HD
ENDROOT
BRANCH   7  12
ATOM     12  C   UNL     1       4.065   5.003  17.830  0.00  0.00    +0.000 A 
ATOM     13  C   UNL     1       4.570   4.390  16.667  0.00  0.00    +0.000 A 
ATOM     14  C   UNL     1       5.940   4.178  16.514  0.00  0.00    +0.000 A 
ATOM     15  C   UNL     1       6.817   4.579  17.516  0.00  0.00    +0.000 A 
ATOM     16  F   UNL     1       8.131   4.375  17.339  0.00  0.00    +0.000 F 
ATOM     17  C   UNL     1       6.338   5.182  18.676  0.00  0.00    +0.000 A 
ATOM     18 CL   UNL     1       7.423   5.685  19.914  0.00  0.00    +0.000 Cl
ATOM     19  C   UNL     1       4.966   5.391  18.836  0.00  0.00    +0.000 A 
ENDBRANCH   7  12
BRANCH   4  20
ATOM     20  C   UNL     1       1.327   8.966  21.114  0.00  0.00    +0.000 C 
ATOM     21  C   UNL     1       0.077   8.271  21.651  0.00  0.00    +0.000 C 
ATOM     22  C   UNL     1      -0.592   9.130  22.713  0.00  0.00    +0.000 C 
ATOM     23  O   UNL     1      -0.867  10.435  22.204  0.00  0.00    +0.000 OA
ATOM     24  C   UNL     1       0.325  11.138  21.858  0.00  0.00    +0.000 C 
ATOM     25  C   UNL     1       1.053  10.424  20.733  0.00  0.00    +0.000 C 
ENDBRANCH   4  20
BRANCH   9  26
ATOM     26  O   UNL     1       1.436   3.715  21.232  0.00  0.00    +0.000 OA
ATOM     27  H   UNL     1       0.567   3.304  21.109  0.00  0.00    +0.000 HD
ENDBRANCH   9  26
TORSDOF 3
ENDMDL
MODEL 3
REMARK VINA RESULT:      -7.8      4.178      7.310
REMARK  Name = 
REMARK  3 active torsions:
REMARK  status: ('A' for Active; 'I' for Inactive)
REMARK    1  A    between atoms: N_4  and  C_5
REMARK    2  A    between atoms: C_13  and  C_14
REMARK    3  A    between atoms: C_23  and  O_24
REMARK                            x       y       z     vdW  Elec       q    Type
REMARK                         _______ _______ _______ _____ _____    ______ ____
ROOT
ATOM      1  O   UNL     1       1.927   9.704  17.290  0.00  0.00    +0.000 OA
ATOM      2  C   UNL     1       1.912   9.018  18.295  0.00  0.00    +0.000 A 
ATOM      3  N   UNL     1       2.340   7.709  18.434  0.00  0.00    +0.000 N 
ATOM      4  N   UNL     1       1.939   7.268  19.692  0.00  0.00    +0.000 N 
ATOM      5  C   UNL     1       1.481   8.355  20.415  0.00  0.00    +0.000 A 
ATOM      6  C   UNL     1       1.401   9.429  19.614  0.00  0.00    +0.000 A 
ATOM      7  C   UNL     1       0.844  10.741  19.987  0.00  0.00    +0.000 C 
ATOM      8  C   UNL     1       0.766  10.867  21.518  0.00  0.00    +0.000 C 
ATOM      9  C   UNL     1       0.766   9.528  22.219  0.00  0.00    +0.000 C 
ATOM     10  N   UNL     1       1.098   8.383  21.726  0.00  0.00    +0.000 NA
ATOM     11  H   UNL     1       2.440   7.086  17.642  0.00  0.00    +0.000 HD
ENDROOT
BRANCH   7  12
ATOM     12  C   UNL     1      -0.525  10.969  19.354  0.00  0.00    +0.000 A 
ATOM     13  C   UNL     1      -1.454  11.863  19.920  0.00  0.00    +0.000 A 
ATOM     14  C   UNL     1      -2.701  12.061  19.328  0.00  0.00    +0.000 A 
ATOM     15  C   UNL     1      -3.031  11.373  18.166  0.00  0.00    +0.000 A 
ATOM     16  F   UNL     1      -4.232  11.590  17.610  0.00  0.00    +0.000 F 
ATOM     17  C   UNL     1      -2.130  10.480  17.592  0.00  0.00    +0.000 A 
ATOM     18 CL   UNL     1      -2.534   9.633  16.149  0.00  0.00    +0.000 Cl
ATOM     19  C   UNL     1      -0.882  10.275  18.184  0.00  0.00    +0.000 A 
ENDBRANCH   7  12
BRANCH   4  20
ATOM     20  C   UNL     1       2.368   5.983  20.228  0.00  0.00    +0.000 C 
ATOM     21  C   UNL     1       3.400   5.318  19.320  0.00  0.00    +0.000 C 
ATOM     22  C   UNL     1       3.696   3.906  19.800  0.00  0.00    +0.000 C 
ATOM     23  O   UNL     1       2.492   3.148  19.908  0.00  0.00    +0.000 OA
ATOM     24  C   UNL     1       1.603   3.690  20.882  0.00  0.00    +0.000 C 
ATOM     25  C   UNL     1       1.155   5.082  20.473  0.00  0.00    +0.000 C 
ENDBRANCH   4  20
BRANCH   9  26
ATOM     26  O   UNL     1       0.417   9.585  23.518  0.00  0.00    +0.000 OA
ATOM     27  H   UNL     1       0.611   8.771  24.007  0.00  0.00    +0.000 HD
ENDBRANCH   9  26
TORSDOF 3
ENDMDL
MODEL 4
REMARK VINA RESULT:      -7.8      4.596      7.496
REMARK  Name = 
REMARK  3 active torsions:
REMARK  status: ('A' for Active; 'I' for Inactive)
REMARK    1  A    between atoms: N_4  and  C_5
REMARK    2  A    between atoms: C_13  and  C_14
REMARK    3  A    between atoms: C_23  and  O_24
REMARK                            x       y       z     vdW  Elec       q    Type
REMARK                         _______ _______ _______ _____ _____    ______ ____
ROOT
ATOM      1  O   UNL     1       2.086   9.472  17.184  0.00  0.00    +0.000 OA
ATOM      2  C   UNL     1       2.050   8.791  18.192  0.00  0.00    +0.000 A 
ATOM      3  N   UNL     1       2.531   7.505  18.365  0.00  0.00    +0.000 N 
ATOM      4  N   UNL     1       2.084   7.052  19.603  0.00  0.00    +0.000 N 
ATOM      5  C   UNL     1       1.537   8.120  20.291  0.00  0.00    +0.000 A 
ATOM      6  C   UNL     1       1.449   9.185  19.478  0.00  0.00    +0.000 A 
ATOM      7  C   UNL     1       0.811  10.471  19.810  0.00  0.00    +0.000 C 
ATOM      8  C   UNL     1       0.645  10.601  21.334  0.00  0.00    +0.000 C 
ATOM      9  C   UNL     1       0.671   9.268  22.045  0.00  0.00    +0.000 C 
ATOM     10  N   UNL     1       1.083   8.137  21.579  0.00  0.00    +0.000 NA
ATOM     11  H   UNL     1       2.703   6.884  17.584  0.00  0.00    +0.000 HD
ENDROOT
BRANCH   7  12
ATOM     12  C   UNL     1      -0.531  10.630  19.102  0.00  0.00    +0.000 A 
ATOM     13  C   UNL     1      -0.813   9.943  17.906  0.00  0.00    +0.000 A 
ATOM     14  C   UNL     1      -2.045  10.097  17.271  0.00  0.00    +0.000 A 
ATOM     15  C   UNL     1      -3.007  10.933  17.826  0.00  0.00    +0.000 A 
ATOM     16  F   UNL     1      -4.189  11.055  17.204  0.00  0.00    +0.000 F 
ATOM     17  C   UNL     1      -2.748  11.627  19.006  0.00  0.00    +0.000 A 
ATOM     18 CL   UNL     1      -3.940  12.657  19.699  0.00  0.00    +0.000 Cl
ATOM     19  C   UNL     1      -1.513  11.479  19.641  0.00  0.00    +0.000 A 
ENDBRANCH   7  12
BRANCH   4  20
ATOM     20  C   UNL     1       2.543   5.793  20.171  0.00  0.00    +0.000 C 
ATOM     21  C   UNL     1       3.517   5.081  19.233  0.00  0.00    +0.000 C 
ATOM     22  C   UNL     1       3.840   3.692  19.761  0.00  0.00    +0.000 C 
ATOM     23  O   UNL     1       2.644   2.945  19.978  0.00  0.00    +0.000 OA
ATOM     24  C   UNL     1       1.817   3.536  20.978  0.00  0.00    +0.000 C 
ATOM     25  C   UNL     1       1.347   4.909  20.533  0.00  0.00    +0.000 C 
ENDBRANCH   4  20
BRANCH   9  26
ATOM     26  O   UNL     1       0.250   9.316  23.323  0.00  0.00    +0.000 OA
ATOM     27  H   UNL     1      -0.703   9.167  23.422  0.00  0.00    +0.000 HD
ENDBRANCH   9  26
TORSDOF 3
ENDMDL
MODEL 5
REMARK VINA RESULT:      -7.4      1.354      1.583
REMARK  Name = 
REMARK  3 active torsions:
REMARK  status: ('A' for Active; 'I' for Inactive)
REMARK    1  A    between atoms: N_4  and  C_5
REMARK    2  A    between atoms: C_13  and  C_14
REMARK    3  A    between atoms: C_23  and  O_24
REMARK                            x       y       z     vdW  Elec       q    Type
REMARK                         _______ _______ _______ _____ _____    ______ ____
ROOT
ATOM      1  O   UNL     1       3.101   8.585  17.072  0.00  0.00    +0.000 OA
ATOM      2  C   UNL     1       2.463   8.309  18.071  0.00  0.00    +0.000 A 
ATOM      3  N   UNL     1       1.702   9.160  18.854  0.00  0.00    +0.000 N 
ATOM      4  N   UNL     1       1.331   8.460  19.998  0.00  0.00    +0.000 N 
ATOM      5  C   UNL     1       1.652   7.125  19.821  0.00  0.00    +0.000 A 
ATOM      6  C   UNL     1       2.373   6.979  18.698  0.00  0.00    +0.000 A 
ATOM      7  C   UNL     1       3.000   5.729  18.235  0.00  0.00    +0.000 C 
ATOM      8  C   UNL     1       2.372   4.524  18.955  0.00  0.00    +0.000 C 
ATOM      9  C   UNL     1       1.698   4.901  20.255  0.00  0.00    +0.000 C 
ATOM     10  N   UNL     1       1.360   6.081  20.651  0.00  0.00    +0.000 NA
ATOM     11  H   UNL     1       1.834  10.164  18.845  0.00  0.00    +0.000 HD
ENDROOT
BRANCH   7  12
ATOM     12  C   UNL     1       4.513   5.753  18.435  0.00  0.00    +0.000 A 
ATOM     13  C   UNL     1       5.142   4.900  19.361  0.00  0.00    +0.000 A 
ATOM     14  C   UNL     1       6.525   4.932  19.532  0.00  0.00    +0.000 A 
ATOM     15  C   UNL     1       7.293   5.814  18.779  0.00  0.00    +0.000 A 
ATOM     16  F   UNL     1       8.623   5.818  18.954  0.00  0.00    +0.000 F 
ATOM     17  C   UNL     1       6.691   6.671  17.861  0.00  0.00    +0.000 A 
ATOM     18 CL   UNL     1       7.641   7.757  16.923  0.00  0.00    +0.000 Cl
ATOM     19  C   UNL     1       5.305   6.644  17.691  0.00  0.00    +0.000 A 
ENDBRANCH   7  12
BRANCH   4  20
ATOM     20  C   UNL     1       0.389   9.008  20.962  0.00  0.00    +0.000 C 
ATOM     21  C   UNL     1      -0.025  10.431  20.589  0.00  0.00    +0.000 C 
ATOM     22  C   UNL     1      -0.862  11.047  21.699  0.00  0.00    +0.000 C 
ATOM     23  O   UNL     1      -0.168  10.989  22.944  0.00  0.00    +0.000 OA
ATOM     24  C   UNL     1       0.069   9.646  23.364  0.00  0.00    +0.000 C 
ATOM     25  C   UNL     1       0.975   8.935  22.375  0.00  0.00    +0.000 C 
ENDBRANCH   4  20
BRANCH   9  26
ATOM     26  O   UNL     1       1.392   3.852  21.041  0.00  0.00    +0.000 OA
ATOM     27  H   UNL     1       2.066   3.156  21.038  0.00  0.00    +0.000 HD
ENDBRANCH   9  26
TORSDOF 3
ENDMDL
MODEL 6
REMARK VINA RESULT:      -7.4      4.397      7.752
REMARK  Name = 
REMARK  3 active torsions:
REMARK  status: ('A' for Active; 'I' for Inactive)
REMARK    1  A    between atoms: N_4  and  C_5
REMARK    2  A    between atoms: C_13  and  C_14
REMARK    3  A    between atoms: C_23  and  O_24
REMARK                            x       y       z     vdW  Elec       q    Type
REMARK                         _______ _______ _______ _____ _____    ______ ____
ROOT
ATOM      1  O   UNL     1       6.758   7.144  18.105  0.00  0.00    +0.000 OA
ATOM      2  C   UNL     1       6.407   6.237  17.374  0.00  0.00    +0.000 A 
ATOM      3  N   UNL     1       6.957   5.864  16.160  0.00  0.00    +0.000 N 
ATOM      4  N   UNL     1       6.108   4.923  15.585  0.00  0.00    +0.000 N 
ATOM      5  C   UNL     1       5.172   4.539  16.530  0.00  0.00    +0.000 A 
ATOM      6  C   UNL     1       5.274   5.326  17.613  0.00  0.00    +0.000 A 
ATOM      7  C   UNL     1       4.374   5.307  18.779  0.00  0.00    +0.000 C 
ATOM      8  C   UNL     1       3.571   3.994  18.805  0.00  0.00    +0.000 C 
ATOM      9  C   UNL     1       3.496   3.324  17.452  0.00  0.00    +0.000 C 
ATOM     10  N   UNL     1       4.226   3.561  16.416  0.00  0.00    +0.000 NA
ATOM     11  H   UNL     1       7.529   6.494  15.610  0.00  0.00    +0.000 HD
ENDROOT
BRANCH   7  12
ATOM     12  C   UNL     1       3.441   6.514  18.786  0.00  0.00    +0.000 A 
ATOM     13  C   UNL     1       3.352   7.376  17.676  0.00  0.00    +0.000 A 
ATOM     14  C   UNL     1       2.493   8.475  17.697  0.00  0.00    +0.000 A 
ATOM     15  C   UNL     1       1.713   8.720  18.822  0.00  0.00    +0.000 A 
ATOM     16  F   UNL     1       0.887   9.776  18.813  0.00  0.00    +0.000 F 
ATOM     17  C   UNL     1       1.789   7.882  19.932  0.00  0.00    +0.000 A 
ATOM     18 CL   UNL     1       0.819   8.180  21.322  0.00  0.00    +0.000 Cl
ATOM     19  C   UNL     1       2.652   6.784  19.917  0.00  0.00    +0.000 A 
ENDBRANCH   7  12
BRANCH   4  20
ATOM     20  C   UNL     1       6.470   4.200  14.374  0.00  0.00    +0.000 C 
ATOM     21  C   UNL     1       7.431   5.012  13.508  0.00  0.00    +0.000 C 
ATOM     22  C   UNL     1       7.651   4.321  12.171  0.00  0.00    +0.000 C 
ATOM     23  O   UNL     1       6.405   4.073  11.521  0.00  0.00    +0.000 OA
ATOM     24  C   UNL     1       5.580   3.180  12.267  0.00  0.00    +0.000 C 
ATOM     25  C   UNL     1       5.210   3.794  13.605  0.00  0.00    +0.000 C 
ENDBRANCH   4  20
BRANCH   9  26
ATOM     26  O   UNL     1       2.579   2.341  17.375  0.00  0.00    +0.000 OA
ATOM     27  H   UNL     1       2.100   2.192  18.204  0.00  0.00    +0.000 HD
ENDBRANCH   9  26
TORSDOF 3
ENDMDL
MODEL 7
REMARK VINA RESULT:      -7.3      2.973      4.486
REMARK  Name = 
REMARK  3 active torsions:
REMARK  status: ('A' for Active; 'I' for Inactive)
REMARK    1  A    between atoms: N_4  and  C_5
REMARK    2  A    between atoms: C_13  and  C_14
REMARK    3  A    between atoms: C_23  and  O_24
REMARK                            x       y       z     vdW  Elec       q    Type
REMARK                         _______ _______ _______ _____ _____    ______ ____
ROOT
ATOM      1  O   UNL     1       3.305   3.380  16.816  0.00  0.00    +0.000 OA
ATOM      2  C   UNL     1       3.593   4.460  17.297  0.00  0.00    +0.000 A 
ATOM      3  N   UNL     1       2.734   5.421  17.802  0.00  0.00    +0.000 N 
ATOM      4  N   UNL     1       3.484   6.568  18.045  0.00  0.00    +0.000 N 
ATOM      5  C   UNL     1       4.825   6.253  17.920  0.00  0.00    +0.000 A 
ATOM      6  C   UNL     1       4.954   5.010  17.430  0.00  0.00    +0.000 A 
ATOM      7  C   UNL     1       6.221   4.363  17.046  0.00  0.00    +0.000 C 
ATOM      8  C   UNL     1       7.408   5.112  17.674  0.00  0.00    +0.000 C 
ATOM      9  C   UNL     1       7.071   6.534  18.060  0.00  0.00    +0.000 C 
ATOM     10  N   UNL     1       5.898   7.057  18.181  0.00  0.00    +0.000 NA
ATOM     11  H   UNL     1       1.753   5.450  17.556  0.00  0.00    +0.000 HD
ENDROOT
BRANCH   7  12
ATOM     12  C   UNL     1       6.371   4.283  15.530  0.00  0.00    +0.000 A 
ATOM     13  C   UNL     1       5.536   3.455  14.755  0.00  0.00    +0.000 A 
ATOM     14  C   UNL     1       5.685   3.394  13.369  0.00  0.00    +0.000 A 
ATOM     15  C   UNL     1       6.664   4.160  12.745  0.00  0.00    +0.000 A 
ATOM     16  F   UNL     1       6.779   4.092  11.411  0.00  0.00    +0.000 F 
ATOM     17  C   UNL     1       7.504   4.981  13.493  0.00  0.00    +0.000 A 
ATOM     18 CL   UNL     1       8.711   5.936  12.722  0.00  0.00    +0.000 Cl
ATOM     19  C   UNL     1       7.361   5.041  14.882  0.00  0.00    +0.000 A 
ENDBRANCH   7  12
BRANCH   4  20
ATOM     20  C   UNL     1       2.920   7.722  18.732  0.00  0.00    +0.000 C 
ATOM     21  C   UNL     1       2.068   7.297  19.926  0.00  0.00    +0.000 C 
ATOM     22  C   UNL     1       1.345   8.498  20.516  0.00  0.00    +0.000 C 
ATOM     23  O   UNL     1       0.585   9.170  19.513  0.00  0.00    +0.000 OA
ATOM     24  C   UNL     1       1.412   9.707  18.482  0.00  0.00    +0.000 C 
ATOM     25  C   UNL     1       2.133   8.590  17.747  0.00  0.00    +0.000 C 
ENDBRANCH   4  20
BRANCH   9  26
ATOM     26  O   UNL     1       8.142   7.297  18.344  0.00  0.00    +0.000 OA
ATOM     27  H   UNL     1       8.043   7.815  19.157  0.00  0.00    +0.000 HD
ENDBRANCH   9  26
TORSDOF 3
ENDMDL
MODEL 8
REMARK VINA RESULT:      -7.2      3.047      4.481
REMARK  Name = 
REMARK  3 active torsions:
REMARK  status: ('A' for Active; 'I' for Inactive)
REMARK    1  A    between atoms: N_4  and  C_5
REMARK    2  A    between atoms: C_13  and  C_14
REMARK    3  A    between atoms: C_23  and  O_24
REMARK                            x       y       z     vdW  Elec       q    Type
REMARK                         _______ _______ _______ _____ _____    ______ ____
ROOT
ATOM      1  O   UNL     1       3.377   3.388  16.327  0.00  0.00    +0.000 OA
ATOM      2  C   UNL     1       3.674   4.363  16.992  0.00  0.00    +0.000 A 
ATOM      3  N   UNL     1       2.821   5.281  17.580  0.00  0.00    +0.000 N 
ATOM      4  N   UNL     1       3.600   6.333  18.055  0.00  0.00    +0.000 N 
ATOM      5  C   UNL     1       4.931   5.965  17.978  0.00  0.00    +0.000 A 
ATOM      6  C   UNL     1       5.043   4.807  17.308  0.00  0.00    +0.000 A 
ATOM      7  C   UNL     1       6.306   4.157  16.918  0.00  0.00    +0.000 C 
ATOM      8  C   UNL     1       7.472   4.730  17.741  0.00  0.00    +0.000 C 
ATOM      9  C   UNL     1       7.169   6.092  18.321  0.00  0.00    +0.000 C 
ATOM     10  N   UNL     1       6.014   6.657  18.440  0.00  0.00    +0.000 NA
ATOM     11  H   UNL     1       1.865   5.403  17.272  0.00  0.00    +0.000 HD
ENDROOT
BRANCH   7  12
ATOM     12  C   UNL     1       6.573   4.303  15.423  0.00  0.00    +0.000 A 
ATOM     13  C   UNL     1       7.484   5.258  14.933  0.00  0.00    +0.000 A 
ATOM     14  C   UNL     1       7.719   5.379  13.564  0.00  0.00    +0.000 A 
ATOM     15  C   UNL     1       7.050   4.547  12.673  0.00  0.00    +0.000 A 
ATOM     16  F   UNL     1       7.301   4.675  11.362  0.00  0.00    +0.000 F 
ATOM     17  C   UNL     1       6.140   3.599  13.135  0.00  0.00    +0.000 A 
ATOM     18 CL   UNL     1       5.317   2.564  12.035  0.00  0.00    +0.000 Cl
ATOM     19  C   UNL     1       5.899   3.479  14.506  0.00  0.00    +0.000 A 
ENDBRANCH   7  12
BRANCH   4  20
ATOM     20  C   UNL     1       3.035   7.397  18.874  0.00  0.00    +0.000 C 
ATOM     21  C   UNL     1       2.222   6.831  20.037  0.00  0.00    +0.000 C 
ATOM     22  C   UNL     1       1.496   7.950  20.768  0.00  0.00    +0.000 C 
ATOM     23  O   UNL     1       0.698   8.709  19.861  0.00  0.00    +0.000 OA
ATOM     24  C   UNL     1       1.488   9.367  18.873  0.00  0.00    +0.000 C 
ATOM     25  C   UNL     1       2.208   8.348  18.006  0.00  0.00    +0.000 C 
ENDBRANCH   4  20
BRANCH   9  26
ATOM     26  O   UNL     1       8.248   6.741  18.800  0.00  0.00    +0.000 OA
ATOM     27  H   UNL     1       8.726   6.245  19.482  0.00  0.00    +0.000 HD
ENDBRANCH   9  26
TORSDOF 3
ENDMDL
MODEL 9
REMARK VINA RESULT:      -7.1      3.304      4.744
REMARK  Name = 
REMARK  3 active torsions:
REMARK  status: ('A' for Active; 'I' for Inactive)
REMARK    1  A    between atoms: N_4  and  C_5
REMARK    2  A    between atoms: C_13  and  C_14
REMARK    3  A    between atoms: C_23  and  O_24
REMARK                            x       y       z     vdW  Elec       q    Type
REMARK                         _______ _______ _______ _____ _____    ______ ____
ROOT
ATOM      1  O   UNL     1       1.352   7.399  21.746  0.00  0.00    +0.000 OA
ATOM      2  C   UNL     1       1.421   8.023  20.703  0.00  0.00    +0.000 A 
ATOM      3  N   UNL     1       0.742   9.179  20.359  0.00  0.00    +0.000 N 
ATOM      4  N   UNL     1       0.970   9.413  19.006  0.00  0.00    +0.000 N 
ATOM      5  C   UNL     1       1.965   8.555  18.572  0.00  0.00    +0.000 A 
ATOM      6  C   UNL     1       2.248   7.666  19.537  0.00  0.00    +0.000 A 
ATOM      7  C   UNL     1       3.165   6.520  19.410  0.00  0.00    +0.000 C 
ATOM      8  C   UNL     1       4.086   6.712  18.193  0.00  0.00    +0.000 C 
ATOM      9  C   UNL     1       3.525   7.681  17.178  0.00  0.00    +0.000 C 
ATOM     10  N   UNL     1       2.566   8.528  17.346  0.00  0.00    +0.000 NA
ATOM     11  H   UNL     1      -0.108   9.465  20.828  0.00  0.00    +0.000 HD
ENDROOT
BRANCH   7  12
ATOM     12  C   UNL     1       2.404   5.201  19.311  0.00  0.00    +0.000 A 
ATOM     13  C   UNL     1       1.923   4.725  18.076  0.00  0.00    +0.000 A 
ATOM     14  C   UNL     1       1.230   3.517  18.001  0.00  0.00    +0.000 A 
ATOM     15  C   UNL     1       1.015   2.772  19.156  0.00  0.00    +0.000 A 
ATOM     16  F   UNL     1       0.356   1.608  19.056  0.00  0.00    +0.000 F 
ATOM     17  C   UNL     1       1.477   3.227  20.388  0.00  0.00    +0.000 A 
ATOM     18 CL   UNL     1       1.218   2.303  21.817  0.00  0.00    +0.000 Cl
ATOM     19  C   UNL     1       2.167   4.439  20.468  0.00  0.00    +0.000 A 
ENDBRANCH   7  12
BRANCH   4  20
ATOM     20  C   UNL     1       0.532  10.639  18.354  0.00  0.00    +0.000 C 
ATOM     21  C   UNL     1       1.196  11.867  18.975  0.00  0.00    +0.000 C 
ATOM     22  C   UNL     1       0.591  13.141  18.405  0.00  0.00    +0.000 C 
ATOM     23  O   UNL     1      -0.826  13.142  18.572  0.00  0.00    +0.000 OA
ATOM     24  C   UNL     1      -1.452  12.083  17.851  0.00  0.00    +0.000 C 
ATOM     25  C   UNL     1      -0.996  10.737  18.386  0.00  0.00    +0.000 C 
ENDBRANCH   4  20
BRANCH   9  26
ATOM     26  O   UNL     1       4.155   7.659  15.988  0.00  0.00    +0.000 OA
ATOM     27  H   UNL     1       5.016   8.104  15.997  0.00  0.00    +0.000 HD
ENDBRANCH   9  26
TORSDOF 3
ENDMDL
