MODEL 1
REMARK VINA RESULT:      -8.4      0.000      0.000
REMARK  Name = 
REMARK  3 active torsions:
REMARK  status: ('A' for Active; 'I' for Inactive)
REMARK    1  A    between atoms: O_1  and  C_2
REMARK    2  A    between atoms: C_6  and  C_7
REMARK    3  A    between atoms: C_13  and  C_14
REMARK                            x       y       z     vdW  Elec       q    Type
REMARK                         _______ _______ _______ _____ _____    ______ ____
ROOT
ATOM      1  C   UNL     1       4.419   3.791  18.476  0.00  0.00    +0.000 A 
ATOM      2  C   UNL     1       4.273   2.522  19.027  0.00  0.00    +0.000 A 
ATOM      3  N   UNL     1       3.383   2.502  20.073  0.00  0.00    +0.000 NA
ATOM      4  C   UNL     1       2.968   3.744  20.155  0.00  0.00    +0.000 A 
ATOM      5  C   UNL     1       2.026   4.309  21.081  0.00  0.00    +0.000 A 
ATOM      6  N   UNL     1       1.673   5.567  21.029  0.00  0.00    +0.000 NA
ATOM      7  C   UNL     1       2.218   6.344  20.013  0.00  0.00    +0.000 A 
ATOM      8  C   UNL     1       3.115   5.878  19.123  0.00  0.00    +0.000 A 
ATOM      9  N   UNL     1       3.523   4.559  19.203  0.00  0.00    +0.000 N 
ENDROOT
BRANCH   7  10
ATOM     10  C   UNL     1       1.768   7.706  19.958  0.00  0.00    +0.000 A 
ATOM     11  C   UNL     1       1.156   8.460  20.947  0.00  0.00    +0.000 A 
ATOM     12  C   UNL     1       0.808   9.792  20.543  0.00  0.00    +0.000 A 
ATOM     13  C   UNL     1       0.174  10.841  21.251  0.00  0.00    +0.000 A 
ATOM     14  C   UNL     1      -0.077  12.068  20.626  0.00  0.00    +0.000 A 
ATOM     15  C   UNL     1       0.301  12.274  19.307  0.00  0.00    +0.000 A 
ATOM     16  C   UNL     1       0.936  11.261  18.588  0.00  0.00    +0.000 A 
ATOM     17  C   UNL     1       1.175  10.026  19.219  0.00  0.00    +0.000 A 
ATOM     18  S   UNL     1       1.911   8.647  18.521  0.00  0.00    +0.000 S 
ENDBRANCH   7  10
BRANCH   1  23
ATOM     19  C   UNL     1       6.934   5.765  16.456  0.00  0.00    +0.000 A 
ATOM     20  C   UNL     1       6.851   5.153  15.213  0.00  0.00    +0.000 A 
ATOM     21  C   UNL     1       5.988   4.071  15.049  0.00  0.00    +0.000 A 
ATOM     22  C   UNL     1       5.198   3.629  16.118  0.00  0.00    +0.000 A 
ATOM     23  C   UNL     1       5.268   4.254  17.372  0.00  0.00    +0.000 A 
ATOM     24  C   UNL     1       6.177   5.310  17.532  0.00  0.00    +0.000 A 
BRANCH  19  25
ATOM     25  O   UNL     1       7.755   6.834  16.672  0.00  0.00    +0.000 OA
ATOM     26  H   UNL     1       7.690   7.094  17.606  0.00  0.00    +0.000 HD
ENDBRANCH  19  25
ENDBRANCH   1  23
TORSDOF 3
ENDMDL
MODEL 2
REMARK VINA RESULT:      -8.2      0.684      1.223
REMARK  Name = 
REMARK  3 active torsions:
REMARK  status: ('A' for Active; 'I' for Inactive)
REMARK    1  A    between atoms: O_1  and  C_2
REMARK    2  A    between atoms: C_6  and  C_7
REMARK    3  A    between atoms: C_13  and  C_14
REMARK                            x       y       z     vdW  Elec       q    Type
REMARK                         _______ _______ _______ _____ _____    ______ ____
ROOT
ATOM      1  C   UNL     1       4.360   3.797  18.446  0.00  0.00    +0.000 A 
ATOM      2  C   UNL     1       4.189   2.525  18.983  0.00  0.00    +0.000 A 
ATOM      3  N   UNL     1       3.287   2.508  20.019  0.00  0.00    +0.000 NA
ATOM      4  C   UNL     1       2.890   3.755  20.109  0.00  0.00    +0.000 A 
ATOM      5  C   UNL     1       1.945   4.325  21.030  0.00  0.00    +0.000 A 
ATOM      6  N   UNL     1       1.612   5.588  20.987  0.00  0.00    +0.000 NA
ATOM      7  C   UNL     1       2.180   6.367  19.984  0.00  0.00    +0.000 A 
ATOM      8  C   UNL     1       3.080   5.896  19.099  0.00  0.00    +0.000 A 
ATOM      9  N   UNL     1       3.467   4.571  19.171  0.00  0.00    +0.000 N 
ENDROOT
BRANCH   7  10
ATOM     10  C   UNL     1       1.751   7.736  19.938  0.00  0.00    +0.000 A 
ATOM     11  C   UNL     1       1.811   8.631  18.882  0.00  0.00    +0.000 A 
ATOM     12  C   UNL     1       1.316   9.943  19.190  0.00  0.00    +0.000 A 
ATOM     13  C   UNL     1       1.221  11.109  18.394  0.00  0.00    +0.000 A 
ATOM     14  C   UNL     1       0.708  12.295  18.934  0.00  0.00    +0.000 A 
ATOM     15  C   UNL     1       0.277  12.338  20.252  0.00  0.00    +0.000 A 
ATOM     16  C   UNL     1       0.351  11.200  21.056  0.00  0.00    +0.000 A 
ATOM     17  C   UNL     1       0.878  10.015  20.511  0.00  0.00    +0.000 A 
ATOM     18  S   UNL     1       1.082   8.520  21.320  0.00  0.00    +0.000 S 
ENDBRANCH   7  10
BRANCH   1  23
ATOM     19  C   UNL     1       6.918   5.761  16.471  0.00  0.00    +0.000 A 
ATOM     20  C   UNL     1       6.849   5.154  15.225  0.00  0.00    +0.000 A 
ATOM     21  C   UNL     1       5.981   4.078  15.044  0.00  0.00    +0.000 A 
ATOM     22  C   UNL     1       5.173   3.638  16.100  0.00  0.00    +0.000 A 
ATOM     23  C   UNL     1       5.228   4.258  17.356  0.00  0.00    +0.000 A 
ATOM     24  C   UNL     1       6.142   5.307  17.533  0.00  0.00    +0.000 A 
BRANCH  19  25
ATOM     25  O   UNL     1       7.743   6.823  16.703  0.00  0.00    +0.000 OA
ATOM     26  H   UNL     1       7.480   7.247  17.536  0.00  0.00    +0.000 HD
ENDBRANCH  19  25
ENDBRANCH   1  23
TORSDOF 3
ENDMDL
MODEL 3
REMARK VINA RESULT:      -8.2      0.969      1.362
REMARK  Name = 
REMARK  3 active torsions:
REMARK  status: ('A' for Active; 'I' for Inactive)
REMARK    1  A    between atoms: O_1  and  C_2
REMARK    2  A    between atoms: C_6  and  C_7
REMARK    3  A    between atoms: C_13  and  C_14
REMARK                            x       y       z     vdW  Elec       q    Type
REMARK                         _______ _______ _______ _____ _____    ______ ____
ROOT
ATOM      1  C   UNL     1       4.323   3.619  18.323  0.00  0.00    +0.000 A 
ATOM      2  C   UNL     1       4.075   2.321  18.758  0.00  0.00    +0.000 A 
ATOM      3  N   UNL     1       3.111   2.269  19.736  0.00  0.00    +0.000 NA
ATOM      4  C   UNL     1       2.755   3.522  19.890  0.00  0.00    +0.000 A 
ATOM      5  C   UNL     1       1.777   4.065  20.793  0.00  0.00    +0.000 A 
ATOM      6  N   UNL     1       1.492   5.341  20.820  0.00  0.00    +0.000 NA
ATOM      7  C   UNL     1       2.148   6.163  19.910  0.00  0.00    +0.000 A 
ATOM      8  C   UNL     1       3.082   5.719  19.048  0.00  0.00    +0.000 A 
ATOM      9  N   UNL     1       3.417   4.376  19.048  0.00  0.00    +0.000 N 
ENDROOT
BRANCH   7  10
ATOM     10  C   UNL     1       1.773   7.548  19.937  0.00  0.00    +0.000 A 
ATOM     11  C   UNL     1       1.253   8.288  20.987  0.00  0.00    +0.000 A 
ATOM     12  C   UNL     1       0.960   9.655  20.659  0.00  0.00    +0.000 A 
ATOM     13  C   UNL     1       0.422  10.703  21.443  0.00  0.00    +0.000 A 
ATOM     14  C   UNL     1       0.208  11.968  20.884  0.00  0.00    +0.000 A 
ATOM     15  C   UNL     1       0.531  12.213  19.556  0.00  0.00    +0.000 A 
ATOM     16  C   UNL     1       1.072  11.201  18.763  0.00  0.00    +0.000 A 
ATOM     17  C   UNL     1       1.274   9.928  19.328  0.00  0.00    +0.000 A 
ATOM     18  S   UNL     1       1.896   8.545  18.535  0.00  0.00    +0.000 S 
ENDBRANCH   7  10
BRANCH   1  23
ATOM     19  C   UNL     1       6.261   4.052  15.104  0.00  0.00    +0.000 A 
ATOM     20  C   UNL     1       7.146   5.069  15.435  0.00  0.00    +0.000 A 
ATOM     21  C   UNL     1       7.084   5.632  16.708  0.00  0.00    +0.000 A 
ATOM     22  C   UNL     1       6.159   5.156  17.646  0.00  0.00    +0.000 A 
ATOM     23  C   UNL     1       5.273   4.119  17.322  0.00  0.00    +0.000 A 
ATOM     24  C   UNL     1       5.317   3.598  16.021  0.00  0.00    +0.000 A 
BRANCH  19  25
ATOM     25  O   UNL     1       6.282   3.459  13.876  0.00  0.00    +0.000 OA
ATOM     26  H   UNL     1       6.892   3.949  13.302  0.00  0.00    +0.000 HD
ENDBRANCH  19  25
ENDBRANCH   1  23
TORSDOF 3
ENDMDL
MODEL 4
REMARK VINA RESULT:      -8.1      1.143      1.804
REMARK  Name = 
REMARK  3 active torsions:
REMARK  status: ('A' for Active; 'I' for Inactive)
REMARK    1  A    between atoms: O_1  and  C_2
REMARK    2  A    between atoms: C_6  and  C_7
REMARK    3  A    between atoms: C_13  and  C_14
REMARK                            x       y       z     vdW  Elec       q    Type
REMARK                         _______ _______ _______ _____ _____    ______ ____
ROOT
ATOM      1  C   UNL     1       4.447   3.823  18.529  0.00  0.00    +0.000 A 
ATOM      2  C   UNL     1       4.264   2.548  19.057  0.00  0.00    +0.000 A 
ATOM      3  N   UNL     1       3.325   2.525  20.059  0.00  0.00    +0.000 NA
ATOM      4  C   UNL     1       2.919   3.769  20.137  0.00  0.00    +0.000 A 
ATOM      5  C   UNL     1       1.938   4.332  21.025  0.00  0.00    +0.000 A 
ATOM      6  N   UNL     1       1.600   5.594  20.973  0.00  0.00    +0.000 NA
ATOM      7  C   UNL     1       2.200   6.378  19.993  0.00  0.00    +0.000 A 
ATOM      8  C   UNL     1       3.134   5.914  19.141  0.00  0.00    +0.000 A 
ATOM      9  N   UNL     1       3.525   4.590  19.223  0.00  0.00    +0.000 N 
ENDROOT
BRANCH   7  10
ATOM     10  C   UNL     1       1.766   7.745  19.935  0.00  0.00    +0.000 A 
ATOM     11  C   UNL     1       1.828   8.632  18.873  0.00  0.00    +0.000 A 
ATOM     12  C   UNL     1       1.326   9.944  19.168  0.00  0.00    +0.000 A 
ATOM     13  C   UNL     1       1.230  11.105  18.364  0.00  0.00    +0.000 A 
ATOM     14  C   UNL     1       0.711  12.292  18.892  0.00  0.00    +0.000 A 
ATOM     15  C   UNL     1       0.273  12.343  20.208  0.00  0.00    +0.000 A 
ATOM     16  C   UNL     1       0.347  11.212  21.021  0.00  0.00    +0.000 A 
ATOM     17  C   UNL     1       0.881  10.025  20.487  0.00  0.00    +0.000 A 
ATOM     18  S   UNL     1       1.088   8.537  21.308  0.00  0.00    +0.000 S 
ENDBRANCH   7  10
BRANCH   1  23
ATOM     19  C   UNL     1       6.270   4.134  15.230  0.00  0.00    +0.000 A 
ATOM     20  C   UNL     1       7.142   5.185  15.480  0.00  0.00    +0.000 A 
ATOM     21  C   UNL     1       7.108   5.810  16.725  0.00  0.00    +0.000 A 
ATOM     22  C   UNL     1       6.225   5.363  17.716  0.00  0.00    +0.000 A 
ATOM     23  C   UNL     1       5.352   4.292  17.473  0.00  0.00    +0.000 A 
ATOM     24  C   UNL     1       5.366   3.707  16.198  0.00  0.00    +0.000 A 
BRANCH  19  25
ATOM     25  O   UNL     1       6.265   3.480  14.033  0.00  0.00    +0.000 OA
ATOM     26  H   UNL     1       6.984   3.830  13.482  0.00  0.00    +0.000 HD
ENDBRANCH  19  25
ENDBRANCH   1  23
TORSDOF 3
ENDMDL
MODEL 5
REMARK VINA RESULT:      -7.9      2.233      7.346
REMARK  Name = 
REMARK  3 active torsions:
REMARK  status: ('A' for Active; 'I' for Inactive)
REMARK    1  A    between atoms: O_1  and  C_2
REMARK    2  A    between atoms: C_6  and  C_7
REMARK    3  A    between atoms: C_13  and  C_14
REMARK                            x       y       z     vdW  Elec       q    Type
REMARK                         _______ _______ _______ _____ _____    ______ ____
ROOT
ATOM      1  C   UNL     1       2.303   5.628  20.143  0.00  0.00    +0.000 A 
ATOM      2  C   UNL     1       2.014   4.799  21.223  0.00  0.00    +0.000 A 
ATOM      3  N   UNL     1       2.538   3.538  21.072  0.00  0.00    +0.000 NA
ATOM      4  C   UNL     1       3.161   3.593  19.919  0.00  0.00    +0.000 A 
ATOM      5  C   UNL     1       3.891   2.552  19.250  0.00  0.00    +0.000 A 
ATOM      6  N   UNL     1       4.498   2.754  18.110  0.00  0.00    +0.000 NA
ATOM      7  C   UNL     1       4.445   4.036  17.575  0.00  0.00    +0.000 A 
ATOM      8  C   UNL     1       3.769   5.051  18.145  0.00  0.00    +0.000 A 
ATOM      9  N   UNL     1       3.089   4.828  19.329  0.00  0.00    +0.000 N 
ENDROOT
BRANCH   7  10
ATOM     10  C   UNL     1       5.165   4.231  16.348  0.00  0.00    +0.000 A 
ATOM     11  C   UNL     1       5.005   3.583  15.134  0.00  0.00    +0.000 A 
ATOM     12  C   UNL     1       5.921   4.007  14.113  0.00  0.00    +0.000 A 
ATOM     13  C   UNL     1       6.075   3.585  12.771  0.00  0.00    +0.000 A 
ATOM     14  C   UNL     1       7.070   4.146  11.961  0.00  0.00    +0.000 A 
ATOM     15  C   UNL     1       7.909   5.131  12.462  0.00  0.00    +0.000 A 
ATOM     16  C   UNL     1       7.774   5.573  13.778  0.00  0.00    +0.000 A 
ATOM     17  C   UNL     1       6.779   4.996  14.590  0.00  0.00    +0.000 A 
ATOM     18  S   UNL     1       6.457   5.366  16.229  0.00  0.00    +0.000 S 
ENDBRANCH   7  10
BRANCH   1  23
ATOM     19  C   UNL     1       1.810   8.971  18.445  0.00  0.00    +0.000 A 
ATOM     20  C   UNL     1       1.235   9.727  19.456  0.00  0.00    +0.000 A 
ATOM     21  C   UNL     1       0.982   9.126  20.688  0.00  0.00    +0.000 A 
ATOM     22  C   UNL     1       1.331   7.788  20.906  0.00  0.00    +0.000 A 
ATOM     23  C   UNL     1       1.926   7.024  19.891  0.00  0.00    +0.000 A 
ATOM     24  C   UNL     1       2.128   7.630  18.643  0.00  0.00    +0.000 A 
BRANCH  19  25
ATOM     25  O   UNL     1       2.088   9.508  17.222  0.00  0.00    +0.000 OA
ATOM     26  H   UNL     1       2.531  10.363  17.349  0.00  0.00    +0.000 HD
ENDBRANCH  19  25
ENDBRANCH   1  23
TORSDOF 3
ENDMDL
MODEL 6
REMARK VINA RESULT:      -7.8      4.982      6.738
REMARK  Name = 
REMARK  3 active torsions:
REMARK  status: ('A' for Active; 'I' for Inactive)
REMARK    1  A    between atoms: O_1  and  C_2
REMARK    2  A    between atoms: C_6  and  C_7
REMARK    3  A    between atoms: C_13  and  C_14
REMARK                            x       y       z     vdW  Elec       q    Type
REMARK                         _______ _______ _______ _____ _____    ______ ____
ROOT
ATOM      1  C   UNL     1       6.662   4.333  13.355  0.00  0.00    +0.000 A 
ATOM      2  C   UNL     1       7.823   5.068  13.129  0.00  0.00    +0.000 A 
ATOM      3  N   UNL     1       8.203   5.801  14.227  0.00  0.00    +0.000 NA
ATOM      4  C   UNL     1       7.297   5.507  15.129  0.00  0.00    +0.000 A 
ATOM      5  C   UNL     1       7.193   5.993  16.477  0.00  0.00    +0.000 A 
ATOM      6  N   UNL     1       6.251   5.588  17.288  0.00  0.00    +0.000 NA
ATOM      7  C   UNL     1       5.361   4.632  16.810  0.00  0.00    +0.000 A 
ATOM      8  C   UNL     1       5.398   4.146  15.555  0.00  0.00    +0.000 A 
ATOM      9  N   UNL     1       6.367   4.605  14.681  0.00  0.00    +0.000 N 
ENDROOT
BRANCH   7  10
ATOM     10  C   UNL     1       4.373   4.176  17.746  0.00  0.00    +0.000 A 
ATOM     11  C   UNL     1       3.002   4.069  17.578  0.00  0.00    +0.000 A 
ATOM     12  C   UNL     1       2.299   3.598  18.739  0.00  0.00    +0.000 A 
ATOM     13  C   UNL     1       0.920   3.369  18.960  0.00  0.00    +0.000 A 
ATOM     14  C   UNL     1       0.468   2.917  20.205  0.00  0.00    +0.000 A 
ATOM     15  C   UNL     1       1.367   2.678  21.234  0.00  0.00    +0.000 A 
ATOM     16  C   UNL     1       2.733   2.886  21.041  0.00  0.00    +0.000 A 
ATOM     17  C   UNL     1       3.180   3.351  19.790  0.00  0.00    +0.000 A 
ATOM     18  S   UNL     1       4.797   3.696  19.347  0.00  0.00    +0.000 S 
ENDBRANCH   7  10
BRANCH   1  23
ATOM     19  C   UNL     1       5.685   1.370  11.218  0.00  0.00    +0.000 A 
ATOM     20  C   UNL     1       4.468   1.781  10.694  0.00  0.00    +0.000 A 
ATOM     21  C   UNL     1       3.955   3.021  11.068  0.00  0.00    +0.000 A 
ATOM     22  C   UNL     1       4.674   3.849  11.939  0.00  0.00    +0.000 A 
ATOM     23  C   UNL     1       5.912   3.445  12.459  0.00  0.00    +0.000 A 
ATOM     24  C   UNL     1       6.389   2.173  12.110  0.00  0.00    +0.000 A 
BRANCH  19  25
ATOM     25  O   UNL     1       6.240   0.170  10.881  0.00  0.00    +0.000 OA
ATOM     26  H   UNL     1       6.897  -0.071  11.553  0.00  0.00    +0.000 HD
ENDBRANCH  19  25
ENDBRANCH   1  23
TORSDOF 3
ENDMDL
MODEL 7
REMARK VINA RESULT:      -7.8      2.665      7.492
REMARK  Name = 
REMARK  3 active torsions:
REMARK  status: ('A' for Active; 'I' for Inactive)
REMARK    1  A    between atoms: O_1  and  C_2
REMARK    2  A    between atoms: C_6  and  C_7
REMARK    3  A    between atoms: C_13  and  C_14
REMARK                            x       y       z     vdW  Elec       q    Type
REMARK                         _______ _______ _______ _____ _____    ______ ____
ROOT
ATOM      1  C   UNL     1       2.299   5.983  19.885  0.00  0.00    +0.000 A 
ATOM      2  C   UNL     1       1.992   5.219  21.007  0.00  0.00    +0.000 A 
ATOM      3  N   UNL     1       2.492   3.942  20.926  0.00  0.00    +0.000 NA
ATOM      4  C   UNL     1       3.118   3.923  19.774  0.00  0.00    +0.000 A 
ATOM      5  C   UNL     1       3.830   2.833  19.165  0.00  0.00    +0.000 A 
ATOM      6  N   UNL     1       4.443   2.962  18.017  0.00  0.00    +0.000 NA
ATOM      7  C   UNL     1       4.417   4.214  17.413  0.00  0.00    +0.000 A 
ATOM      8  C   UNL     1       3.759   5.271  17.926  0.00  0.00    +0.000 A 
ATOM      9  N   UNL     1       3.072   5.126  19.118  0.00  0.00    +0.000 N 
ENDROOT
BRANCH   7  10
ATOM     10  C   UNL     1       5.144   4.329  16.181  0.00  0.00    +0.000 A 
ATOM     11  C   UNL     1       4.962   3.632  14.997  0.00  0.00    +0.000 A 
ATOM     12  C   UNL     1       5.892   3.978  13.959  0.00  0.00    +0.000 A 
ATOM     13  C   UNL     1       6.033   3.491  12.638  0.00  0.00    +0.000 A 
ATOM     14  C   UNL     1       7.046   3.981  11.806  0.00  0.00    +0.000 A 
ATOM     15  C   UNL     1       7.918   4.959  12.263  0.00  0.00    +0.000 A 
ATOM     16  C   UNL     1       7.796   5.465  13.558  0.00  0.00    +0.000 A 
ATOM     17  C   UNL     1       6.783   4.959  14.393  0.00  0.00    +0.000 A 
ATOM     18  S   UNL     1       6.472   5.414  16.013  0.00  0.00    +0.000 S 
ENDBRANCH   7  10
BRANCH   1  23
ATOM     19  C   UNL     1       1.045   9.540  20.167  0.00  0.00    +0.000 A 
ATOM     20  C   UNL     1       1.242  10.019  18.880  0.00  0.00    +0.000 A 
ATOM     21  C   UNL     1       1.816   9.179  17.927  0.00  0.00    +0.000 A 
ATOM     22  C   UNL     1       2.162   7.864  18.261  0.00  0.00    +0.000 A 
ATOM     23  C   UNL     1       1.950   7.371  19.557  0.00  0.00    +0.000 A 
ATOM     24  C   UNL     1       1.417   8.244  20.515  0.00  0.00    +0.000 A 
BRANCH  19  25
ATOM     25  O   UNL     1       0.479  10.314  21.138  0.00  0.00    +0.000 OA
ATOM     26  H   UNL     1       0.985  10.204  21.960  0.00  0.00    +0.000 HD
ENDBRANCH  19  25
ENDBRANCH   1  23
TORSDOF 3
ENDMDL
MODEL 8
REMARK VINA RESULT:      -7.7      1.175      1.469
REMARK  Name = 
REMARK  3 active torsions:
REMARK  status: ('A' for Active; 'I' for Inactive)
REMARK    1  A    between atoms: O_1  and  C_2
REMARK    2  A    between atoms: C_6  and  C_7
REMARK    3  A    between atoms: C_13  and  C_14
REMARK                            x       y       z     vdW  Elec       q    Type
REMARK                         _______ _______ _______ _____ _____    ______ ____
ROOT
ATOM      1  C   UNL     1       4.387   4.286  18.765  0.00  0.00    +0.000 A 
ATOM      2  C   UNL     1       4.137   2.917  18.780  0.00  0.00    +0.000 A 
ATOM      3  N   UNL     1       2.983   2.602  19.455  0.00  0.00    +0.000 NA
ATOM      4  C   UNL     1       2.515   3.766  19.837  0.00  0.00    +0.000 A 
ATOM      5  C   UNL     1       1.323   4.044  20.590  0.00  0.00    +0.000 A 
ATOM      6  N   UNL     1       0.952   5.265  20.876  0.00  0.00    +0.000 NA
ATOM      7  C   UNL     1       1.739   6.303  20.389  0.00  0.00    +0.000 A 
ATOM      8  C   UNL     1       2.873   6.110  19.688  0.00  0.00    +0.000 A 
ATOM      9  N   UNL     1       3.290   4.818  19.423  0.00  0.00    +0.000 N 
ENDROOT
BRANCH   7  10
ATOM     10  C   UNL     1       1.272   7.629  20.680  0.00  0.00    +0.000 A 
ATOM     11  C   UNL     1       0.586   8.084  21.794  0.00  0.00    +0.000 A 
ATOM     12  C   UNL     1       0.244   9.478  21.749  0.00  0.00    +0.000 A 
ATOM     13  C   UNL     1      -0.451  10.293  22.674  0.00  0.00    +0.000 A 
ATOM     14  C   UNL     1      -0.680  11.645  22.393  0.00  0.00    +0.000 A 
ATOM     15  C   UNL     1      -0.220  12.205  21.209  0.00  0.00    +0.000 A 
ATOM     16  C   UNL     1       0.475  11.426  20.284  0.00  0.00    +0.000 A 
ATOM     17  C   UNL     1       0.693  10.065  20.567  0.00  0.00    +0.000 A 
ATOM     18  S   UNL     1       1.493   8.929  19.569  0.00  0.00    +0.000 S 
ENDBRANCH   7  10
BRANCH   1  23
ATOM     19  C   UNL     1       7.557   6.317  18.396  0.00  0.00    +0.000 A 
ATOM     20  C   UNL     1       7.606   6.529  17.026  0.00  0.00    +0.000 A 
ATOM     21  C   UNL     1       6.611   5.977  16.220  0.00  0.00    +0.000 A 
ATOM     22  C   UNL     1       5.564   5.244  16.793  0.00  0.00    +0.000 A 
ATOM     23  C   UNL     1       5.502   5.040  18.179  0.00  0.00    +0.000 A 
ATOM     24  C   UNL     1       6.538   5.561  18.968  0.00  0.00    +0.000 A 
BRANCH  19  25
ATOM     25  O   UNL     1       8.498   6.839  19.234  0.00  0.00    +0.000 OA
ATOM     26  H   UNL     1       8.077   7.055  20.082  0.00  0.00    +0.000 HD
ENDBRANCH  19  25
ENDBRANCH   1  23
TORSDOF 3
ENDMDL
MODEL 9
REMARK VINA RESULT:      -7.7      1.020      1.544
REMARK  Name = 
REMARK  3 active torsions:
REMARK  status: ('A' for Active; 'I' for Inactive)
REMARK    1  A    between atoms: O_1  and  C_2
REMARK    2  A    between atoms: C_6  and  C_7
REMARK    3  A    between atoms: C_13  and  C_14
REMARK                            x       y       z     vdW  Elec       q    Type
REMARK                         _______ _______ _______ _____ _____    ______ ____
ROOT
ATOM      1  C   UNL     1       4.499   4.200  18.910  0.00  0.00    +0.000 A 
ATOM      2  C   UNL     1       4.274   2.835  19.064  0.00  0.00    +0.000 A 
ATOM      3  N   UNL     1       3.141   2.568  19.794  0.00  0.00    +0.000 NA
ATOM      4  C   UNL     1       2.661   3.757  20.073  0.00  0.00    +0.000 A 
ATOM      5  C   UNL     1       1.481   4.087  20.824  0.00  0.00    +0.000 A 
ATOM      6  N   UNL     1       1.095   5.324  20.999  0.00  0.00    +0.000 NA
ATOM      7  C   UNL     1       1.852   6.322  20.396  0.00  0.00    +0.000 A 
ATOM      8  C   UNL     1       2.973   6.080  19.690  0.00  0.00    +0.000 A 
ATOM      9  N   UNL     1       3.408   4.775  19.541  0.00  0.00    +0.000 N 
ENDROOT
BRANCH   7  10
ATOM     10  C   UNL     1       1.368   7.663  20.569  0.00  0.00    +0.000 A 
ATOM     11  C   UNL     1       0.729   8.222  21.664  0.00  0.00    +0.000 A 
ATOM     12  C   UNL     1       0.350   9.595  21.489  0.00  0.00    +0.000 A 
ATOM     13  C   UNL     1      -0.316  10.493  22.358  0.00  0.00    +0.000 A 
ATOM     14  C   UNL     1      -0.593  11.802  21.948  0.00  0.00    +0.000 A 
ATOM     15  C   UNL     1      -0.208  12.239  20.689  0.00  0.00    +0.000 A 
ATOM     16  C   UNL     1       0.458  11.379  19.815  0.00  0.00    +0.000 A 
ATOM     17  C   UNL     1       0.723  10.061  20.229  0.00  0.00    +0.000 A 
ATOM     18  S   UNL     1       1.499   8.839  19.316  0.00  0.00    +0.000 S 
ENDBRANCH   7  10
BRANCH   1  23
ATOM     19  C   UNL     1       6.740   5.602  16.206  0.00  0.00    +0.000 A 
ATOM     20  C   UNL     1       7.721   6.245  16.948  0.00  0.00    +0.000 A 
ATOM     21  C   UNL     1       7.627   6.242  18.338  0.00  0.00    +0.000 A 
ATOM     22  C   UNL     1       6.572   5.575  18.974  0.00  0.00    +0.000 A 
ATOM     23  C   UNL     1       5.587   4.911  18.228  0.00  0.00    +0.000 A 
ATOM     24  C   UNL     1       5.671   4.966  16.830  0.00  0.00    +0.000 A 
BRANCH  19  25
ATOM     25  O   UNL     1       6.785   5.565  14.843  0.00  0.00    +0.000 OA
ATOM     26  H   UNL     1       7.308   6.320  14.527  0.00  0.00    +0.000 HD
ENDBRANCH  19  25
ENDBRANCH   1  23
TORSDOF 3
ENDMDL
