MODEL 1
REMARK VINA RESULT:      -6.3      0.000      0.000
REMARK  Name = 
REMARK  11 active torsions:
REMARK  status: ('A' for Active; 'I' for Inactive)
REMARK    1  A    between atoms: C_1  and  O_2
REMARK    2  A    between atoms: O_2  and  C_3
REMARK    3  A    between atoms: C_6  and  O_7
REMARK    4  A    between atoms: O_7  and  C_8
REMARK    5  A    between atoms: C_8  and  C_9
REMARK    6  A    between atoms: C_10  and  C_11
REMARK    7  A    between atoms: C_11  and  N_12
REMARK    8  A    between atoms: N_12  and  C_13
REMARK    9  A    between atoms: C_13  and  C_14
REMARK   10  A    between atoms: C_13  and  C_15
REMARK   11  A    between atoms: C_13  and  C_16
REMARK                            x       y       z     vdW  Elec       q    Type
REMARK                         _______ _______ _______ _____ _____    ______ ____
ROOT
ATOM      1  C   UNL     1       7.194   6.643  17.064  0.00  0.00    +0.000 C 
ENDROOT
BRANCH   1   2
ATOM      2  C   UNL     1       7.822   7.830  17.665  0.00  0.00    +0.000 C 
ATOM      3  C   UNL     1       8.320   8.799  18.179  0.00  0.00    +0.000 C 
BRANCH   3   4
ATOM      4  C   UNL     1       8.927   9.924  18.903  0.00  0.00    +0.000 C 
BRANCH   4   5
ATOM      5  N   UNL     1       9.395  10.960  17.981  0.00  0.00    +0.000 NA
ATOM      6  H   UNL     1       8.577  11.425  17.587  0.00  0.00    +0.000 HD
BRANCH   5   7
ATOM      7  C   UNL     1      10.293  11.971  18.582  0.00  0.00    +0.000 C 
ATOM      8  C   UNL     1       9.711  13.390  18.449  0.00  0.00    +0.000 C 
ATOM      9  C   UNL     1      10.411  11.648  20.086  0.00  0.00    +0.000 C 
ATOM     10  C   UNL     1      11.708  11.923  17.976  0.00  0.00    +0.000 C 
ENDBRANCH   5   7
ENDBRANCH   4   5
ENDBRANCH   3   4
ENDBRANCH   1   2
BRANCH   1  11
ATOM     11  O   UNL     1       5.924   7.000  16.510  0.00  0.00    +0.000 OA
BRANCH  11  15
ATOM     12  C   UNL     1       2.778   4.582  17.828  0.00  0.00    +0.000 A 
ATOM     13  C   UNL     1       3.832   4.076  17.068  0.00  0.00    +0.000 A 
ATOM     14  C   UNL     1       4.873   4.913  16.651  0.00  0.00    +0.000 A 
ATOM     15  C   UNL     1       4.850   6.275  16.956  0.00  0.00    +0.000 A 
ATOM     16  C   UNL     1       3.792   6.783  17.710  0.00  0.00    +0.000 A 
ATOM     17  C   UNL     1       2.758   5.939  18.144  0.00  0.00    +0.000 A 
BRANCH  12  19
ATOM     18  C   UNL     1       1.236   3.845  19.464  0.00  0.00    +0.000 C 
ATOM     19  O   UNL     1       1.815   3.674  18.175  0.00  0.00    +0.000 OA
ENDBRANCH  12  19
ENDBRANCH  11  15
ENDBRANCH   1  11
TORSDOF 7
ENDMDL
MODEL 2
REMARK VINA RESULT:      -6.2      0.917      1.295
REMARK  Name = 
REMARK  11 active torsions:
REMARK  status: ('A' for Active; 'I' for Inactive)
REMARK    1  A    between atoms: C_1  and  O_2
REMARK    2  A    between atoms: O_2  and  C_3
REMARK    3  A    between atoms: C_6  and  O_7
REMARK    4  A    between atoms: O_7  and  C_8
REMARK    5  A    between atoms: C_8  and  C_9
REMARK    6  A    between atoms: C_10  and  C_11
REMARK    7  A    between atoms: C_11  and  N_12
REMARK    8  A    between atoms: N_12  and  C_13
REMARK    9  A    between atoms: C_13  and  C_14
REMARK   10  A    between atoms: C_13  and  C_15
REMARK   11  A    between atoms: C_13  and  C_16
REMARK                            x       y       z     vdW  Elec       q    Type
REMARK                         _______ _______ _______ _____ _____    ______ ____
ROOT
ATOM      1  C   UNL     1       7.327   6.591  17.435  0.00  0.00    +0.000 C 
ENDROOT
BRANCH   1   2
ATOM      2  C   UNL     1       7.852   7.943  17.680  0.00  0.00    +0.000 C 
ATOM      3  C   UNL     1       8.260   9.056  17.897  0.00  0.00    +0.000 C 
BRANCH   3   4
ATOM      4  C   UNL     1       8.724  10.400  18.267  0.00  0.00    +0.000 C 
BRANCH   4   5
ATOM      5  N   UNL     1       9.458  10.380  19.533  0.00  0.00    +0.000 NA
ATOM      6  H   UNL     1      10.367   9.948  19.366  0.00  0.00    +0.000 HD
BRANCH   5   7
ATOM      7  C   UNL     1       9.651  11.705  20.163  0.00  0.00    +0.000 C 
ATOM      8  C   UNL     1       8.971  11.775  21.543  0.00  0.00    +0.000 C 
ATOM      9  C   UNL     1      11.167  11.900  20.374  0.00  0.00    +0.000 C 
ATOM     10  C   UNL     1       9.147  12.852  19.269  0.00  0.00    +0.000 C 
ENDBRANCH   5   7
ENDBRANCH   4   5
ENDBRANCH   3   4
ENDBRANCH   1   2
BRANCH   1  11
ATOM     11  O   UNL     1       6.234   6.661  16.512  0.00  0.00    +0.000 OA
BRANCH  11  15
ATOM     12  C   UNL     1       2.705   4.854  17.840  0.00  0.00    +0.000 A 
ATOM     13  C   UNL     1       3.711   4.131  17.198  0.00  0.00    +0.000 A 
ATOM     14  C   UNL     1       4.883   4.767  16.775  0.00  0.00    +0.000 A 
ATOM     15  C   UNL     1       5.044   6.142  16.953  0.00  0.00    +0.000 A 
ATOM     16  C   UNL     1       4.036   6.867  17.588  0.00  0.00    +0.000 A 
ATOM     17  C   UNL     1       2.868   6.225  18.028  0.00  0.00    +0.000 A 
BRANCH  12  19
ATOM     18  C   UNL     1       1.372   4.015  19.605  0.00  0.00    +0.000 C 
ATOM     19  O   UNL     1       1.603   4.130  18.205  0.00  0.00    +0.000 OA
ENDBRANCH  12  19
ENDBRANCH  11  15
ENDBRANCH   1  11
TORSDOF 7
ENDMDL
MODEL 3
REMARK VINA RESULT:      -6.2      0.643      1.256
REMARK  Name = 
REMARK  11 active torsions:
REMARK  status: ('A' for Active; 'I' for Inactive)
REMARK    1  A    between atoms: C_1  and  O_2
REMARK    2  A    between atoms: O_2  and  C_3
REMARK    3  A    between atoms: C_6  and  O_7
REMARK    4  A    between atoms: O_7  and  C_8
REMARK    5  A    between atoms: C_8  and  C_9
REMARK    6  A    between atoms: C_10  and  C_11
REMARK    7  A    between atoms: C_11  and  N_12
REMARK    8  A    between atoms: N_12  and  C_13
REMARK    9  A    between atoms: C_13  and  C_14
REMARK   10  A    between atoms: C_13  and  C_15
REMARK   11  A    between atoms: C_13  and  C_16
REMARK                            x       y       z     vdW  Elec       q    Type
REMARK                         _______ _______ _______ _____ _____    ______ ____
ROOT
ATOM      1  C   UNL     1       7.294   6.811  17.326  0.00  0.00    +0.000 C 
ENDROOT
BRANCH   1   2
ATOM      2  C   UNL     1       7.893   8.082  17.761  0.00  0.00    +0.000 C 
ATOM      3  C   UNL     1       8.363   9.136  18.105  0.00  0.00    +0.000 C 
BRANCH   3   4
ATOM      4  C   UNL     1       8.832  10.457  18.546  0.00  0.00    +0.000 C 
BRANCH   4   5
ATOM      5  N   UNL     1      10.042  10.859  17.828  0.00  0.00    +0.000 NA
ATOM      6  H   UNL     1       9.790  11.029  16.854  0.00  0.00    +0.000 HD
BRANCH   5   7
ATOM      7  C   UNL     1      10.724  12.054  18.374  0.00  0.00    +0.000 C 
ATOM      8  C   UNL     1      12.012  11.672  19.124  0.00  0.00    +0.000 C 
ATOM      9  C   UNL     1      11.119  12.947  17.180  0.00  0.00    +0.000 C 
ATOM     10  C   UNL     1       9.804  12.877  19.295  0.00  0.00    +0.000 C 
ENDBRANCH   5   7
ENDBRANCH   4   5
ENDBRANCH   3   4
ENDBRANCH   1   2
BRANCH   1  11
ATOM     11  O   UNL     1       6.119   7.074  16.551  0.00  0.00    +0.000 OA
BRANCH  11  15
ATOM     12  C   UNL     1       2.718   5.036  17.877  0.00  0.00    +0.000 A 
ATOM     13  C   UNL     1       3.779   4.378  17.254  0.00  0.00    +0.000 A 
ATOM     14  C   UNL     1       4.905   5.092  16.831  0.00  0.00    +0.000 A 
ATOM     15  C   UNL     1       4.966   6.477  16.990  0.00  0.00    +0.000 A 
ATOM     16  C   UNL     1       3.902   7.136  17.606  0.00  0.00    +0.000 A 
ATOM     17  C   UNL     1       2.779   6.418  18.047  0.00  0.00    +0.000 A 
BRANCH  12  19
ATOM     18  C   UNL     1       1.445   4.112  19.645  0.00  0.00    +0.000 C 
ATOM     19  O   UNL     1       1.667   4.239  18.244  0.00  0.00    +0.000 OA
ENDBRANCH  12  19
ENDBRANCH  11  15
ENDBRANCH   1  11
TORSDOF 7
ENDMDL
MODEL 4
REMARK VINA RESULT:      -6.2      4.968      6.929
REMARK  Name = 
REMARK  11 active torsions:
REMARK  status: ('A' for Active; 'I' for Inactive)
REMARK    1  A    between atoms: C_1  and  O_2
REMARK    2  A    between atoms: O_2  and  C_3
REMARK    3  A    between atoms: C_6  and  O_7
REMARK    4  A    between atoms: O_7  and  C_8
REMARK    5  A    between atoms: C_8  and  C_9
REMARK    6  A    between atoms: C_10  and  C_11
REMARK    7  A    between atoms: C_11  and  N_12
REMARK    8  A    between atoms: N_12  and  C_13
REMARK    9  A    between atoms: C_13  and  C_14
REMARK   10  A    between atoms: C_13  and  C_15
REMARK   11  A    between atoms: C_13  and  C_16
REMARK                            x       y       z     vdW  Elec       q    Type
REMARK                         _______ _______ _______ _____ _____    ______ ____
ROOT
ATOM      1  C   UNL     1       4.958   6.384  17.433  0.00  0.00    +0.000 C 
ENDROOT
BRANCH   1   2
ATOM      2  C   UNL     1       5.613   5.708  16.302  0.00  0.00    +0.000 C 
ATOM      3  C   UNL     1       6.150   5.179  15.362  0.00  0.00    +0.000 C 
BRANCH   3   4
ATOM      4  C   UNL     1       6.877   4.620  14.215  0.00  0.00    +0.000 C 
BRANCH   4   5
ATOM      5  N   UNL     1       6.221   3.416  13.703  0.00  0.00    +0.000 NA
ATOM      6  H   UNL     1       5.297   3.353  14.132  0.00  0.00    +0.000 HD
BRANCH   5   7
ATOM      7  C   UNL     1       6.084   3.357  12.231  0.00  0.00    +0.000 C 
ATOM      8  C   UNL     1       7.036   4.349  11.538  0.00  0.00    +0.000 C 
ATOM      9  C   UNL     1       6.481   1.934  11.786  0.00  0.00    +0.000 C 
ATOM     10  C   UNL     1       4.637   3.610  11.771  0.00  0.00    +0.000 C 
ENDBRANCH   5   7
ENDBRANCH   4   5
ENDBRANCH   3   4
ENDBRANCH   1   2
BRANCH   1  11
ATOM     11  O   UNL     1       3.539   6.363  17.249  0.00  0.00    +0.000 OA
BRANCH  11  15
ATOM     12  C   UNL     1       1.421   3.830  19.814  0.00  0.00    +0.000 A 
ATOM     13  C   UNL     1       2.076   4.972  20.276  0.00  0.00    +0.000 A 
ATOM     14  C   UNL     1       2.768   5.802  19.387  0.00  0.00    +0.000 A 
ATOM     15  C   UNL     1       2.846   5.476  18.032  0.00  0.00    +0.000 A 
ATOM     16  C   UNL     1       2.198   4.331  17.571  0.00  0.00    +0.000 A 
ATOM     17  C   UNL     1       1.489   3.508  18.460  0.00  0.00    +0.000 A 
BRANCH  12  19
ATOM     18  C   UNL     1       1.608   2.570  21.807  0.00  0.00    +0.000 C 
ATOM     19  O   UNL     1       0.781   3.092  20.773  0.00  0.00    +0.000 OA
ENDBRANCH  12  19
ENDBRANCH  11  15
ENDBRANCH   1  11
TORSDOF 7
ENDMDL
MODEL 5
REMARK VINA RESULT:      -6.2      0.794      1.368
REMARK  Name = 
REMARK  11 active torsions:
REMARK  status: ('A' for Active; 'I' for Inactive)
REMARK    1  A    between atoms: C_1  and  O_2
REMARK    2  A    between atoms: O_2  and  C_3
REMARK    3  A    between atoms: C_6  and  O_7
REMARK    4  A    between atoms: O_7  and  C_8
REMARK    5  A    between atoms: C_8  and  C_9
REMARK    6  A    between atoms: C_10  and  C_11
REMARK    7  A    between atoms: C_11  and  N_12
REMARK    8  A    between atoms: N_12  and  C_13
REMARK    9  A    between atoms: C_13  and  C_14
REMARK   10  A    between atoms: C_13  and  C_15
REMARK   11  A    between atoms: C_13  and  C_16
REMARK                            x       y       z     vdW  Elec       q    Type
REMARK                         _______ _______ _______ _____ _____    ______ ____
ROOT
ATOM      1  C   UNL     1       7.004   7.036  17.191  0.00  0.00    +0.000 C 
ENDROOT
BRANCH   1   2
ATOM      2  C   UNL     1       7.749   8.180  17.738  0.00  0.00    +0.000 C 
ATOM      3  C   UNL     1       8.356   9.107  18.212  0.00  0.00    +0.000 C 
BRANCH   3   4
ATOM      4  C   UNL     1       9.152  10.162  18.853  0.00  0.00    +0.000 C 
BRANCH   4   5
ATOM      5  N   UNL     1       9.262  11.342  17.994  0.00  0.00    +0.000 NA
ATOM      6  H   UNL     1       8.360  11.818  17.994  0.00  0.00    +0.000 HD
BRANCH   5   7
ATOM      7  C   UNL     1      10.323  12.298  18.381  0.00  0.00    +0.000 C 
ATOM      8  C   UNL     1       9.744  13.497  19.154  0.00  0.00    +0.000 C 
ATOM      9  C   UNL     1      11.295  11.555  19.320  0.00  0.00    +0.000 C 
ATOM     10  C   UNL     1      11.128  12.795  17.166  0.00  0.00    +0.000 C 
ENDBRANCH   5   7
ENDBRANCH   4   5
ENDBRANCH   3   4
ENDBRANCH   1   2
BRANCH   1  11
ATOM     11  O   UNL     1       5.602   7.226  17.411  0.00  0.00    +0.000 OA
BRANCH  11  15
ATOM     12  C   UNL     1       3.049   3.916  17.298  0.00  0.00    +0.000 A 
ATOM     13  C   UNL     1       2.669   5.125  17.883  0.00  0.00    +0.000 A 
ATOM     14  C   UNL     1       3.547   6.214  17.895  0.00  0.00    +0.000 A 
ATOM     15  C   UNL     1       4.829   6.095  17.358  0.00  0.00    +0.000 A 
ATOM     16  C   UNL     1       5.212   4.884  16.780  0.00  0.00    +0.000 A 
ATOM     17  C   UNL     1       4.325   3.797  16.752  0.00  0.00    +0.000 A 
BRANCH  12  19
ATOM     18  C   UNL     1       1.601   2.615  18.642  0.00  0.00    +0.000 C 
ATOM     19  O   UNL     1       2.113   2.919  17.349  0.00  0.00    +0.000 OA
ENDBRANCH  12  19
ENDBRANCH  11  15
ENDBRANCH   1  11
TORSDOF 7
ENDMDL
MODEL 6
REMARK VINA RESULT:      -6.1      0.742      1.737
REMARK  Name = 
REMARK  11 active torsions:
REMARK  status: ('A' for Active; 'I' for Inactive)
REMARK    1  A    between atoms: C_1  and  O_2
REMARK    2  A    between atoms: O_2  and  C_3
REMARK    3  A    between atoms: C_6  and  O_7
REMARK    4  A    between atoms: O_7  and  C_8
REMARK    5  A    between atoms: C_8  and  C_9
REMARK    6  A    between atoms: C_10  and  C_11
REMARK    7  A    between atoms: C_11  and  N_12
REMARK    8  A    between atoms: N_12  and  C_13
REMARK    9  A    between atoms: C_13  and  C_14
REMARK   10  A    between atoms: C_13  and  C_15
REMARK   11  A    between atoms: C_13  and  C_16
REMARK                            x       y       z     vdW  Elec       q    Type
REMARK                         _______ _______ _______ _____ _____    ______ ____
ROOT
ATOM      1  C   UNL     1       7.432   6.938  17.598  0.00  0.00    +0.000 C 
ENDROOT
BRANCH   1   2
ATOM      2  C   UNL     1       7.947   8.300  17.807  0.00  0.00    +0.000 C 
ATOM      3  C   UNL     1       8.353   9.418  18.001  0.00  0.00    +0.000 C 
BRANCH   3   4
ATOM      4  C   UNL     1       8.861  10.752  18.346  0.00  0.00    +0.000 C 
BRANCH   4   5
ATOM      5  N   UNL     1      10.255  10.916  17.931  0.00  0.00    +0.000 NA
ATOM      6  H   UNL     1      10.280  10.950  16.912  0.00  0.00    +0.000 HD
BRANCH   5   7
ATOM      7  C   UNL     1      10.933  12.111  18.480  0.00  0.00    +0.000 C 
ATOM      8  C   UNL     1      12.197  11.726  19.270  0.00  0.00    +0.000 C 
ATOM      9  C   UNL     1      11.370  12.984  17.285  0.00  0.00    +0.000 C 
ATOM     10  C   UNL     1       9.997  12.955  19.365  0.00  0.00    +0.000 C 
ENDBRANCH   5   7
ENDBRANCH   4   5
ENDBRANCH   3   4
ENDBRANCH   1   2
BRANCH   1  11
ATOM     11  O   UNL     1       6.315   6.979  16.703  0.00  0.00    +0.000 OA
BRANCH  11  15
ATOM     12  C   UNL     1       3.114   4.419  17.530  0.00  0.00    +0.000 A 
ATOM     13  C   UNL     1       3.143   5.739  17.982  0.00  0.00    +0.000 A 
ATOM     14  C   UNL     1       4.227   6.570  17.678  0.00  0.00    +0.000 A 
ATOM     15  C   UNL     1       5.313   6.078  16.954  0.00  0.00    +0.000 A 
ATOM     16  C   UNL     1       5.288   4.756  16.508  0.00  0.00    +0.000 A 
ATOM     17  C   UNL     1       4.193   3.928  16.797  0.00  0.00    +0.000 A 
BRANCH  12  19
ATOM     18  C   UNL     1       1.462   4.001  19.169  0.00  0.00    +0.000 C 
ATOM     19  O   UNL     1       2.008   3.699  17.890  0.00  0.00    +0.000 OA
ENDBRANCH  12  19
ENDBRANCH  11  15
ENDBRANCH   1  11
TORSDOF 7
ENDMDL
MODEL 7
REMARK VINA RESULT:      -6.1      5.127      6.984
REMARK  Name = 
REMARK  11 active torsions:
REMARK  status: ('A' for Active; 'I' for Inactive)
REMARK    1  A    between atoms: C_1  and  O_2
REMARK    2  A    between atoms: O_2  and  C_3
REMARK    3  A    between atoms: C_6  and  O_7
REMARK    4  A    between atoms: O_7  and  C_8
REMARK    5  A    between atoms: C_8  and  C_9
REMARK    6  A    between atoms: C_10  and  C_11
REMARK    7  A    between atoms: C_11  and  N_12
REMARK    8  A    between atoms: N_12  and  C_13
REMARK    9  A    between atoms: C_13  and  C_14
REMARK   10  A    between atoms: C_13  and  C_15
REMARK   11  A    between atoms: C_13  and  C_16
REMARK                            x       y       z     vdW  Elec       q    Type
REMARK                         _______ _______ _______ _____ _____    ______ ____
ROOT
ATOM      1  C   UNL     1       4.591   6.701  16.554  0.00  0.00    +0.000 C 
ENDROOT
BRANCH   1   2
ATOM      2  C   UNL     1       5.455   5.867  15.703  0.00  0.00    +0.000 C 
ATOM      3  C   UNL     1       6.145   5.163  15.012  0.00  0.00    +0.000 C 
BRANCH   3   4
ATOM      4  C   UNL     1       6.893   4.262  14.125  0.00  0.00    +0.000 C 
BRANCH   4   5
ATOM      5  N   UNL     1       6.039   3.189  13.614  0.00  0.00    +0.000 NA
ATOM      6  H   UNL     1       5.109   3.306  14.015  0.00  0.00    +0.000 HD
BRANCH   5   7
ATOM      7  C   UNL     1       5.935   3.123  12.139  0.00  0.00    +0.000 C 
ATOM      8  C   UNL     1       4.527   3.519  11.658  0.00  0.00    +0.000 C 
ATOM      9  C   UNL     1       6.936   4.143  11.559  0.00  0.00    +0.000 C 
ATOM     10  C   UNL     1       6.306   1.733  11.592  0.00  0.00    +0.000 C 
ENDBRANCH   5   7
ENDBRANCH   4   5
ENDBRANCH   3   4
ENDBRANCH   1   2
BRANCH   1  11
ATOM     11  O   UNL     1       4.729   6.298  17.921  0.00  0.00    +0.000 OA
BRANCH  11  15
ATOM     12  C   UNL     1       1.758   3.918  19.649  0.00  0.00    +0.000 A 
ATOM     13  C   UNL     1       2.861   4.368  20.375  0.00  0.00    +0.000 A 
ATOM     14  C   UNL     1       3.832   5.171  19.766  0.00  0.00    +0.000 A 
ATOM     15  C   UNL     1       3.731   5.498  18.413  0.00  0.00    +0.000 A 
ATOM     16  C   UNL     1       2.633   5.041  17.685  0.00  0.00    +0.000 A 
ATOM     17  C   UNL     1       1.650   4.251  18.300  0.00  0.00    +0.000 A 
BRANCH  12  19
ATOM     18  C   UNL     1       1.356   2.606  21.576  0.00  0.00    +0.000 C 
ATOM     19  O   UNL     1       0.876   3.136  20.345  0.00  0.00    +0.000 OA
ENDBRANCH  12  19
ENDBRANCH  11  15
ENDBRANCH   1  11
TORSDOF 7
ENDMDL
MODEL 8
REMARK VINA RESULT:      -6.1      0.874      1.686
REMARK  Name = 
REMARK  11 active torsions:
REMARK  status: ('A' for Active; 'I' for Inactive)
REMARK    1  A    between atoms: C_1  and  O_2
REMARK    2  A    between atoms: O_2  and  C_3
REMARK    3  A    between atoms: C_6  and  O_7
REMARK    4  A    between atoms: O_7  and  C_8
REMARK    5  A    between atoms: C_8  and  C_9
REMARK    6  A    between atoms: C_10  and  C_11
REMARK    7  A    between atoms: C_11  and  N_12
REMARK    8  A    between atoms: N_12  and  C_13
REMARK    9  A    between atoms: C_13  and  C_14
REMARK   10  A    between atoms: C_13  and  C_15
REMARK   11  A    between atoms: C_13  and  C_16
REMARK                            x       y       z     vdW  Elec       q    Type
REMARK                         _______ _______ _______ _____ _____    ______ ____
ROOT
ATOM      1  C   UNL     1       7.221   6.907  17.380  0.00  0.00    +0.000 C 
ENDROOT
BRANCH   1   2
ATOM      2  C   UNL     1       7.929   8.080  17.915  0.00  0.00    +0.000 C 
ATOM      3  C   UNL     1       8.485   9.053  18.357  0.00  0.00    +0.000 C 
BRANCH   3   4
ATOM      4  C   UNL     1       9.085  10.242  18.978  0.00  0.00    +0.000 C 
BRANCH   4   5
ATOM      5  N   UNL     1       9.912  10.981  18.022  0.00  0.00    +0.000 NA
ATOM      6  H   UNL     1       9.721  10.616  17.089  0.00  0.00    +0.000 HD
BRANCH   5   7
ATOM      7  C   UNL     1       9.711  12.447  18.027  0.00  0.00    +0.000 C 
ATOM      8  C   UNL     1      10.728  13.156  17.114  0.00  0.00    +0.000 C 
ATOM      9  C   UNL     1       8.301  12.722  17.467  0.00  0.00    +0.000 C 
ATOM     10  C   UNL     1       9.779  13.038  19.448  0.00  0.00    +0.000 C 
ENDBRANCH   5   7
ENDBRANCH   4   5
ENDBRANCH   3   4
ENDBRANCH   1   2
BRANCH   1  11
ATOM     11  O   UNL     1       5.831   7.212  17.230  0.00  0.00    +0.000 OA
BRANCH  11  15
ATOM     12  C   UNL     1       3.052   4.089  17.280  0.00  0.00    +0.000 A 
ATOM     13  C   UNL     1       2.806   5.309  17.910  0.00  0.00    +0.000 A 
ATOM     14  C   UNL     1       3.755   6.335  17.865  0.00  0.00    +0.000 A 
ATOM     15  C   UNL     1       4.979   6.139  17.224  0.00  0.00    +0.000 A 
ATOM     16  C   UNL     1       5.229   4.916  16.601  0.00  0.00    +0.000 A 
ATOM     17  C   UNL     1       4.269   3.893  16.630  0.00  0.00    +0.000 A 
BRANCH  12  19
ATOM     18  C   UNL     1       1.375   3.127  18.643  0.00  0.00    +0.000 C 
ATOM     19  O   UNL     1       2.056   3.158  17.394  0.00  0.00    +0.000 OA
ENDBRANCH  12  19
ENDBRANCH  11  15
ENDBRANCH   1  11
TORSDOF 7
ENDMDL
MODEL 9
REMARK VINA RESULT:      -6.1      1.337      1.648
REMARK  Name = 
REMARK  11 active torsions:
REMARK  status: ('A' for Active; 'I' for Inactive)
REMARK    1  A    between atoms: C_1  and  O_2
REMARK    2  A    between atoms: O_2  and  C_3
REMARK    3  A    between atoms: C_6  and  O_7
REMARK    4  A    between atoms: O_7  and  C_8
REMARK    5  A    between atoms: C_8  and  C_9
REMARK    6  A    between atoms: C_10  and  C_11
REMARK    7  A    between atoms: C_11  and  N_12
REMARK    8  A    between atoms: N_12  and  C_13
REMARK    9  A    between atoms: C_13  and  C_14
REMARK   10  A    between atoms: C_13  and  C_15
REMARK   11  A    between atoms: C_13  and  C_16
REMARK                            x       y       z     vdW  Elec       q    Type
REMARK                         _______ _______ _______ _____ _____    ______ ____
ROOT
ATOM      1  C   UNL     1       7.266   6.343  17.636  0.00  0.00    +0.000 C 
ENDROOT
BRANCH   1   2
ATOM      2  C   UNL     1       7.776   7.702  17.877  0.00  0.00    +0.000 C 
ATOM      3  C   UNL     1       8.213   8.810  18.056  0.00  0.00    +0.000 C 
BRANCH   3   4
ATOM      4  C   UNL     1       8.757  10.171  18.162  0.00  0.00    +0.000 C 
BRANCH   4   5
ATOM      5  N   UNL     1       9.618  10.310  19.338  0.00  0.00    +0.000 NA
ATOM      6  H   UNL     1      10.367   9.622  19.265  0.00  0.00    +0.000 HD
BRANCH   5   7
ATOM      7  C   UNL     1      10.204  11.656  19.526  0.00  0.00    +0.000 C 
ATOM      8  C   UNL     1       9.713  12.638  18.447  0.00  0.00    +0.000 C 
ATOM      9  C   UNL     1       9.725  12.181  20.895  0.00  0.00    +0.000 C 
ATOM     10  C   UNL     1      11.743  11.622  19.545  0.00  0.00    +0.000 C 
ENDBRANCH   5   7
ENDBRANCH   4   5
ENDBRANCH   3   4
ENDBRANCH   1   2
BRANCH   1  11
ATOM     11  O   UNL     1       6.656   5.840  18.830  0.00  0.00    +0.000 OA
BRANCH  11  15
ATOM     12  C   UNL     1       2.842   4.251  18.195  0.00  0.00    +0.000 A 
ATOM     13  C   UNL     1       3.167   5.559  17.837  0.00  0.00    +0.000 A 
ATOM     14  C   UNL     1       4.457   6.055  18.057  0.00  0.00    +0.000 A 
ATOM     15  C   UNL     1       5.424   5.261  18.674  0.00  0.00    +0.000 A 
ATOM     16  C   UNL     1       5.096   3.955  19.039  0.00  0.00    +0.000 A 
ATOM     17  C   UNL     1       3.808   3.452  18.803  0.00  0.00    +0.000 A 
BRANCH  12  19
ATOM     18  C   UNL     1       1.099   2.707  18.613  0.00  0.00    +0.000 C 
ATOM     19  O   UNL     1       1.551   3.876  17.939  0.00  0.00    +0.000 OA
ENDBRANCH  12  19
ENDBRANCH  11  15
ENDBRANCH   1  11
TORSDOF 7
ENDMDL
