MODEL 1
REMARK VINA RESULT:      -8.1      0.000      0.000
REMARK  Name = 
REMARK  9 active torsions:
REMARK  status: ('A' for Active; 'I' for Inactive)
REMARK    1  A    between atoms: C_1  and  C_2
REMARK    2  A    between atoms: C_2  and  C_3
REMARK    3  A    between atoms: C_3  and  N_4
REMARK    4  A    between atoms: C_9  and  C_10
REMARK    5  A    between atoms: N_13  and  C_14
REMARK    6  A    between atoms: C_14  and  C_15
REMARK    7  A    between atoms: N_25  and  C_26
REMARK    8  A    between atoms: C_26  and  C_27
REMARK    9  A    between atoms: C_27  and  C_28
REMARK                            x       y       z     vdW  Elec       q    Type
REMARK                         _______ _______ _______ _____ _____    ______ ____
ROOT
ATOM      1  N   UNL     1       5.135   5.144  17.659  0.00  0.00    +0.000 N 
ATOM      2  C   UNL     1       4.664   6.382  17.180  0.00  0.00    +0.000 A 
ATOM      3  O   UNL     1       5.120   6.960  16.196  0.00  0.00    +0.000 OA
ATOM      4  C   UNL     1       3.595   6.930  17.983  0.00  0.00    +0.000 A 
ATOM      5  N   UNL     1       2.888   8.100  17.818  0.00  0.00    +0.000 NA
ATOM      6  C   UNL     1       2.086   8.170  18.863  0.00  0.00    +0.000 A 
ATOM      7  N   UNL     1       2.241   7.071  19.675  0.00  0.00    +0.000 N 
ATOM      8  C   UNL     1       3.170   6.266  19.096  0.00  0.00    +0.000 A 
ATOM      9  N   UNL     1       3.615   5.038  19.529  0.00  0.00    +0.000 N 
ATOM     10  C   UNL     1       4.614   4.410  18.753  0.00  0.00    +0.000 A 
ATOM     11  O   UNL     1       5.025   3.283  19.033  0.00  0.00    +0.000 OA
ATOM     12  H   UNL     1       1.744   6.917  20.539  0.00  0.00    +0.000 HD
ENDROOT
BRANCH   6  13
ATOM     13  C   UNL     1       1.178   9.296  19.162  0.00  0.00    +0.000 A 
ATOM     14  C   UNL     1       0.444   9.541  20.335  0.00  0.00    +0.000 A 
ATOM     15  N   UNL     1      -0.334  10.624  20.229  0.00  0.00    +0.000 NA
ATOM     16  N   UNL     1      -0.096  11.067  18.974  0.00  0.00    +0.000 N 
ATOM     17  C   UNL     1       0.840  10.321  18.307  0.00  0.00    +0.000 A 
BRANCH  16  18
ATOM     18  C   UNL     1      -0.908  12.140  18.411  0.00  0.00    +0.000 C 
BRANCH  18  19
ATOM     19  C   UNL     1      -2.348  11.737  18.281  0.00  0.00    +0.000 A 
ATOM     20  C   UNL     1      -3.314  12.215  19.178  0.00  0.00    +0.000 A 
ATOM     21  C   UNL     1      -4.660  11.881  19.009  0.00  0.00    +0.000 A 
ATOM     22  C   UNL     1      -5.055  11.071  17.943  0.00  0.00    +0.000 A 
ATOM     23  C   UNL     1      -4.099  10.576  17.058  0.00  0.00    +0.000 A 
ATOM     24  C   UNL     1      -2.759  10.908  17.234  0.00  0.00    +0.000 A 
ATOM     25  F   UNL     1      -1.852  10.423  16.375  0.00  0.00    +0.000 F 
ENDBRANCH  18  19
ENDBRANCH  16  18
ENDBRANCH   6  13
BRANCH   1  26
ATOM     26  C   UNL     1       6.233   4.538  16.907  0.00  0.00    +0.000 C 
BRANCH  26  28
ATOM     27  C   UNL     1       6.453   4.177  14.423  0.00  0.00    +0.000 C 
ATOM     28  C   UNL     1       5.734   3.751  15.695  0.00  0.00    +0.000 C 
ENDBRANCH  26  28
ENDBRANCH   1  26
BRANCH   9  29
ATOM     29  C   UNL     1       3.093   4.357  20.717  0.00  0.00    +0.000 C 
BRANCH  29  30
ATOM     30  C   UNL     1       1.760   3.634  20.504  0.00  0.00    +0.000 C 
ATOM     31  C   UNL     1       1.402   2.637  21.597  0.00  0.00    +0.000 C 
ENDBRANCH  29  30
ENDBRANCH   9  29
TORSDOF 7
ENDMDL
MODEL 2
REMARK VINA RESULT:      -8.0      3.632      9.175
REMARK  Name = 
REMARK  9 active torsions:
REMARK  status: ('A' for Active; 'I' for Inactive)
REMARK    1  A    between atoms: C_1  and  C_2
REMARK    2  A    between atoms: C_2  and  C_3
REMARK    3  A    between atoms: C_3  and  N_4
REMARK    4  A    between atoms: C_9  and  C_10
REMARK    5  A    between atoms: N_13  and  C_14
REMARK    6  A    between atoms: C_14  and  C_15
REMARK    7  A    between atoms: N_25  and  C_26
REMARK    8  A    between atoms: C_26  and  C_27
REMARK    9  A    between atoms: C_27  and  C_28
REMARK                            x       y       z     vdW  Elec       q    Type
REMARK                         _______ _______ _______ _____ _____    ______ ____
ROOT
ATOM      1  N   UNL     1      -1.963  12.295  21.479  0.00  0.00    +0.000 N 
ATOM      2  C   UNL     1      -0.879  11.488  21.874  0.00  0.00    +0.000 A 
ATOM      3  O   UNL     1      -0.403  11.479  23.008  0.00  0.00    +0.000 OA
ATOM      4  C   UNL     1      -0.353  10.680  20.800  0.00  0.00    +0.000 A 
ATOM      5  N   UNL     1       0.682   9.771  20.812  0.00  0.00    +0.000 NA
ATOM      6  C   UNL     1       0.808   9.373  19.560  0.00  0.00    +0.000 A 
ATOM      7  N   UNL     1      -0.129   9.977  18.756  0.00  0.00    +0.000 N 
ATOM      8  C   UNL     1      -0.890  10.775  19.549  0.00  0.00    +0.000 A 
ATOM      9  N   UNL     1      -1.975  11.542  19.189  0.00  0.00    +0.000 N 
ATOM     10  C   UNL     1      -2.584  12.309  20.206  0.00  0.00    +0.000 A 
ATOM     11  O   UNL     1      -3.597  12.974  19.985  0.00  0.00    +0.000 OA
ATOM     12  H   UNL     1      -0.212   9.837  17.761  0.00  0.00    +0.000 HD
ENDROOT
BRANCH   6  13
ATOM     13  C   UNL     1       1.845   8.444  19.066  0.00  0.00    +0.000 A 
ATOM     14  C   UNL     1       2.514   8.457  17.831  0.00  0.00    +0.000 A 
ATOM     15  N   UNL     1       3.344   7.417  17.693  0.00  0.00    +0.000 NA
ATOM     16  N   UNL     1       3.196   6.734  18.850  0.00  0.00    +0.000 N 
ATOM     17  C   UNL     1       2.332   7.338  19.726  0.00  0.00    +0.000 A 
BRANCH  16  18
ATOM     18  C   UNL     1       3.807   5.419  19.007  0.00  0.00    +0.000 C 
BRANCH  18  19
ATOM     19  C   UNL     1       2.797   4.380  19.397  0.00  0.00    +0.000 A 
ATOM     20  C   UNL     1       2.588   4.046  20.743  0.00  0.00    +0.000 A 
ATOM     21  C   UNL     1       1.603   3.122  21.096  0.00  0.00    +0.000 A 
ATOM     22  C   UNL     1       0.814   2.525  20.111  0.00  0.00    +0.000 A 
ATOM     23  C   UNL     1       1.026   2.837  18.769  0.00  0.00    +0.000 A 
ATOM     24  C   UNL     1       2.013   3.755  18.424  0.00  0.00    +0.000 A 
ATOM     25  F   UNL     1       2.206   4.043  17.129  0.00  0.00    +0.000 F 
ENDBRANCH  18  19
ENDBRANCH  16  18
ENDBRANCH   6  13
BRANCH   1  26
ATOM     26  C   UNL     1      -2.534  13.158  22.513  0.00  0.00    +0.000 C 
BRANCH  26  28
ATOM     27  C   UNL     1      -3.949  13.238  24.596  0.00  0.00    +0.000 C 
ATOM     28  C   UNL     1      -3.565  12.423  23.370  0.00  0.00    +0.000 C 
ENDBRANCH  26  28
ENDBRANCH   1  26
BRANCH   9  29
ATOM     29  C   UNL     1      -2.530  11.577  17.832  0.00  0.00    +0.000 C 
BRANCH  29  30
ATOM     30  C   UNL     1      -3.230  10.287  17.396  0.00  0.00    +0.000 C 
ATOM     31  C   UNL     1      -2.908   9.845  15.974  0.00  0.00    +0.000 C 
ENDBRANCH  29  30
ENDBRANCH   9  29
TORSDOF 7
ENDMDL
MODEL 3
REMARK VINA RESULT:      -7.9      0.657      1.041
REMARK  Name = 
REMARK  9 active torsions:
REMARK  status: ('A' for Active; 'I' for Inactive)
REMARK    1  A    between atoms: C_1  and  C_2
REMARK    2  A    between atoms: C_2  and  C_3
REMARK    3  A    between atoms: C_3  and  N_4
REMARK    4  A    between atoms: C_9  and  C_10
REMARK    5  A    between atoms: N_13  and  C_14
REMARK    6  A    between atoms: C_14  and  C_15
REMARK    7  A    between atoms: N_25  and  C_26
REMARK    8  A    between atoms: C_26  and  C_27
REMARK    9  A    between atoms: C_27  and  C_28
REMARK                            x       y       z     vdW  Elec       q    Type
REMARK                         _______ _______ _______ _____ _____    ______ ____
ROOT
ATOM      1  N   UNL     1       4.907   5.150  17.703  0.00  0.00    +0.000 N 
ATOM      2  C   UNL     1       4.455   6.405  17.251  0.00  0.00    +0.000 A 
ATOM      3  O   UNL     1       4.920   6.997  16.280  0.00  0.00    +0.000 OA
ATOM      4  C   UNL     1       3.396   6.952  18.067  0.00  0.00    +0.000 A 
ATOM      5  N   UNL     1       2.707   8.136  17.928  0.00  0.00    +0.000 NA
ATOM      6  C   UNL     1       1.907   8.196  18.976  0.00  0.00    +0.000 A 
ATOM      7  N   UNL     1       2.045   7.078  19.763  0.00  0.00    +0.000 N 
ATOM      8  C   UNL     1       2.961   6.271  19.165  0.00  0.00    +0.000 A 
ATOM      9  N   UNL     1       3.388   5.027  19.571  0.00  0.00    +0.000 N 
ATOM     10  C   UNL     1       4.376   4.400  18.780  0.00  0.00    +0.000 A 
ATOM     11  O   UNL     1       4.770   3.261  19.035  0.00  0.00    +0.000 OA
ATOM     12  H   UNL     1       1.547   6.912  20.624  0.00  0.00    +0.000 HD
ENDROOT
BRANCH   6  13
ATOM     13  C   UNL     1       1.017   9.330  19.300  0.00  0.00    +0.000 A 
ATOM     14  C   UNL     1       0.285   9.558  20.477  0.00  0.00    +0.000 A 
ATOM     15  N   UNL     1      -0.476  10.656  20.396  0.00  0.00    +0.000 NA
ATOM     16  N   UNL     1      -0.227  11.125  19.153  0.00  0.00    +0.000 N 
ATOM     17  C   UNL     1       0.698  10.380  18.469  0.00  0.00    +0.000 A 
BRANCH  16  18
ATOM     18  C   UNL     1      -1.020  12.225  18.614  0.00  0.00    +0.000 C 
BRANCH  18  19
ATOM     19  C   UNL     1      -2.457  11.833  18.425  0.00  0.00    +0.000 A 
ATOM     20  C   UNL     1      -3.443  12.254  19.328  0.00  0.00    +0.000 A 
ATOM     21  C   UNL     1      -4.785  11.934  19.107  0.00  0.00    +0.000 A 
ATOM     22  C   UNL     1      -5.155  11.194  17.983  0.00  0.00    +0.000 A 
ATOM     23  C   UNL     1      -4.179  10.755  17.090  0.00  0.00    +0.000 A 
ATOM     24  C   UNL     1      -2.844  11.074  17.318  0.00  0.00    +0.000 A 
ATOM     25  F   UNL     1      -1.917  10.643  16.451  0.00  0.00    +0.000 F 
ENDBRANCH  18  19
ENDBRANCH  16  18
ENDBRANCH   6  13
BRANCH   1  26
ATOM     26  C   UNL     1       5.995   4.543  16.936  0.00  0.00    +0.000 C 
BRANCH  26  28
ATOM     27  C   UNL     1       7.556   6.064  18.201  0.00  0.00    +0.000 C 
ATOM     28  C   UNL     1       7.340   4.661  17.655  0.00  0.00    +0.000 C 
ENDBRANCH  26  28
ENDBRANCH   1  26
BRANCH   9  29
ATOM     29  C   UNL     1       2.855   4.328  20.744  0.00  0.00    +0.000 C 
BRANCH  29  30
ATOM     30  C   UNL     1       1.386   3.916  20.630  0.00  0.00    +0.000 C 
ATOM     31  C   UNL     1       1.084   2.971  19.474  0.00  0.00    +0.000 C 
ENDBRANCH  29  30
ENDBRANCH   9  29
TORSDOF 7
ENDMDL
MODEL 4
REMARK VINA RESULT:      -7.9      1.126      1.451
REMARK  Name = 
REMARK  9 active torsions:
REMARK  status: ('A' for Active; 'I' for Inactive)
REMARK    1  A    between atoms: C_1  and  C_2
REMARK    2  A    between atoms: C_2  and  C_3
REMARK    3  A    between atoms: C_3  and  N_4
REMARK    4  A    between atoms: C_9  and  C_10
REMARK    5  A    between atoms: N_13  and  C_14
REMARK    6  A    between atoms: C_14  and  C_15
REMARK    7  A    between atoms: N_25  and  C_26
REMARK    8  A    between atoms: C_26  and  C_27
REMARK    9  A    between atoms: C_27  and  C_28
REMARK                            x       y       z     vdW  Elec       q    Type
REMARK                         _______ _______ _______ _____ _____    ______ ____
ROOT
ATOM      1  N   UNL     1       4.673   5.023  18.120  0.00  0.00    +0.000 N 
ATOM      2  C   UNL     1       4.261   6.301  17.697  0.00  0.00    +0.000 A 
ATOM      3  O   UNL     1       4.741   6.897  16.735  0.00  0.00    +0.000 OA
ATOM      4  C   UNL     1       3.225   6.866  18.530  0.00  0.00    +0.000 A 
ATOM      5  N   UNL     1       2.575   8.076  18.419  0.00  0.00    +0.000 NA
ATOM      6  C   UNL     1       1.783   8.140  19.472  0.00  0.00    +0.000 A 
ATOM      7  N   UNL     1       1.888   7.002  20.236  0.00  0.00    +0.000 N 
ATOM      8  C   UNL     1       2.773   6.178  19.617  0.00  0.00    +0.000 A 
ATOM      9  N   UNL     1       3.160   4.912  19.994  0.00  0.00    +0.000 N 
ATOM     10  C   UNL     1       4.123   4.270  19.186  0.00  0.00    +0.000 A 
ATOM     11  O   UNL     1       4.480   3.112  19.415  0.00  0.00    +0.000 OA
ATOM     12  H   UNL     1       1.389   6.836  21.097  0.00  0.00    +0.000 HD
ENDROOT
BRANCH   6  13
ATOM     13  C   UNL     1       0.933   9.296  19.825  0.00  0.00    +0.000 A 
ATOM     14  C   UNL     1       0.163   9.495  20.983  0.00  0.00    +0.000 A 
ATOM     15  N   UNL     1      -0.542  10.631  20.934  0.00  0.00    +0.000 NA
ATOM     16  N   UNL     1      -0.220  11.155  19.730  0.00  0.00    +0.000 N 
ATOM     17  C   UNL     1       0.699  10.405  19.043  0.00  0.00    +0.000 A 
BRANCH  16  18
ATOM     18  C   UNL     1      -0.937  12.320  19.224  0.00  0.00    +0.000 C 
BRANCH  18  19
ATOM     19  C   UNL     1      -2.203  11.929  18.518  0.00  0.00    +0.000 A 
ATOM     20  C   UNL     1      -2.170  11.404  17.218  0.00  0.00    +0.000 A 
ATOM     21  C   UNL     1      -3.349  10.987  16.595  0.00  0.00    +0.000 A 
ATOM     22  C   UNL     1      -4.570  11.086  17.265  0.00  0.00    +0.000 A 
ATOM     23  C   UNL     1      -4.615  11.624  18.550  0.00  0.00    +0.000 A 
ATOM     24  C   UNL     1      -3.437  12.041  19.162  0.00  0.00    +0.000 A 
ATOM     25  F   UNL     1      -3.497  12.558  20.399  0.00  0.00    +0.000 F 
ENDBRANCH  18  19
ENDBRANCH  16  18
ENDBRANCH   6  13
BRANCH   1  26
ATOM     26  C   UNL     1       5.737   4.396  17.336  0.00  0.00    +0.000 C 
BRANCH  26  28
ATOM     27  C   UNL     1       6.169   4.011  14.883  0.00  0.00    +0.000 C 
ATOM     28  C   UNL     1       5.208   3.780  16.040  0.00  0.00    +0.000 C 
ENDBRANCH  26  28
ENDBRANCH   1  26
BRANCH   9  29
ATOM     29  C   UNL     1       2.611   4.208  21.156  0.00  0.00    +0.000 C 
BRANCH  29  30
ATOM     30  C   UNL     1       1.276   3.502  20.903  0.00  0.00    +0.000 C 
ATOM     31  C   UNL     1       0.938   3.301  19.432  0.00  0.00    +0.000 C 
ENDBRANCH  29  30
ENDBRANCH   9  29
TORSDOF 7
ENDMDL
MODEL 5
REMARK VINA RESULT:      -7.8      0.973      1.084
REMARK  Name = 
REMARK  9 active torsions:
REMARK  status: ('A' for Active; 'I' for Inactive)
REMARK    1  A    between atoms: C_1  and  C_2
REMARK    2  A    between atoms: C_2  and  C_3
REMARK    3  A    between atoms: C_3  and  N_4
REMARK    4  A    between atoms: C_9  and  C_10
REMARK    5  A    between atoms: N_13  and  C_14
REMARK    6  A    between atoms: C_14  and  C_15
REMARK    7  A    between atoms: N_25  and  C_26
REMARK    8  A    between atoms: C_26  and  C_27
REMARK    9  A    between atoms: C_27  and  C_28
REMARK                            x       y       z     vdW  Elec       q    Type
REMARK                         _______ _______ _______ _____ _____    ______ ____
ROOT
ATOM      1  N   UNL     1       5.079   4.723  16.807  0.00  0.00    +0.000 N 
ATOM      2  C   UNL     1       4.970   6.127  16.768  0.00  0.00    +0.000 A 
ATOM      3  O   UNL     1       5.770   6.865  16.199  0.00  0.00    +0.000 OA
ATOM      4  C   UNL     1       3.826   6.626  17.494  0.00  0.00    +0.000 A 
ATOM      5  N   UNL     1       3.394   7.923  17.665  0.00  0.00    +0.000 NA
ATOM      6  C   UNL     1       2.356   7.838  18.475  0.00  0.00    +0.000 A 
ATOM      7  N   UNL     1       2.097   6.529  18.805  0.00  0.00    +0.000 N 
ATOM      8  C   UNL     1       3.004   5.758  18.152  0.00  0.00    +0.000 A 
ATOM      9  N   UNL     1       3.104   4.385  18.148  0.00  0.00    +0.000 N 
ATOM     10  C   UNL     1       4.162   3.822  17.401  0.00  0.00    +0.000 A 
ATOM     11  O   UNL     1       4.288   2.601  17.292  0.00  0.00    +0.000 OA
ATOM     12  H   UNL     1       1.361   6.225  19.425  0.00  0.00    +0.000 HD
ENDROOT
BRANCH   6  13
ATOM     13  C   UNL     1       1.599   8.990  19.006  0.00  0.00    +0.000 A 
ATOM     14  C   UNL     1       0.921   9.101  20.232  0.00  0.00    +0.000 A 
ATOM     15  N   UNL     1       0.280  10.269  20.353  0.00  0.00    +0.000 NA
ATOM     16  N   UNL     1       0.549  10.903  19.190  0.00  0.00    +0.000 N 
ATOM     17  C   UNL     1       1.375  10.186  18.363  0.00  0.00    +0.000 A 
BRANCH  16  18
ATOM     18  C   UNL     1      -0.134  12.148  18.861  0.00  0.00    +0.000 C 
BRANCH  18  19
ATOM     19  C   UNL     1      -1.626  11.994  18.911  0.00  0.00    +0.000 A 
ATOM     20  C   UNL     1      -2.388  12.668  19.876  0.00  0.00    +0.000 A 
ATOM     21  C   UNL     1      -3.781  12.563  19.875  0.00  0.00    +0.000 A 
ATOM     22  C   UNL     1      -4.427  11.789  18.909  0.00  0.00    +0.000 A 
ATOM     23  C   UNL     1      -3.676  11.101  17.957  0.00  0.00    +0.000 A 
ATOM     24  C   UNL     1      -2.289  11.205  17.968  0.00  0.00    +0.000 A 
ATOM     25  F   UNL     1      -1.581  10.535  17.046  0.00  0.00    +0.000 F 
ENDBRANCH  18  19
ENDBRANCH  16  18
ENDBRANCH   6  13
BRANCH   1  26
ATOM     26  C   UNL     1       6.228   4.147  16.109  0.00  0.00    +0.000 C 
BRANCH  26  28
ATOM     27  C   UNL     1       6.953   4.631  13.744  0.00  0.00    +0.000 C 
ATOM     28  C   UNL     1       5.941   3.913  14.625  0.00  0.00    +0.000 C 
ENDBRANCH  26  28
ENDBRANCH   1  26
BRANCH   9  29
ATOM     29  C   UNL     1       2.167   3.500  18.847  0.00  0.00    +0.000 C 
BRANCH  29  30
ATOM     30  C   UNL     1       2.550   3.181  20.294  0.00  0.00    +0.000 C 
ATOM     31  C   UNL     1       1.403   3.295  21.290  0.00  0.00    +0.000 C 
ENDBRANCH  29  30
ENDBRANCH   9  29
TORSDOF 7
ENDMDL
MODEL 6
REMARK VINA RESULT:      -7.8      1.736      2.449
REMARK  Name = 
REMARK  9 active torsions:
REMARK  status: ('A' for Active; 'I' for Inactive)
REMARK    1  A    between atoms: C_1  and  C_2
REMARK    2  A    between atoms: C_2  and  C_3
REMARK    3  A    between atoms: C_3  and  N_4
REMARK    4  A    between atoms: C_9  and  C_10
REMARK    5  A    between atoms: N_13  and  C_14
REMARK    6  A    between atoms: C_14  and  C_15
REMARK    7  A    between atoms: N_25  and  C_26
REMARK    8  A    between atoms: C_26  and  C_27
REMARK    9  A    between atoms: C_27  and  C_28
REMARK                            x       y       z     vdW  Elec       q    Type
REMARK                         _______ _______ _______ _____ _____    ______ ____
ROOT
ATOM      1  N   UNL     1       5.008   5.274  17.525  0.00  0.00    +0.000 N 
ATOM      2  C   UNL     1       4.701   6.503  16.908  0.00  0.00    +0.000 A 
ATOM      3  O   UNL     1       5.286   6.944  15.922  0.00  0.00    +0.000 OA
ATOM      4  C   UNL     1       3.637   7.219  17.572  0.00  0.00    +0.000 A 
ATOM      5  N   UNL     1       3.065   8.431  17.253  0.00  0.00    +0.000 NA
ATOM      6  C   UNL     1       2.199   8.669  18.220  0.00  0.00    +0.000 A 
ATOM      7  N   UNL     1       2.182   7.638  19.129  0.00  0.00    +0.000 N 
ATOM      8  C   UNL     1       3.065   6.701  18.696  0.00  0.00    +0.000 A 
ATOM      9  N   UNL     1       3.351   5.480  19.264  0.00  0.00    +0.000 N 
ATOM     10  C   UNL     1       4.336   4.694  18.628  0.00  0.00    +0.000 A 
ATOM     11  O   UNL     1       4.609   3.562  19.033  0.00  0.00    +0.000 OA
ATOM     12  H   UNL     1       1.609   7.610  19.959  0.00  0.00    +0.000 HD
ENDROOT
BRANCH   6  13
ATOM     13  C   UNL     1       1.390   9.899  18.349  0.00  0.00    +0.000 A 
ATOM     14  C   UNL     1       1.831  11.224  18.497  0.00  0.00    +0.000 A 
ATOM     15  N   UNL     1       0.816  12.081  18.658  0.00  0.00    +0.000 NA
ATOM     16  N   UNL     1      -0.280  11.290  18.617  0.00  0.00    +0.000 N 
ATOM     17  C   UNL     1       0.015   9.971  18.391  0.00  0.00    +0.000 A 
BRANCH  16  18
ATOM     18  C   UNL     1      -1.591  11.839  18.944  0.00  0.00    +0.000 C 
BRANCH  18  19
ATOM     19  C   UNL     1      -1.804  11.920  20.428  0.00  0.00    +0.000 A 
ATOM     20  C   UNL     1      -0.914  11.305  21.319  0.00  0.00    +0.000 A 
ATOM     21  C   UNL     1      -1.090  11.439  22.698  0.00  0.00    +0.000 A 
ATOM     22  C   UNL     1      -2.153  12.190  23.200  0.00  0.00    +0.000 A 
ATOM     23  C   UNL     1      -3.054  12.790  22.322  0.00  0.00    +0.000 A 
ATOM     24  C   UNL     1      -2.876  12.649  20.950  0.00  0.00    +0.000 A 
ATOM     25  F   UNL     1      -3.752  13.231  20.118  0.00  0.00    +0.000 F 
ENDBRANCH  18  19
ENDBRANCH  16  18
ENDBRANCH   6  13
BRANCH   1  26
ATOM     26  C   UNL     1       6.092   4.502  16.919  0.00  0.00    +0.000 C 
BRANCH  26  28
ATOM     27  C   UNL     1       6.233   3.986  14.456  0.00  0.00    +0.000 C 
ATOM     28  C   UNL     1       5.595   3.606  15.784  0.00  0.00    +0.000 C 
ENDBRANCH  26  28
ENDBRANCH   1  26
BRANCH   9  29
ATOM     29  C   UNL     1       2.675   4.961  20.457  0.00  0.00    +0.000 C 
BRANCH  29  30
ATOM     30  C   UNL     1       1.264   4.423  20.208  0.00  0.00    +0.000 C 
ATOM     31  C   UNL     1       1.145   2.906  20.275  0.00  0.00    +0.000 C 
ENDBRANCH  29  30
ENDBRANCH   9  29
TORSDOF 7
ENDMDL
MODEL 7
REMARK VINA RESULT:      -7.7      1.922      2.581
REMARK  Name = 
REMARK  9 active torsions:
REMARK  status: ('A' for Active; 'I' for Inactive)
REMARK    1  A    between atoms: C_1  and  C_2
REMARK    2  A    between atoms: C_2  and  C_3
REMARK    3  A    between atoms: C_3  and  N_4
REMARK    4  A    between atoms: C_9  and  C_10
REMARK    5  A    between atoms: N_13  and  C_14
REMARK    6  A    between atoms: C_14  and  C_15
REMARK    7  A    between atoms: N_25  and  C_26
REMARK    8  A    between atoms: C_26  and  C_27
REMARK    9  A    between atoms: C_27  and  C_28
REMARK                            x       y       z     vdW  Elec       q    Type
REMARK                         _______ _______ _______ _____ _____    ______ ____
ROOT
ATOM      1  N   UNL     1       5.105   5.271  17.364  0.00  0.00    +0.000 N 
ATOM      2  C   UNL     1       4.747   6.504  16.784  0.00  0.00    +0.000 A 
ATOM      3  O   UNL     1       5.296   6.986  15.795  0.00  0.00    +0.000 OA
ATOM      4  C   UNL     1       3.678   7.171  17.487  0.00  0.00    +0.000 A 
ATOM      5  N   UNL     1       3.062   8.372  17.211  0.00  0.00    +0.000 NA
ATOM      6  C   UNL     1       2.212   8.562  18.201  0.00  0.00    +0.000 A 
ATOM      7  N   UNL     1       2.246   7.510  19.086  0.00  0.00    +0.000 N 
ATOM      8  C   UNL     1       3.147   6.610  18.612  0.00  0.00    +0.000 A 
ATOM      9  N   UNL     1       3.483   5.386  19.144  0.00  0.00    +0.000 N 
ATOM     10  C   UNL     1       4.477   4.645  18.467  0.00  0.00    +0.000 A 
ATOM     11  O   UNL     1       4.793   3.513  18.839  0.00  0.00    +0.000 OA
ATOM     12  H   UNL     1       1.694   7.445  19.927  0.00  0.00    +0.000 HD
ENDROOT
BRANCH   6  13
ATOM     13  C   UNL     1       1.369   9.762  18.377  0.00  0.00    +0.000 A 
ATOM     14  C   UNL     1       1.767  11.109  18.438  0.00  0.00    +0.000 A 
ATOM     15  N   UNL     1       0.739  11.930  18.679  0.00  0.00    +0.000 NA
ATOM     16  N   UNL     1      -0.321  11.096  18.778  0.00  0.00    +0.000 N 
ATOM     17  C   UNL     1       0.005   9.782  18.562  0.00  0.00    +0.000 A 
BRANCH  16  18
ATOM     18  C   UNL     1      -1.613  11.605  19.224  0.00  0.00    +0.000 C 
BRANCH  18  19
ATOM     19  C   UNL     1      -1.507  12.302  20.549  0.00  0.00    +0.000 A 
ATOM     20  C   UNL     1      -1.760  13.676  20.663  0.00  0.00    +0.000 A 
ATOM     21  C   UNL     1      -1.718  14.301  21.911  0.00  0.00    +0.000 A 
ATOM     22  C   UNL     1      -1.427  13.560  23.058  0.00  0.00    +0.000 A 
ATOM     23  C   UNL     1      -1.156  12.197  22.952  0.00  0.00    +0.000 A 
ATOM     24  C   UNL     1      -1.195  11.582  21.705  0.00  0.00    +0.000 A 
ATOM     25  F   UNL     1      -0.930  10.270  21.620  0.00  0.00    +0.000 F 
ENDBRANCH  18  19
ENDBRANCH  16  18
ENDBRANCH   6  13
BRANCH   1  26
ATOM     26  C   UNL     1       6.198   4.547  16.715  0.00  0.00    +0.000 C 
BRANCH  26  28
ATOM     27  C   UNL     1       6.303   4.059  14.246  0.00  0.00    +0.000 C 
ATOM     28  C   UNL     1       5.701   3.650  15.581  0.00  0.00    +0.000 C 
ENDBRANCH  26  28
ENDBRANCH   1  26
BRANCH   9  29
ATOM     29  C   UNL     1       2.851   4.819  20.338  0.00  0.00    +0.000 C 
BRANCH  29  30
ATOM     30  C   UNL     1       1.605   3.973  20.061  0.00  0.00    +0.000 C 
ATOM     31  C   UNL     1       1.244   2.997  21.173  0.00  0.00    +0.000 C 
ENDBRANCH  29  30
ENDBRANCH   9  29
TORSDOF 7
ENDMDL
MODEL 8
REMARK VINA RESULT:      -7.7      1.983      2.506
REMARK  Name = 
REMARK  9 active torsions:
REMARK  status: ('A' for Active; 'I' for Inactive)
REMARK    1  A    between atoms: C_1  and  C_2
REMARK    2  A    between atoms: C_2  and  C_3
REMARK    3  A    between atoms: C_3  and  N_4
REMARK    4  A    between atoms: C_9  and  C_10
REMARK    5  A    between atoms: N_13  and  C_14
REMARK    6  A    between atoms: C_14  and  C_15
REMARK    7  A    between atoms: N_25  and  C_26
REMARK    8  A    between atoms: C_26  and  C_27
REMARK    9  A    between atoms: C_27  and  C_28
REMARK                            x       y       z     vdW  Elec       q    Type
REMARK                         _______ _______ _______ _____ _____    ______ ____
ROOT
ATOM      1  N   UNL     1       4.771   5.156  17.797  0.00  0.00    +0.000 N 
ATOM      2  C   UNL     1       4.406   6.429  17.318  0.00  0.00    +0.000 A 
ATOM      3  O   UNL     1       4.942   6.986  16.362  0.00  0.00    +0.000 OA
ATOM      4  C   UNL     1       3.346   7.040  18.085  0.00  0.00    +0.000 A 
ATOM      5  N   UNL     1       2.728   8.258  17.910  0.00  0.00    +0.000 NA
ATOM      6  C   UNL     1       1.890   8.370  18.923  0.00  0.00    +0.000 A 
ATOM      7  N   UNL     1       1.936   7.254  19.724  0.00  0.00    +0.000 N 
ATOM      8  C   UNL     1       2.830   6.394  19.170  0.00  0.00    +0.000 A 
ATOM      9  N   UNL     1       3.173   5.132  19.602  0.00  0.00    +0.000 N 
ATOM     10  C   UNL     1       4.157   4.446  18.857  0.00  0.00    +0.000 A 
ATOM     11  O   UNL     1       4.478   3.289  19.137  0.00  0.00    +0.000 OA
ATOM     12  H   UNL     1       1.395   7.124  20.565  0.00  0.00    +0.000 HD
ENDROOT
BRANCH   6  13
ATOM     13  C   UNL     1       1.051   9.553  19.202  0.00  0.00    +0.000 A 
ATOM     14  C   UNL     1       0.095  10.163  18.372  0.00  0.00    +0.000 A 
ATOM     15  N   UNL     1      -0.426  11.265  18.923  0.00  0.00    +0.000 NA
ATOM     16  N   UNL     1       0.210  11.358  20.113  0.00  0.00    +0.000 N 
ATOM     17  C   UNL     1       1.080  10.325  20.342  0.00  0.00    +0.000 A 
BRANCH  16  18
ATOM     18  C   UNL     1       0.045  12.549  20.939  0.00  0.00    +0.000 C 
BRANCH  18  19
ATOM     19  C   UNL     1      -1.287  12.564  21.632  0.00  0.00    +0.000 A 
ATOM     20  C   UNL     1      -1.493  11.835  22.812  0.00  0.00    +0.000 A 
ATOM     21  C   UNL     1      -2.718  11.906  23.480  0.00  0.00    +0.000 A 
ATOM     22  C   UNL     1      -3.746  12.707  22.979  0.00  0.00    +0.000 A 
ATOM     23  C   UNL     1      -3.556  13.420  21.797  0.00  0.00    +0.000 A 
ATOM     24  C   UNL     1      -2.335  13.341  21.134  0.00  0.00    +0.000 A 
ATOM     25  F   UNL     1      -2.169  14.032  19.997  0.00  0.00    +0.000 F 
ENDBRANCH  18  19
ENDBRANCH  16  18
ENDBRANCH   6  13
BRANCH   1  26
ATOM     26  C   UNL     1       5.855   4.484  17.080  0.00  0.00    +0.000 C 
BRANCH  26  28
ATOM     27  C   UNL     1       6.268   4.096  14.625  0.00  0.00    +0.000 C 
ATOM     28  C   UNL     1       5.362   3.793  15.809  0.00  0.00    +0.000 C 
ENDBRANCH  26  28
ENDBRANCH   1  26
BRANCH   9  29
ATOM     29  C   UNL     1       2.556   4.474  20.757  0.00  0.00    +0.000 C 
BRANCH  29  30
ATOM     30  C   UNL     1       1.093   4.069  20.557  0.00  0.00    +0.000 C 
ATOM     31  C   UNL     1       0.889   2.891  19.615  0.00  0.00    +0.000 C 
ENDBRANCH  29  30
ENDBRANCH   9  29
TORSDOF 7
ENDMDL
MODEL 9
REMARK VINA RESULT:      -7.7      3.617      9.181
REMARK  Name = 
REMARK  9 active torsions:
REMARK  status: ('A' for Active; 'I' for Inactive)
REMARK    1  A    between atoms: C_1  and  C_2
REMARK    2  A    between atoms: C_2  and  C_3
REMARK    3  A    between atoms: C_3  and  N_4
REMARK    4  A    between atoms: C_9  and  C_10
REMARK    5  A    between atoms: N_13  and  C_14
REMARK    6  A    between atoms: C_14  and  C_15
REMARK    7  A    between atoms: N_25  and  C_26
REMARK    8  A    between atoms: C_26  and  C_27
REMARK    9  A    between atoms: C_27  and  C_28
REMARK                            x       y       z     vdW  Elec       q    Type
REMARK                         _______ _______ _______ _____ _____    ______ ____
ROOT
ATOM      1  N   UNL     1      -1.571  11.883  22.086  0.00  0.00    +0.000 N 
ATOM      2  C   UNL     1      -0.663  10.836  22.333  0.00  0.00    +0.000 A 
ATOM      3  O   UNL     1      -0.356  10.440  23.456  0.00  0.00    +0.000 OA
ATOM      4  C   UNL     1      -0.098  10.280  21.127  0.00  0.00    +0.000 A 
ATOM      5  N   UNL     1       0.804   9.249  20.976  0.00  0.00    +0.000 NA
ATOM      6  C   UNL     1       1.053   9.194  19.681  0.00  0.00    +0.000 A 
ATOM      7  N   UNL     1       0.322  10.138  19.000  0.00  0.00    +0.000 N 
ATOM      8  C   UNL     1      -0.437  10.800  19.912  0.00  0.00    +0.000 A 
ATOM      9  N   UNL     1      -1.356  11.799  19.686  0.00  0.00    +0.000 N 
ATOM     10  C   UNL     1      -2.000  12.345  20.818  0.00  0.00    +0.000 A 
ATOM     11  O   UNL     1      -2.881  13.199  20.701  0.00  0.00    +0.000 OA
ATOM     12  H   UNL     1       0.362  10.291  18.004  0.00  0.00    +0.000 HD
ENDROOT
BRANCH   6  13
ATOM     13  C   UNL     1       2.025   8.283  19.043  0.00  0.00    +0.000 A 
ATOM     14  C   UNL     1       2.735   8.462  17.844  0.00  0.00    +0.000 A 
ATOM     15  N   UNL     1       3.478   7.395  17.531  0.00  0.00    +0.000 NA
ATOM     16  N   UNL     1       3.233   6.528  18.538  0.00  0.00    +0.000 N 
ATOM     17  C   UNL     1       2.393   7.036  19.495  0.00  0.00    +0.000 A 
BRANCH  16  18
ATOM     18  C   UNL     1       3.725   5.157  18.460  0.00  0.00    +0.000 C 
BRANCH  18  19
ATOM     19  C   UNL     1       2.846   4.207  19.221  0.00  0.00    +0.000 A 
ATOM     20  C   UNL     1       3.229   3.722  20.479  0.00  0.00    +0.000 A 
ATOM     21  C   UNL     1       2.375   2.887  21.203  0.00  0.00    +0.000 A 
ATOM     22  C   UNL     1       1.131   2.531  20.681  0.00  0.00    +0.000 A 
ATOM     23  C   UNL     1       0.749   2.993  19.423  0.00  0.00    +0.000 A 
ATOM     24  C   UNL     1       1.607   3.821  18.704  0.00  0.00    +0.000 A 
ATOM     25  F   UNL     1       1.226   4.256  17.494  0.00  0.00    +0.000 F 
ENDBRANCH  18  19
ENDBRANCH  16  18
ENDBRANCH   6  13
BRANCH   1  26
ATOM     26  C   UNL     1      -2.169  12.510  23.264  0.00  0.00    +0.000 C 
BRANCH  26  28
ATOM     27  C   UNL     1      -2.568  14.839  24.139  0.00  0.00    +0.000 C 
ATOM     28  C   UNL     1      -1.542  13.870  23.573  0.00  0.00    +0.000 C 
ENDBRANCH  26  28
ENDBRANCH   1  26
BRANCH   9  29
ATOM     29  C   UNL     1      -1.706  12.293  18.351  0.00  0.00    +0.000 C 
BRANCH  29  30
ATOM     30  C   UNL     1      -2.569  11.337  17.522  0.00  0.00    +0.000 C 
ATOM     31  C   UNL     1      -4.034  11.293  17.933  0.00  0.00    +0.000 C 
ENDBRANCH  29  30
ENDBRANCH   9  29
TORSDOF 7
ENDMDL
