MODEL 1
REMARK VINA RESULT:      -7.2      0.000      0.000
REMARK  Name = 
REMARK  6 active torsions:
REMARK  status: ('A' for Active; 'I' for Inactive)
REMARK    1  A    between atoms: C_2  and  C_3
REMARK    2  A    between atoms: C_6  and  C_7
REMARK    3  A    between atoms: N_8  and  N_9
REMARK    4  A    between atoms: N_12  and  C_13
REMARK    5  A    between atoms: C_14  and  C_15
REMARK    6  A    between atoms: C_19  and  C_20
REMARK                            x       y       z     vdW  Elec       q    Type
REMARK                         _______ _______ _______ _____ _____    ______ ____
ROOT
ATOM      1  N   UNL     1       5.233   3.017  16.530  0.00  0.00    +0.000 N 
ATOM      2  C   UNL     1       4.301   2.566  17.454  0.00  0.00    +0.000 C 
ATOM      3  O   UNL     1       3.868   1.421  17.397  0.00  0.00    +0.000 OA
ATOM      4  N   UNL     1       3.951   3.545  18.366  0.00  0.00    +0.000 N 
ATOM      5  H   UNL     1       5.557   2.348  15.842  0.00  0.00    +0.000 HD
ATOM      6  H   UNL     1       4.075   4.456  17.946  0.00  0.00    +0.000 HD
ENDROOT
BRANCH   4   7
ATOM      7  C   UNL     1       2.983   3.369  19.374  0.00  0.00    +0.000 A 
ATOM      8  C   UNL     1       1.666   3.847  19.220  0.00  0.00    +0.000 A 
ATOM      9  C   UNL     1       1.136   4.446  17.945  0.00  0.00    +0.000 C 
ATOM     10  C   UNL     1       0.759   3.710  20.285  0.00  0.00    +0.000 A 
ATOM     11  C   UNL     1       1.132   3.068  21.461  0.00  0.00    +0.000 A 
ATOM     12  C   UNL     1       2.408   2.530  21.582  0.00  0.00    +0.000 A 
ATOM     13  C   UNL     1       3.343   2.659  20.541  0.00  0.00    +0.000 A 
ATOM     14  C   UNL     1       4.717   2.077  20.737  0.00  0.00    +0.000 C 
ENDBRANCH   4   7
BRANCH   1  16
ATOM     15  C   UNL     1       6.570   4.455  17.646  0.00  0.00    +0.000 C 
ATOM     16  N   UNL     1       5.781   4.259  16.638  0.00  0.00    +0.000 NA
BRANCH  15  20
ATOM     17  C   UNL     1       8.252   8.331  18.292  0.00  0.00    +0.000 A 
ATOM     18  C   UNL     1       7.444   8.097  17.178  0.00  0.00    +0.000 A 
ATOM     19  C   UNL     1       6.901   6.828  16.968  0.00  0.00    +0.000 A 
ATOM     20  C   UNL     1       7.165   5.790  17.870  0.00  0.00    +0.000 A 
ATOM     21  C   UNL     1       7.973   6.020  18.985  0.00  0.00    +0.000 A 
ATOM     22  C   UNL     1       8.519   7.295  19.196  0.00  0.00    +0.000 A 
BRANCH  17  24
ATOM     23  C   UNL     1       9.265  10.727  18.690  0.00  0.00    +0.000 C 
ATOM     24  C   UNL     1       8.798   9.636  18.511  0.00  0.00    +0.000 C 
ENDBRANCH  17  24
ENDBRANCH  15  20
ENDBRANCH   1  16
TORSDOF 4
ENDMDL
MODEL 2
REMARK VINA RESULT:      -7.2      5.934      7.737
REMARK  Name = 
REMARK  6 active torsions:
REMARK  status: ('A' for Active; 'I' for Inactive)
REMARK    1  A    between atoms: C_2  and  C_3
REMARK    2  A    between atoms: C_6  and  C_7
REMARK    3  A    between atoms: N_8  and  N_9
REMARK    4  A    between atoms: N_12  and  C_13
REMARK    5  A    between atoms: C_14  and  C_15
REMARK    6  A    between atoms: C_19  and  C_20
REMARK                            x       y       z     vdW  Elec       q    Type
REMARK                         _______ _______ _______ _____ _____    ______ ____
ROOT
ATOM      1  N   UNL     1       1.598   7.955  20.687  0.00  0.00    +0.000 N 
ATOM      2  C   UNL     1       0.923   9.167  20.719  0.00  0.00    +0.000 C 
ATOM      3  O   UNL     1       0.334   9.528  21.731  0.00  0.00    +0.000 OA
ATOM      4  N   UNL     1       1.001   9.841  19.514  0.00  0.00    +0.000 N 
ATOM      5  H   UNL     1       1.606   7.412  21.543  0.00  0.00    +0.000 HD
ATOM      6  H   UNL     1       1.125   9.176  18.764  0.00  0.00    +0.000 HD
ENDROOT
BRANCH   4   7
ATOM      7  C   UNL     1       0.357  11.068  19.258  0.00  0.00    +0.000 A 
ATOM      8  C   UNL     1       0.845  12.279  19.789  0.00  0.00    +0.000 A 
ATOM      9  C   UNL     1       2.145  12.401  20.538  0.00  0.00    +0.000 C 
ATOM     10  C   UNL     1       0.125  13.465  19.564  0.00  0.00    +0.000 A 
ATOM     11  C   UNL     1      -1.028  13.463  18.787  0.00  0.00    +0.000 A 
ATOM     12  C   UNL     1      -1.466  12.279  18.201  0.00  0.00    +0.000 A 
ATOM     13  C   UNL     1      -0.777  11.074  18.415  0.00  0.00    +0.000 A 
ATOM     14  C   UNL     1      -1.309   9.821  17.775  0.00  0.00    +0.000 C 
ENDBRANCH   4   7
BRANCH   1  16
ATOM     15  C   UNL     1       2.538   6.318  19.447  0.00  0.00    +0.000 C 
ATOM     16  N   UNL     1       2.326   7.587  19.596  0.00  0.00    +0.000 NA
BRANCH  15  20
ATOM     17  C   UNL     1       4.894   4.906  16.171  0.00  0.00    +0.000 A 
ATOM     18  C   UNL     1       4.140   4.008  16.928  0.00  0.00    +0.000 A 
ATOM     19  C   UNL     1       3.376   4.473  18.001  0.00  0.00    +0.000 A 
ATOM     20  C   UNL     1       3.365   5.836  18.320  0.00  0.00    +0.000 A 
ATOM     21  C   UNL     1       4.117   6.738  17.565  0.00  0.00    +0.000 A 
ATOM     22  C   UNL     1       4.885   6.271  16.488  0.00  0.00    +0.000 A 
BRANCH  17  24
ATOM     23  C   UNL     1       6.317   4.020  14.144  0.00  0.00    +0.000 C 
ATOM     24  C   UNL     1       5.666   4.429  15.066  0.00  0.00    +0.000 C 
ENDBRANCH  17  24
ENDBRANCH  15  20
ENDBRANCH   1  16
TORSDOF 4
ENDMDL
MODEL 3
REMARK VINA RESULT:      -7.2      5.943      7.709
REMARK  Name = 
REMARK  6 active torsions:
REMARK  status: ('A' for Active; 'I' for Inactive)
REMARK    1  A    between atoms: C_2  and  C_3
REMARK    2  A    between atoms: C_6  and  C_7
REMARK    3  A    between atoms: N_8  and  N_9
REMARK    4  A    between atoms: N_12  and  C_13
REMARK    5  A    between atoms: C_14  and  C_15
REMARK    6  A    between atoms: C_19  and  C_20
REMARK                            x       y       z     vdW  Elec       q    Type
REMARK                         _______ _______ _______ _____ _____    ______ ____
ROOT
ATOM      1  N   UNL     1       1.627   7.968  20.647  0.00  0.00    +0.000 N 
ATOM      2  C   UNL     1       0.967   9.189  20.701  0.00  0.00    +0.000 C 
ATOM      3  O   UNL     1       0.440   9.569  21.739  0.00  0.00    +0.000 OA
ATOM      4  N   UNL     1       0.983   9.846  19.484  0.00  0.00    +0.000 N 
ATOM      5  H   UNL     1       1.678   7.437  21.509  0.00  0.00    +0.000 HD
ATOM      6  H   UNL     1       1.058   9.170  18.737  0.00  0.00    +0.000 HD
ENDROOT
BRANCH   4   7
ATOM      7  C   UNL     1       0.339  11.076  19.249  0.00  0.00    +0.000 A 
ATOM      8  C   UNL     1       0.847  12.284  19.768  0.00  0.00    +0.000 A 
ATOM      9  C   UNL     1       2.168  12.398  20.482  0.00  0.00    +0.000 C 
ATOM     10  C   UNL     1       0.127  13.473  19.566  0.00  0.00    +0.000 A 
ATOM     11  C   UNL     1      -1.047  13.478  18.820  0.00  0.00    +0.000 A 
ATOM     12  C   UNL     1      -1.507  12.299  18.245  0.00  0.00    +0.000 A 
ATOM     13  C   UNL     1      -0.818  11.090  18.437  0.00  0.00    +0.000 A 
ATOM     14  C   UNL     1      -1.374   9.841  17.809  0.00  0.00    +0.000 C 
ENDBRANCH   4   7
BRANCH   1  16
ATOM     15  C   UNL     1       2.661   6.339  19.474  0.00  0.00    +0.000 C 
ATOM     16  N   UNL     1       2.287   7.578  19.522  0.00  0.00    +0.000 NA
BRANCH  15  20
ATOM     17  C   UNL     1       4.924   4.928  16.133  0.00  0.00    +0.000 A 
ATOM     18  C   UNL     1       4.923   6.287  16.453  0.00  0.00    +0.000 A 
ATOM     19  C   UNL     1       4.179   6.744  17.542  0.00  0.00    +0.000 A 
ATOM     20  C   UNL     1       3.432   5.845  18.312  0.00  0.00    +0.000 A 
ATOM     21  C   UNL     1       3.429   4.486  17.997  0.00  0.00    +0.000 A 
ATOM     22  C   UNL     1       4.176   4.026  16.902  0.00  0.00    +0.000 A 
BRANCH  17  24
ATOM     23  C   UNL     1       6.340   4.059  14.093  0.00  0.00    +0.000 C 
ATOM     24  C   UNL     1       5.697   4.461  15.024  0.00  0.00    +0.000 C 
ENDBRANCH  17  24
ENDBRANCH  15  20
ENDBRANCH   1  16
TORSDOF 4
ENDMDL
MODEL 4
REMARK VINA RESULT:      -7.1      0.294      2.132
REMARK  Name = 
REMARK  6 active torsions:
REMARK  status: ('A' for Active; 'I' for Inactive)
REMARK    1  A    between atoms: C_2  and  C_3
REMARK    2  A    between atoms: C_6  and  C_7
REMARK    3  A    between atoms: N_8  and  N_9
REMARK    4  A    between atoms: N_12  and  C_13
REMARK    5  A    between atoms: C_14  and  C_15
REMARK    6  A    between atoms: C_19  and  C_20
REMARK                            x       y       z     vdW  Elec       q    Type
REMARK                         _______ _______ _______ _____ _____    ______ ____
ROOT
ATOM      1  N   UNL     1       5.196   3.268  16.409  0.00  0.00    +0.000 N 
ATOM      2  C   UNL     1       4.308   2.782  17.359  0.00  0.00    +0.000 C 
ATOM      3  O   UNL     1       3.865   1.642  17.276  0.00  0.00    +0.000 OA
ATOM      4  N   UNL     1       4.011   3.724  18.327  0.00  0.00    +0.000 N 
ATOM      5  H   UNL     1       5.481   2.626  15.678  0.00  0.00    +0.000 HD
ATOM      6  H   UNL     1       4.120   4.651  17.940  0.00  0.00    +0.000 HD
ENDROOT
BRANCH   4   7
ATOM      7  C   UNL     1       3.094   3.509  19.375  0.00  0.00    +0.000 A 
ATOM      8  C   UNL     1       3.397   2.655  20.454  0.00  0.00    +0.000 A 
ATOM      9  C   UNL     1       4.745   2.019  20.665  0.00  0.00    +0.000 C 
ATOM     10  C   UNL     1       2.420   2.418  21.435  0.00  0.00    +0.000 A 
ATOM     11  C   UNL     1       1.184   3.054  21.379  0.00  0.00    +0.000 A 
ATOM     12  C   UNL     1       0.915   3.955  20.355  0.00  0.00    +0.000 A 
ATOM     13  C   UNL     1       1.865   4.206  19.351  0.00  0.00    +0.000 A 
ATOM     14  C   UNL     1       1.510   5.174  18.255  0.00  0.00    +0.000 C 
ENDBRANCH   4   7
BRANCH   1  16
ATOM     15  C   UNL     1       6.485   4.694  17.595  0.00  0.00    +0.000 C 
ATOM     16  N   UNL     1       5.757   4.502  16.541  0.00  0.00    +0.000 NA
BRANCH  15  20
ATOM     17  C   UNL     1       8.264   8.513  18.314  0.00  0.00    +0.000 A 
ATOM     18  C   UNL     1       8.578   7.430  19.136  0.00  0.00    +0.000 A 
ATOM     19  C   UNL     1       7.991   6.185  18.901  0.00  0.00    +0.000 A 
ATOM     20  C   UNL     1       7.087   6.021  17.845  0.00  0.00    +0.000 A 
ATOM     21  C   UNL     1       6.769   7.101  17.020  0.00  0.00    +0.000 A 
ATOM     22  C   UNL     1       7.359   8.352  17.257  0.00  0.00    +0.000 A 
BRANCH  17  24
ATOM     23  C   UNL     1       9.380  10.855  18.752  0.00  0.00    +0.000 C 
ATOM     24  C   UNL     1       8.876   9.785  18.551  0.00  0.00    +0.000 C 
ENDBRANCH  17  24
ENDBRANCH  15  20
ENDBRANCH   1  16
TORSDOF 4
ENDMDL
MODEL 5
REMARK VINA RESULT:      -7.1      5.030      7.200
REMARK  Name = 
REMARK  6 active torsions:
REMARK  status: ('A' for Active; 'I' for Inactive)
REMARK    1  A    between atoms: C_2  and  C_3
REMARK    2  A    between atoms: C_6  and  C_7
REMARK    3  A    between atoms: N_8  and  N_9
REMARK    4  A    between atoms: N_12  and  C_13
REMARK    5  A    between atoms: C_14  and  C_15
REMARK    6  A    between atoms: C_19  and  C_20
REMARK                            x       y       z     vdW  Elec       q    Type
REMARK                         _______ _______ _______ _____ _____    ______ ____
ROOT
ATOM      1  N   UNL     1       3.236   7.973  17.834  0.00  0.00    +0.000 N 
ATOM      2  C   UNL     1       3.487   6.650  18.173  0.00  0.00    +0.000 C 
ATOM      3  O   UNL     1       4.631   6.265  18.381  0.00  0.00    +0.000 OA
ATOM      4  N   UNL     1       2.331   5.892  18.214  0.00  0.00    +0.000 N 
ATOM      5  H   UNL     1       4.033   8.598  17.806  0.00  0.00    +0.000 HD
ATOM      6  H   UNL     1       1.642   6.294  17.594  0.00  0.00    +0.000 HD
ENDROOT
BRANCH   4   7
ATOM      7  C   UNL     1       2.310   4.508  18.477  0.00  0.00    +0.000 A 
ATOM      8  C   UNL     1       2.846   3.578  17.563  0.00  0.00    +0.000 A 
ATOM      9  C   UNL     1       3.605   3.966  16.322  0.00  0.00    +0.000 C 
ATOM     10  C   UNL     1       2.734   2.205  17.838  0.00  0.00    +0.000 A 
ATOM     11  C   UNL     1       2.147   1.759  19.018  0.00  0.00    +0.000 A 
ATOM     12  C   UNL     1       1.687   2.680  19.953  0.00  0.00    +0.000 A 
ATOM     13  C   UNL     1       1.773   4.060  19.705  0.00  0.00    +0.000 A 
ATOM     14  C   UNL     1       1.238   5.009  20.742  0.00  0.00    +0.000 C 
ENDBRANCH   4   7
BRANCH   1  16
ATOM     15  C   UNL     1       1.625   9.449  18.406  0.00  0.00    +0.000 C 
ATOM     16  N   UNL     1       1.961   8.427  17.685  0.00  0.00    +0.000 NA
BRANCH  15  20
ATOM     17  C   UNL     1      -2.383  10.926  18.235  0.00  0.00    +0.000 A 
ATOM     18  C   UNL     1      -1.946   9.981  17.305  0.00  0.00    +0.000 A 
ATOM     19  C   UNL     1      -0.634   9.505  17.361  0.00  0.00    +0.000 A 
ATOM     20  C   UNL     1       0.244   9.973  18.346  0.00  0.00    +0.000 A 
ATOM     21  C   UNL     1      -0.188  10.918  19.278  0.00  0.00    +0.000 A 
ATOM     22  C   UNL     1      -1.506  11.396  19.221  0.00  0.00    +0.000 A 
BRANCH  17  24
ATOM     23  C   UNL     1      -4.863  11.799  18.148  0.00  0.00    +0.000 C 
ATOM     24  C   UNL     1      -3.730  11.403  18.182  0.00  0.00    +0.000 C 
ENDBRANCH  17  24
ENDBRANCH  15  20
ENDBRANCH   1  16
TORSDOF 4
ENDMDL
MODEL 6
REMARK VINA RESULT:      -7.1      5.054      7.314
REMARK  Name = 
REMARK  6 active torsions:
REMARK  status: ('A' for Active; 'I' for Inactive)
REMARK    1  A    between atoms: C_2  and  C_3
REMARK    2  A    between atoms: C_6  and  C_7
REMARK    3  A    between atoms: N_8  and  N_9
REMARK    4  A    between atoms: N_12  and  C_13
REMARK    5  A    between atoms: C_14  and  C_15
REMARK    6  A    between atoms: C_19  and  C_20
REMARK                            x       y       z     vdW  Elec       q    Type
REMARK                         _______ _______ _______ _____ _____    ______ ____
ROOT
ATOM      1  N   UNL     1       3.157   7.998  17.843  0.00  0.00    +0.000 N 
ATOM      2  C   UNL     1       3.490   6.684  18.142  0.00  0.00    +0.000 C 
ATOM      3  O   UNL     1       4.659   6.357  18.307  0.00  0.00    +0.000 OA
ATOM      4  N   UNL     1       2.379   5.863  18.198  0.00  0.00    +0.000 N 
ATOM      5  H   UNL     1       3.918   8.666  17.807  0.00  0.00    +0.000 HD
ATOM      6  H   UNL     1       1.651   6.240  17.608  0.00  0.00    +0.000 HD
ENDROOT
BRANCH   4   7
ATOM      7  C   UNL     1       2.440   4.474  18.427  0.00  0.00    +0.000 A 
ATOM      8  C   UNL     1       3.080   3.607  17.518  0.00  0.00    +0.000 A 
ATOM      9  C   UNL     1       3.865   4.078  16.323  0.00  0.00    +0.000 C 
ATOM     10  C   UNL     1       3.050   2.222  17.756  0.00  0.00    +0.000 A 
ATOM     11  C   UNL     1       2.442   1.707  18.896  0.00  0.00    +0.000 A 
ATOM     12  C   UNL     1       1.878   2.570  19.830  0.00  0.00    +0.000 A 
ATOM     13  C   UNL     1       1.881   3.959  19.618  0.00  0.00    +0.000 A 
ATOM     14  C   UNL     1       1.235   4.842  20.650  0.00  0.00    +0.000 C 
ENDBRANCH   4   7
BRANCH   1  16
ATOM     15  C   UNL     1       1.549   9.522  18.279  0.00  0.00    +0.000 C 
ATOM     16  N   UNL     1       1.856   8.385  17.741  0.00  0.00    +0.000 NA
BRANCH  15  20
ATOM     17  C   UNL     1      -2.489  10.923  18.229  0.00  0.00    +0.000 A 
ATOM     18  C   UNL     1      -1.601  11.386  19.201  0.00  0.00    +0.000 A 
ATOM     19  C   UNL     1      -0.284  10.922  19.217  0.00  0.00    +0.000 A 
ATOM     20  C   UNL     1       0.147   9.993  18.263  0.00  0.00    +0.000 A 
ATOM     21  C   UNL     1      -0.737   9.527  17.288  0.00  0.00    +0.000 A 
ATOM     22  C   UNL     1      -2.060   9.993  17.273  0.00  0.00    +0.000 A 
BRANCH  17  24
ATOM     23  C   UNL     1      -4.966  11.809  18.184  0.00  0.00    +0.000 C 
ATOM     24  C   UNL     1      -3.835  11.409  18.208  0.00  0.00    +0.000 C 
ENDBRANCH  17  24
ENDBRANCH  15  20
ENDBRANCH   1  16
TORSDOF 4
ENDMDL
MODEL 7
REMARK VINA RESULT:      -7.0      5.936      7.641
REMARK  Name = 
REMARK  6 active torsions:
REMARK  status: ('A' for Active; 'I' for Inactive)
REMARK    1  A    between atoms: C_2  and  C_3
REMARK    2  A    between atoms: C_6  and  C_7
REMARK    3  A    between atoms: N_8  and  N_9
REMARK    4  A    between atoms: N_12  and  C_13
REMARK    5  A    between atoms: C_14  and  C_15
REMARK    6  A    between atoms: C_19  and  C_20
REMARK                            x       y       z     vdW  Elec       q    Type
REMARK                         _______ _______ _______ _____ _____    ______ ____
ROOT
ATOM      1  N   UNL     1       1.560   7.971  20.681  0.00  0.00    +0.000 N 
ATOM      2  C   UNL     1       0.878   9.180  20.682  0.00  0.00    +0.000 C 
ATOM      3  O   UNL     1       0.270   9.554  21.678  0.00  0.00    +0.000 OA
ATOM      4  N   UNL     1       0.972   9.835  19.468  0.00  0.00    +0.000 N 
ATOM      5  H   UNL     1       1.557   7.443  21.546  0.00  0.00    +0.000 HD
ATOM      6  H   UNL     1       1.112   9.158  18.730  0.00  0.00    +0.000 HD
ENDROOT
BRANCH   4   7
ATOM      7  C   UNL     1       0.326  11.053  19.181  0.00  0.00    +0.000 A 
ATOM      8  C   UNL     1      -0.878  11.093  18.449  0.00  0.00    +0.000 A 
ATOM      9  C   UNL     1      -1.648   9.866  18.038  0.00  0.00    +0.000 C 
ATOM     10  C   UNL     1      -1.443  12.338  18.127  0.00  0.00    +0.000 A 
ATOM     11  C   UNL     1      -0.858  13.522  18.564  0.00  0.00    +0.000 A 
ATOM     12  C   UNL     1       0.288  13.478  19.351  0.00  0.00    +0.000 A 
ATOM     13  C   UNL     1       0.886  12.250  19.681  0.00  0.00    +0.000 A 
ATOM     14  C   UNL     1       2.137  12.265  20.516  0.00  0.00    +0.000 C 
ENDBRANCH   4   7
BRANCH   1  16
ATOM     15  C   UNL     1       2.469   6.315  19.443  0.00  0.00    +0.000 C 
ATOM     16  N   UNL     1       2.307   7.589  19.609  0.00  0.00    +0.000 NA
BRANCH  15  20
ATOM     17  C   UNL     1       4.869   4.854  16.223  0.00  0.00    +0.000 A 
ATOM     18  C   UNL     1       4.078   3.972  16.960  0.00  0.00    +0.000 A 
ATOM     19  C   UNL     1       3.299   4.453  18.015  0.00  0.00    +0.000 A 
ATOM     20  C   UNL     1       3.311   5.815  18.335  0.00  0.00    +0.000 A 
ATOM     21  C   UNL     1       4.100   6.702  17.600  0.00  0.00    +0.000 A 
ATOM     22  C   UNL     1       4.883   6.218  16.541  0.00  0.00    +0.000 A 
BRANCH  17  24
ATOM     23  C   UNL     1       6.309   3.946  14.216  0.00  0.00    +0.000 C 
ATOM     24  C   UNL     1       5.657   4.360  15.135  0.00  0.00    +0.000 C 
ENDBRANCH  17  24
ENDBRANCH  15  20
ENDBRANCH   1  16
TORSDOF 4
ENDMDL
MODEL 8
REMARK VINA RESULT:      -7.0      7.379      9.425
REMARK  Name = 
REMARK  6 active torsions:
REMARK  status: ('A' for Active; 'I' for Inactive)
REMARK    1  A    between atoms: C_2  and  C_3
REMARK    2  A    between atoms: C_6  and  C_7
REMARK    3  A    between atoms: N_8  and  N_9
REMARK    4  A    between atoms: N_12  and  C_13
REMARK    5  A    between atoms: C_14  and  C_15
REMARK    6  A    between atoms: C_19  and  C_20
REMARK                            x       y       z     vdW  Elec       q    Type
REMARK                         _______ _______ _______ _____ _____    ______ ____
ROOT
ATOM      1  N   UNL     1       0.776  11.700  18.699  0.00  0.00    +0.000 N 
ATOM      2  C   UNL     1      -0.477  12.185  18.351  0.00  0.00    +0.000 C 
ATOM      3  O   UNL     1      -0.600  13.297  17.848  0.00  0.00    +0.000 OA
ATOM      4  N   UNL     1      -1.488  11.292  18.655  0.00  0.00    +0.000 N 
ATOM      5  H   UNL     1       1.571  12.290  18.485  0.00  0.00    +0.000 HD
ATOM      6  H   UNL     1      -1.200  10.707  19.427  0.00  0.00    +0.000 HD
ENDROOT
BRANCH   4   7
ATOM      7  C   UNL     1      -2.857  11.559  18.457  0.00  0.00    +0.000 A 
ATOM      8  C   UNL     1      -3.640  12.169  19.458  0.00  0.00    +0.000 A 
ATOM      9  C   UNL     1      -3.078  12.713  20.744  0.00  0.00    +0.000 C 
ATOM     10  C   UNL     1      -5.016  12.346  19.238  0.00  0.00    +0.000 A 
ATOM     11  C   UNL     1      -5.600  11.974  18.032  0.00  0.00    +0.000 A 
ATOM     12  C   UNL     1      -4.811  11.443  17.016  0.00  0.00    +0.000 A 
ATOM     13  C   UNL     1      -3.434  11.241  17.207  0.00  0.00    +0.000 A 
ATOM     14  C   UNL     1      -2.636  10.642  16.081  0.00  0.00    +0.000 C 
ENDBRANCH   4   7
BRANCH   1  16
ATOM     15  C   UNL     1       1.759   9.673  18.541  0.00  0.00    +0.000 C 
ATOM     16  N   UNL     1       0.927  10.434  19.178  0.00  0.00    +0.000 NA
BRANCH  15  20
ATOM     17  C   UNL     1       2.333   5.611  19.743  0.00  0.00    +0.000 A 
ATOM     18  C   UNL     1       2.636   6.003  18.438  0.00  0.00    +0.000 A 
ATOM     19  C   UNL     1       2.442   7.330  18.048  0.00  0.00    +0.000 A 
ATOM     20  C   UNL     1       1.944   8.267  18.961  0.00  0.00    +0.000 A 
ATOM     21  C   UNL     1       1.639   7.880  20.267  0.00  0.00    +0.000 A 
ATOM     22  C   UNL     1       1.833   6.547  20.659  0.00  0.00    +0.000 A 
BRANCH  17  24
ATOM     23  C   UNL     1       2.715   3.112  20.470  0.00  0.00    +0.000 C 
ATOM     24  C   UNL     1       2.543   4.254  20.143  0.00  0.00    +0.000 C 
ENDBRANCH  17  24
ENDBRANCH  15  20
ENDBRANCH   1  16
TORSDOF 4
ENDMDL
MODEL 9
REMARK VINA RESULT:      -7.0      7.424      9.505
REMARK  Name = 
REMARK  6 active torsions:
REMARK  status: ('A' for Active; 'I' for Inactive)
REMARK    1  A    between atoms: C_2  and  C_3
REMARK    2  A    between atoms: C_6  and  C_7
REMARK    3  A    between atoms: N_8  and  N_9
REMARK    4  A    between atoms: N_12  and  C_13
REMARK    5  A    between atoms: C_14  and  C_15
REMARK    6  A    between atoms: C_19  and  C_20
REMARK                            x       y       z     vdW  Elec       q    Type
REMARK                         _______ _______ _______ _____ _____    ______ ____
ROOT
ATOM      1  N   UNL     1       0.767  11.894  18.870  0.00  0.00    +0.000 N 
ATOM      2  C   UNL     1      -0.492  12.308  18.458  0.00  0.00    +0.000 C 
ATOM      3  O   UNL     1      -0.647  13.401  17.925  0.00  0.00    +0.000 OA
ATOM      4  N   UNL     1      -1.469  11.372  18.739  0.00  0.00    +0.000 N 
ATOM      5  H   UNL     1       1.541  12.518  18.677  0.00  0.00    +0.000 HD
ATOM      6  H   UNL     1      -1.186  10.818  19.536  0.00  0.00    +0.000 HD
ENDROOT
BRANCH   4   7
ATOM      7  C   UNL     1      -2.840  11.565  18.477  0.00  0.00    +0.000 A 
ATOM      8  C   UNL     1      -3.685  12.197  19.412  0.00  0.00    +0.000 A 
ATOM      9  C   UNL     1      -3.196  12.841  20.681  0.00  0.00    +0.000 C 
ATOM     10  C   UNL     1      -5.059  12.299  19.133  0.00  0.00    +0.000 A 
ATOM     11  C   UNL     1      -5.580  11.831  17.931  0.00  0.00    +0.000 A 
ATOM     12  C   UNL     1      -4.732  11.276  16.979  0.00  0.00    +0.000 A 
ATOM     13  C   UNL     1      -3.356  11.148  17.229  0.00  0.00    +0.000 A 
ATOM     14  C   UNL     1      -2.490  10.519  16.171  0.00  0.00    +0.000 C 
ENDBRANCH   4   7
BRANCH   1  16
ATOM     15  C   UNL     1       1.628   9.818  18.648  0.00  0.00    +0.000 C 
ATOM     16  N   UNL     1       0.960  10.648  19.384  0.00  0.00    +0.000 NA
BRANCH  15  20
ATOM     17  C   UNL     1       2.192   5.796  19.981  0.00  0.00    +0.000 A 
ATOM     18  C   UNL     1       1.651   6.749  20.845  0.00  0.00    +0.000 A 
ATOM     19  C   UNL     1       1.473   8.063  20.407  0.00  0.00    +0.000 A 
ATOM     20  C   UNL     1       1.837   8.427  19.106  0.00  0.00    +0.000 A 
ATOM     21  C   UNL     1       2.378   7.478  18.238  0.00  0.00    +0.000 A 
ATOM     22  C   UNL     1       2.558   6.158  18.678  0.00  0.00    +0.000 A 
BRANCH  17  24
ATOM     23  C   UNL     1       2.500   3.313  20.796  0.00  0.00    +0.000 C 
ATOM     24  C   UNL     1       2.362   4.448  20.429  0.00  0.00    +0.000 C 
ENDBRANCH  17  24
ENDBRANCH  15  20
ENDBRANCH   1  16
TORSDOF 4
ENDMDL
