MODEL 1
REMARK VINA RESULT:      -6.1      0.000      0.000
REMARK  Name = 
REMARK  6 active torsions:
REMARK  status: ('A' for Active; 'I' for Inactive)
REMARK    1  A    between atoms: N_1  and  CA_2
REMARK    2  A    between atoms: CA_2  and  C_3
REMARK    3  A    between atoms: CA_2  and  C_12
REMARK    4  A    between atoms: C_3  and  C_4
REMARK    5  A    between atoms: C_4  and  C_6
REMARK    6  A    between atoms: C_12  and  OXT_14
REMARK                            x       y       z     vdW  Elec       q    Type
REMARK                         _______ _______ _______ _____ _____    ______ ____
ROOT
ATOM      1  C   UNL     1       4.160   4.669  19.345  0.00  0.00    +0.000 C 
ENDROOT
BRANCH   1   2
ATOM      2  C   UNL     1       5.600   4.975  18.981  0.00  0.00    +0.000 C 
ATOM      3  O   UNL     1       6.462   5.170  19.837  0.00  0.00    +0.000 OA
BRANCH   2   4
ATOM      4  C   UNL     1       5.988   5.002  17.547  0.00  0.00    +0.000 A 
ATOM      5  C   UNL     1       5.115   5.383  16.521  0.00  0.00    +0.000 A 
ATOM      6  C   UNL     1       5.562   5.357  15.199  0.00  0.00    +0.000 A 
ATOM      7  C   UNL     1       6.860   4.952  14.945  0.00  0.00    +0.000 A 
ATOM      8  N   UNL     1       7.730   4.582  15.910  0.00  0.00    +0.000 NA
ATOM      9  C   UNL     1       7.273   4.613  17.187  0.00  0.00    +0.000 A 
ENDBRANCH   2   4
ENDBRANCH   1   2
BRANCH   1  10
ATOM     10  CA  UNL     1       3.903   3.170  19.517  0.00  0.00    +0.000 C 
BRANCH  10  11
ATOM     11  N   UNL     1       5.116   2.394  19.917  0.00  0.00    +0.000 NA
ATOM     12  H1  UNL     1       5.558   2.931  20.678  0.00  0.00    +0.000 HD
ATOM     13  H2  UNL     1       5.803   2.439  19.158  0.00  0.00    +0.000 HD
ENDBRANCH  10  11
BRANCH  10  14
ATOM     14  C   UNL     1       3.379   2.566  18.204  0.00  0.00    +0.000 C 
ATOM     15  O   UNL     1       2.545   3.070  17.471  0.00  0.00    +0.000 OA
BRANCH  14  16
ATOM     16  OXT UNL     1       3.965   1.363  17.958  0.00  0.00    +0.000 OA
ATOM     17  HXT UNL     1       4.287   1.403  17.023  0.00  0.00    +0.000 HD
ENDBRANCH  14  16
ENDBRANCH  10  14
ENDBRANCH   1  10
TORSDOF 6
ENDMDL
MODEL 2
REMARK VINA RESULT:      -6.0      1.026      1.026
REMARK  Name = 
REMARK  6 active torsions:
REMARK  status: ('A' for Active; 'I' for Inactive)
REMARK    1  A    between atoms: N_1  and  CA_2
REMARK    2  A    between atoms: CA_2  and  C_3
REMARK    3  A    between atoms: CA_2  and  C_12
REMARK    4  A    between atoms: C_3  and  C_4
REMARK    5  A    between atoms: C_4  and  C_6
REMARK    6  A    between atoms: C_12  and  OXT_14
REMARK                            x       y       z     vdW  Elec       q    Type
REMARK                         _______ _______ _______ _____ _____    ______ ____
ROOT
ATOM      1  C   UNL     1       3.971   4.325  19.042  0.00  0.00    +0.000 C 
ENDROOT
BRANCH   1   2
ATOM      2  C   UNL     1       5.418   4.674  18.758  0.00  0.00    +0.000 C 
ATOM      3  O   UNL     1       6.222   4.908  19.660  0.00  0.00    +0.000 OA
BRANCH   2   4
ATOM      4  C   UNL     1       5.888   4.697  17.349  0.00  0.00    +0.000 A 
ATOM      5  C   UNL     1       5.316   3.920  16.334  0.00  0.00    +0.000 A 
ATOM      6  C   UNL     1       5.839   3.993  15.042  0.00  0.00    +0.000 A 
ATOM      7  C   UNL     1       6.913   4.832  14.806  0.00  0.00    +0.000 A 
ATOM      8  N   UNL     1       7.486   5.597  15.760  0.00  0.00    +0.000 NA
ATOM      9  C   UNL     1       6.963   5.510  17.008  0.00  0.00    +0.000 A 
ENDBRANCH   2   4
ENDBRANCH   1   2
BRANCH   1  10
ATOM     10  CA  UNL     1       3.821   3.000  19.793  0.00  0.00    +0.000 C 
BRANCH  10  11
ATOM     11  N   UNL     1       5.072   2.184  19.828  0.00  0.00    +0.000 NA
ATOM     12  H1  UNL     1       4.873   1.334  19.280  0.00  0.00    +0.000 HD
ATOM     13  H2  UNL     1       5.211   1.831  20.781  0.00  0.00    +0.000 HD
ENDBRANCH  10  11
BRANCH  10  14
ATOM     14  C   UNL     1       2.726   2.140  19.141  0.00  0.00    +0.000 C 
ATOM     15  O   UNL     1       1.536   2.180  19.406  0.00  0.00    +0.000 OA
BRANCH  14  16
ATOM     16  OXT UNL     1       3.261   1.299  18.214  0.00  0.00    +0.000 OA
ATOM     17  HXT UNL     1       2.672   1.359  17.420  0.00  0.00    +0.000 HD
ENDBRANCH  14  16
ENDBRANCH  10  14
ENDBRANCH   1  10
TORSDOF 6
ENDMDL
MODEL 3
REMARK VINA RESULT:      -6.0      2.358      4.962
REMARK  Name = 
REMARK  6 active torsions:
REMARK  status: ('A' for Active; 'I' for Inactive)
REMARK    1  A    between atoms: N_1  and  CA_2
REMARK    2  A    between atoms: CA_2  and  C_3
REMARK    3  A    between atoms: CA_2  and  C_12
REMARK    4  A    between atoms: C_3  and  C_4
REMARK    5  A    between atoms: C_4  and  C_6
REMARK    6  A    between atoms: C_12  and  OXT_14
REMARK                            x       y       z     vdW  Elec       q    Type
REMARK                         _______ _______ _______ _____ _____    ______ ____
ROOT
ATOM      1  C   UNL     1       4.793   5.260  17.440  0.00  0.00    +0.000 C 
ENDROOT
BRANCH   1   2
ATOM      2  C   UNL     1       4.621   4.299  18.600  0.00  0.00    +0.000 C 
ATOM      3  O   UNL     1       5.577   3.902  19.265  0.00  0.00    +0.000 OA
BRANCH   2   4
ATOM      4  C   UNL     1       3.252   3.857  18.969  0.00  0.00    +0.000 A 
ATOM      5  C   UNL     1       2.743   3.929  20.271  0.00  0.00    +0.000 A 
ATOM      6  C   UNL     1       1.450   3.469  20.526  0.00  0.00    +0.000 A 
ATOM      7  C   UNL     1       0.710   2.952  19.478  0.00  0.00    +0.000 A 
ATOM      8  N   UNL     1       1.167   2.871  18.209  0.00  0.00    +0.000 NA
ATOM      9  C   UNL     1       2.427   3.322  17.985  0.00  0.00    +0.000 A 
ENDBRANCH   2   4
ENDBRANCH   1   2
BRANCH   1  10
ATOM     10  CA  UNL     1       5.705   4.702  16.344  0.00  0.00    +0.000 C 
BRANCH  10  11
ATOM     11  N   UNL     1       5.731   3.209  16.287  0.00  0.00    +0.000 NA
ATOM     12  H1  UNL     1       5.645   2.961  15.289  0.00  0.00    +0.000 HD
ATOM     13  H2  UNL     1       4.866   2.846  16.701  0.00  0.00    +0.000 HD
ENDBRANCH  10  11
BRANCH  10  14
ATOM     14  C   UNL     1       7.149   5.182  16.559  0.00  0.00    +0.000 C 
ATOM     15  O   UNL     1       7.581   6.288  16.281  0.00  0.00    +0.000 OA
BRANCH  14  16
ATOM     16  OXT UNL     1       7.911   4.194  17.102  0.00  0.00    +0.000 OA
ATOM     17  HXT UNL     1       8.744   4.632  17.411  0.00  0.00    +0.000 HD
ENDBRANCH  14  16
ENDBRANCH  10  14
ENDBRANCH   1  10
TORSDOF 6
ENDMDL
MODEL 4
REMARK VINA RESULT:      -5.9      1.925      4.861
REMARK  Name = 
REMARK  6 active torsions:
REMARK  status: ('A' for Active; 'I' for Inactive)
REMARK    1  A    between atoms: N_1  and  CA_2
REMARK    2  A    between atoms: CA_2  and  C_3
REMARK    3  A    between atoms: CA_2  and  C_12
REMARK    4  A    between atoms: C_3  and  C_4
REMARK    5  A    between atoms: C_4  and  C_6
REMARK    6  A    between atoms: C_12  and  OXT_14
REMARK                            x       y       z     vdW  Elec       q    Type
REMARK                         _______ _______ _______ _____ _____    ______ ____
ROOT
ATOM      1  C   UNL     1       5.809   5.660  17.513  0.00  0.00    +0.000 C 
ENDROOT
BRANCH   1   2
ATOM      2  C   UNL     1       5.202   4.393  16.943  0.00  0.00    +0.000 C 
ATOM      3  O   UNL     1       5.520   3.958  15.836  0.00  0.00    +0.000 OA
BRANCH   2   4
ATOM      4  C   UNL     1       4.221   3.635  17.761  0.00  0.00    +0.000 A 
ATOM      5  C   UNL     1       3.021   3.127  17.250  0.00  0.00    +0.000 A 
ATOM      6  C   UNL     1       2.150   2.445  18.101  0.00  0.00    +0.000 A 
ATOM      7  C   UNL     1       2.503   2.294  19.431  0.00  0.00    +0.000 A 
ATOM      8  N   UNL     1       3.655   2.767  19.956  0.00  0.00    +0.000 NA
ATOM      9  C   UNL     1       4.484   3.428  19.111  0.00  0.00    +0.000 A 
ENDBRANCH   2   4
ENDBRANCH   1   2
BRANCH   1  10
ATOM     10  CA  UNL     1       7.333   5.579  17.636  0.00  0.00    +0.000 C 
BRANCH  10  11
ATOM     11  N   UNL     1       7.887   4.221  17.350  0.00  0.00    +0.000 NA
ATOM     12  H1  UNL     1       8.705   4.112  17.969  0.00  0.00    +0.000 HD
ATOM     13  H2  UNL     1       8.293   4.220  16.409  0.00  0.00    +0.000 HD
ENDBRANCH  10  11
BRANCH  10  14
ATOM     14  C   UNL     1       7.773   5.969  19.057  0.00  0.00    +0.000 C 
ATOM     15  O   UNL     1       7.510   5.355  20.077  0.00  0.00    +0.000 OA
BRANCH  14  16
ATOM     16  OXT UNL     1       8.500   7.118  19.038  0.00  0.00    +0.000 OA
ATOM     17  HXT UNL     1       8.962   7.134  18.162  0.00  0.00    +0.000 HD
ENDBRANCH  14  16
ENDBRANCH  10  14
ENDBRANCH   1  10
TORSDOF 6
ENDMDL
MODEL 5
REMARK VINA RESULT:      -5.8      1.537      1.825
REMARK  Name = 
REMARK  6 active torsions:
REMARK  status: ('A' for Active; 'I' for Inactive)
REMARK    1  A    between atoms: N_1  and  CA_2
REMARK    2  A    between atoms: CA_2  and  C_3
REMARK    3  A    between atoms: CA_2  and  C_12
REMARK    4  A    between atoms: C_3  and  C_4
REMARK    5  A    between atoms: C_4  and  C_6
REMARK    6  A    between atoms: C_12  and  OXT_14
REMARK                            x       y       z     vdW  Elec       q    Type
REMARK                         _______ _______ _______ _____ _____    ______ ____
ROOT
ATOM      1  C   UNL     1       3.381   4.179  18.632  0.00  0.00    +0.000 C 
ENDROOT
BRANCH   1   2
ATOM      2  C   UNL     1       4.879   3.974  18.523  0.00  0.00    +0.000 C 
ATOM      3  O   UNL     1       5.549   3.547  19.463  0.00  0.00    +0.000 OA
BRANCH   2   4
ATOM      4  C   UNL     1       5.551   4.262  17.230  0.00  0.00    +0.000 A 
ATOM      5  C   UNL     1       4.901   4.192  15.992  0.00  0.00    +0.000 A 
ATOM      6  C   UNL     1       5.620   4.460  14.827  0.00  0.00    +0.000 A 
ATOM      7  C   UNL     1       6.961   4.785  14.933  0.00  0.00    +0.000 A 
ATOM      8  N   UNL     1       7.618   4.866  16.110  0.00  0.00    +0.000 NA
ATOM      9  C   UNL     1       6.900   4.600  17.229  0.00  0.00    +0.000 A 
ENDBRANCH   2   4
ENDBRANCH   1   2
BRANCH   1  10
ATOM     10  CA  UNL     1       2.624   2.871  18.878  0.00  0.00    +0.000 C 
BRANCH  10  11
ATOM     11  N   UNL     1       3.281   1.673  18.273  0.00  0.00    +0.000 NA
ATOM     12  H1  UNL     1       2.569   0.928  18.274  0.00  0.00    +0.000 HD
ATOM     13  H2  UNL     1       3.997   1.325  18.921  0.00  0.00    +0.000 HD
ENDBRANCH  10  11
BRANCH  10  14
ATOM     14  C   UNL     1       1.204   2.962  18.299  0.00  0.00    +0.000 C 
ATOM     15  O   UNL     1       0.275   2.218  18.569  0.00  0.00    +0.000 OA
BRANCH  14  16
ATOM     16  OXT UNL     1       1.107   3.992  17.416  0.00  0.00    +0.000 OA
ATOM     17  HXT UNL     1       0.181   4.335  17.497  0.00  0.00    +0.000 HD
ENDBRANCH  14  16
ENDBRANCH  10  14
ENDBRANCH   1  10
TORSDOF 6
ENDMDL
MODEL 6
REMARK VINA RESULT:      -5.8      2.332      4.859
REMARK  Name = 
REMARK  6 active torsions:
REMARK  status: ('A' for Active; 'I' for Inactive)
REMARK    1  A    between atoms: N_1  and  CA_2
REMARK    2  A    between atoms: CA_2  and  C_3
REMARK    3  A    between atoms: CA_2  and  C_12
REMARK    4  A    between atoms: C_3  and  C_4
REMARK    5  A    between atoms: C_4  and  C_6
REMARK    6  A    between atoms: C_12  and  OXT_14
REMARK                            x       y       z     vdW  Elec       q    Type
REMARK                         _______ _______ _______ _____ _____    ______ ____
ROOT
ATOM      1  C   UNL     1       5.180   5.510  17.564  0.00  0.00    +0.000 C 
ENDROOT
BRANCH   1   2
ATOM      2  C   UNL     1       5.078   4.673  18.824  0.00  0.00    +0.000 C 
ATOM      3  O   UNL     1       6.068   4.168  19.353  0.00  0.00    +0.000 OA
BRANCH   2   4
ATOM      4  C   UNL     1       3.748   4.490  19.459  0.00  0.00    +0.000 A 
ATOM      5  C   UNL     1       2.945   5.556  19.884  0.00  0.00    +0.000 A 
ATOM      6  C   UNL     1       1.717   5.286  20.490  0.00  0.00    +0.000 A 
ATOM      7  C   UNL     1       1.332   3.967  20.654  0.00  0.00    +0.000 A 
ATOM      8  N   UNL     1       2.080   2.916  20.253  0.00  0.00    +0.000 NA
ATOM      9  C   UNL     1       3.269   3.202  19.668  0.00  0.00    +0.000 A 
ENDBRANCH   2   4
ENDBRANCH   1   2
BRANCH   1  10
ATOM     10  CA  UNL     1       5.613   4.690  16.346  0.00  0.00    +0.000 C 
BRANCH  10  11
ATOM     11  N   UNL     1       5.453   3.215  16.526  0.00  0.00    +0.000 NA
ATOM     12  H1  UNL     1       5.391   3.059  17.544  0.00  0.00    +0.000 HD
ATOM     13  H2  UNL     1       6.329   2.751  16.263  0.00  0.00    +0.000 HD
ENDBRANCH  10  11
BRANCH  10  14
ATOM     14  C   UNL     1       7.092   4.958  16.023  0.00  0.00    +0.000 C 
ATOM     15  O   UNL     1       7.509   5.582  15.061  0.00  0.00    +0.000 OA
BRANCH  14  16
ATOM     16  OXT UNL     1       7.901   4.392  16.959  0.00  0.00    +0.000 OA
ATOM     17  HXT UNL     1       7.307   3.858  17.544  0.00  0.00    +0.000 HD
ENDBRANCH  14  16
ENDBRANCH  10  14
ENDBRANCH   1  10
TORSDOF 6
ENDMDL
MODEL 7
REMARK VINA RESULT:      -5.8      2.256      4.801
REMARK  Name = 
REMARK  6 active torsions:
REMARK  status: ('A' for Active; 'I' for Inactive)
REMARK    1  A    between atoms: N_1  and  CA_2
REMARK    2  A    between atoms: CA_2  and  C_3
REMARK    3  A    between atoms: CA_2  and  C_12
REMARK    4  A    between atoms: C_3  and  C_4
REMARK    5  A    between atoms: C_4  and  C_6
REMARK    6  A    between atoms: C_12  and  OXT_14
REMARK                            x       y       z     vdW  Elec       q    Type
REMARK                         _______ _______ _______ _____ _____    ______ ____
ROOT
ATOM      1  C   UNL     1       5.058   6.395  17.286  0.00  0.00    +0.000 C 
ENDROOT
BRANCH   1   2
ATOM      2  C   UNL     1       4.503   5.025  16.950  0.00  0.00    +0.000 C 
ATOM      3  O   UNL     1       5.000   4.317  16.074  0.00  0.00    +0.000 OA
BRANCH   2   4
ATOM      4  C   UNL     1       3.348   4.508  17.728  0.00  0.00    +0.000 A 
ATOM      5  C   UNL     1       2.904   5.086  18.923  0.00  0.00    +0.000 A 
ATOM      6  C   UNL     1       1.821   4.518  19.596  0.00  0.00    +0.000 A 
ATOM      7  C   UNL     1       1.221   3.393  19.059  0.00  0.00    +0.000 A 
ATOM      8  N   UNL     1       1.621   2.811  17.907  0.00  0.00    +0.000 NA
ATOM      9  C   UNL     1       2.676   3.380  17.271  0.00  0.00    +0.000 A 
ENDBRANCH   2   4
ENDBRANCH   1   2
BRANCH   1  10
ATOM     10  CA  UNL     1       6.568   6.373  17.537  0.00  0.00    +0.000 C 
BRANCH  10  11
ATOM     11  N   UNL     1       7.377   6.105  16.309  0.00  0.00    +0.000 NA
ATOM     12  H1  UNL     1       7.354   6.976  15.757  0.00  0.00    +0.000 HD
ATOM     13  H2  UNL     1       6.873   5.433  15.720  0.00  0.00    +0.000 HD
ENDBRANCH  10  11
BRANCH  10  14
ATOM     14  C   UNL     1       6.920   5.290  18.569  0.00  0.00    +0.000 C 
ATOM     15  O   UNL     1       6.673   5.337  19.762  0.00  0.00    +0.000 OA
BRANCH  14  16
ATOM     16  OXT UNL     1       7.569   4.251  17.977  0.00  0.00    +0.000 OA
ATOM     17  HXT UNL     1       8.065   3.793  18.701  0.00  0.00    +0.000 HD
ENDBRANCH  14  16
ENDBRANCH  10  14
ENDBRANCH   1  10
TORSDOF 6
ENDMDL
MODEL 8
REMARK VINA RESULT:      -5.8      2.598      4.849
REMARK  Name = 
REMARK  6 active torsions:
REMARK  status: ('A' for Active; 'I' for Inactive)
REMARK    1  A    between atoms: N_1  and  CA_2
REMARK    2  A    between atoms: CA_2  and  C_3
REMARK    3  A    between atoms: CA_2  and  C_12
REMARK    4  A    between atoms: C_3  and  C_4
REMARK    5  A    between atoms: C_4  and  C_6
REMARK    6  A    between atoms: C_12  and  OXT_14
REMARK                            x       y       z     vdW  Elec       q    Type
REMARK                         _______ _______ _______ _____ _____    ______ ____
ROOT
ATOM      1  C   UNL     1       4.765   5.201  17.061  0.00  0.00    +0.000 C 
ENDROOT
BRANCH   1   2
ATOM      2  C   UNL     1       3.621   5.616  17.965  0.00  0.00    +0.000 C 
ATOM      3  O   UNL     1       3.466   6.781  18.329  0.00  0.00    +0.000 OA
BRANCH   2   4
ATOM      4  C   UNL     1       2.637   4.589  18.394  0.00  0.00    +0.000 A 
ATOM      5  C   UNL     1       1.896   4.680  19.579  0.00  0.00    +0.000 A 
ATOM      6  C   UNL     1       1.008   3.655  19.910  0.00  0.00    +0.000 A 
ATOM      7  C   UNL     1       0.891   2.576  19.052  0.00  0.00    +0.000 A 
ATOM      8  N   UNL     1       1.586   2.458  17.901  0.00  0.00    +0.000 NA
ATOM      9  C   UNL     1       2.444   3.464  17.600  0.00  0.00    +0.000 A 
ENDBRANCH   2   4
ENDBRANCH   1   2
BRANCH   1  10
ATOM     10  CA  UNL     1       5.925   4.567  17.832  0.00  0.00    +0.000 C 
BRANCH  10  11
ATOM     11  N   UNL     1       6.040   5.043  19.244  0.00  0.00    +0.000 NA
ATOM     12  H1  UNL     1       6.472   4.269  19.771  0.00  0.00    +0.000 HD
ATOM     13  H2  UNL     1       5.100   5.115  19.647  0.00  0.00    +0.000 HD
ENDBRANCH  10  11
BRANCH  10  14
ATOM     14  C   UNL     1       7.259   4.872  17.131  0.00  0.00    +0.000 C 
ATOM     15  O   UNL     1       7.434   5.719  16.271  0.00  0.00    +0.000 OA
BRANCH  14  16
ATOM     16  OXT UNL     1       8.244   4.053  17.590  0.00  0.00    +0.000 OA
ATOM     17  HXT UNL     1       9.087   4.399  17.202  0.00  0.00    +0.000 HD
ENDBRANCH  14  16
ENDBRANCH  10  14
ENDBRANCH   1  10
TORSDOF 6
ENDMDL
MODEL 9
REMARK VINA RESULT:      -5.8      2.168      4.852
REMARK  Name = 
REMARK  6 active torsions:
REMARK  status: ('A' for Active; 'I' for Inactive)
REMARK    1  A    between atoms: N_1  and  CA_2
REMARK    2  A    between atoms: CA_2  and  C_3
REMARK    3  A    between atoms: CA_2  and  C_12
REMARK    4  A    between atoms: C_3  and  C_4
REMARK    5  A    between atoms: C_4  and  C_6
REMARK    6  A    between atoms: C_12  and  OXT_14
REMARK                            x       y       z     vdW  Elec       q    Type
REMARK                         _______ _______ _______ _____ _____    ______ ____
ROOT
ATOM      1  C   UNL     1       5.313   5.980  17.279  0.00  0.00    +0.000 C 
ENDROOT
BRANCH   1   2
ATOM      2  C   UNL     1       4.789   4.662  16.745  0.00  0.00    +0.000 C 
ATOM      3  O   UNL     1       5.064   4.260  15.615  0.00  0.00    +0.000 OA
BRANCH   2   4
ATOM      4  C   UNL     1       3.949   3.813  17.628  0.00  0.00    +0.000 A 
ATOM      5  C   UNL     1       4.364   3.367  18.889  0.00  0.00    +0.000 A 
ATOM      6  C   UNL     1       3.514   2.555  19.641  0.00  0.00    +0.000 A 
ATOM      7  C   UNL     1       2.282   2.213  19.111  0.00  0.00    +0.000 A 
ATOM      8  N   UNL     1       1.848   2.628  17.901  0.00  0.00    +0.000 NA
ATOM      9  C   UNL     1       2.692   3.415  17.188  0.00  0.00    +0.000 A 
ENDBRANCH   2   4
ENDBRANCH   1   2
BRANCH   1  10
ATOM     10  CA  UNL     1       6.836   6.095  17.172  0.00  0.00    +0.000 C 
BRANCH  10  11
ATOM     11  N   UNL     1       7.361   5.859  15.793  0.00  0.00    +0.000 NA
ATOM     12  H1  UNL     1       7.327   4.838  15.647  0.00  0.00    +0.000 HD
ATOM     13  H2  UNL     1       8.364   6.071  15.779  0.00  0.00    +0.000 HD
ENDBRANCH  10  11
BRANCH  10  14
ATOM     14  C   UNL     1       7.513   5.078  18.105  0.00  0.00    +0.000 C 
ATOM     15  O   UNL     1       7.500   5.113  19.325  0.00  0.00    +0.000 OA
BRANCH  14  16
ATOM     16  OXT UNL     1       8.153   4.116  17.388  0.00  0.00    +0.000 OA
ATOM     17  HXT UNL     1       8.629   4.590  16.660  0.00  0.00    +0.000 HD
ENDBRANCH  14  16
ENDBRANCH  10  14
ENDBRANCH   1  10
TORSDOF 6
ENDMDL
