MODEL 1
REMARK VINA RESULT:      -9.0      0.000      0.000
REMARK  Name = 
REMARK  7 active torsions:
REMARK  status: ('A' for Active; 'I' for Inactive)
REMARK    1  A    between atoms: C_2  and  C_3
REMARK    2  A    between atoms: C_5  and  C_6
REMARK    3  A    between atoms: C_9  and  C_10
REMARK    4  A    between atoms: C_10  and  O_11
REMARK    5  A    between atoms: O_11  and  C_12
REMARK    6  A    between atoms: C_21  and  N_22
REMARK    7  A    between atoms: N_25  and  C_26
REMARK                            x       y       z     vdW  Elec       q    Type
REMARK                         _______ _______ _______ _____ _____    ______ ____
ROOT
ATOM      1  C   UNL     1       2.645   5.095  19.855  0.00  0.00    +0.000 A 
ATOM      2  N   UNL     1       1.855   5.899  20.652  0.00  0.00    +0.000 NA
ATOM      3  C   UNL     1       1.947   7.103  20.103  0.00  0.00    +0.000 A 
ATOM      4  O   UNL     1       2.778   7.124  18.998  0.00  0.00    +0.000 OA
ATOM      5  C   UNL     1       3.213   5.830  18.831  0.00  0.00    +0.000 A 
ENDROOT
BRANCH   5   6
ATOM      6  N   UNL     1       4.019   5.534  17.773  0.00  0.00    +0.000 N 
ATOM      7  C   UNL     1       4.748   6.572  17.010  0.00  0.00    +0.000 C 
ATOM      8  C   UNL     1       6.128   6.046  16.544  0.00  0.00    +0.000 C 
ATOM      9  N   UNL     1       6.024   4.732  15.885  0.00  0.00    +0.000 N 
ATOM     10  C   UNL     1       5.219   3.717  16.589  0.00  0.00    +0.000 C 
ATOM     11  C   UNL     1       3.841   4.286  17.012  0.00  0.00    +0.000 C 
BRANCH   9  12
ATOM     12  C   UNL     1       6.391   4.549  14.566  0.00  0.00    +0.000 A 
ATOM     13  C   UNL     1       5.719   3.626  13.750  0.00  0.00    +0.000 A 
ATOM     14  C   UNL     1       6.076   3.437  12.411  0.00  0.00    +0.000 A 
ATOM     15  C   UNL     1       7.119   4.172  11.857  0.00  0.00    +0.000 A 
ATOM     16  C   UNL     1       7.801   5.094  12.644  0.00  0.00    +0.000 A 
ATOM     17  C   UNL     1       7.440   5.273  13.983  0.00  0.00    +0.000 A 
ENDBRANCH   9  12
ENDBRANCH   5   6
BRANCH   3  18
ATOM     18  C   UNL     1       1.178   8.253  20.555  0.00  0.00    +0.000 A 
ATOM     19  C   UNL     1       0.485   8.366  21.753  0.00  0.00    +0.000 A 
ATOM     20  C   UNL     1      -0.183   9.610  21.757  0.00  0.00    +0.000 A 
ATOM     21  C   UNL     1       0.141  10.242  20.577  0.00  0.00    +0.000 A 
ATOM     22  O   UNL     1       0.968   9.427  19.836  0.00  0.00    +0.000 OA
BRANCH  21  23
ATOM     23  C   UNL     1      -0.336  11.547  20.023  0.00  0.00    +0.000 C 
BRANCH  23  24
ATOM     24  O   UNL     1      -1.769  11.553  19.892  0.00  0.00    +0.000 OA
BRANCH  24  25
ATOM     25  C   UNL     1      -2.213  11.200  18.632  0.00  0.00    +0.000 A 
ATOM     26  C   UNL     1      -1.529  10.336  17.766  0.00  0.00    +0.000 A 
ATOM     27  C   UNL     1      -2.073   9.996  16.523  0.00  0.00    +0.000 A 
ATOM     28  C   UNL     1      -3.304  10.520  16.140  0.00  0.00    +0.000 A 
ATOM     29 CL   UNL     1      -3.978  10.093  14.615  0.00  0.00    +0.000 Cl
ATOM     30  C   UNL     1      -3.998  11.376  16.992  0.00  0.00    +0.000 A 
ATOM     31  C   UNL     1      -3.450  11.715  18.236  0.00  0.00    +0.000 A 
ENDBRANCH  24  25
ENDBRANCH  23  24
ENDBRANCH  21  23
ENDBRANCH   3  18
BRANCH   1  33
ATOM     32  N   UNL     1       2.909   2.559  20.333  0.00  0.00    +0.000 NA
ATOM     33  C   UNL     1       2.801   3.701  20.083  0.00  0.00    +0.000 C 
ENDBRANCH   1  33
TORSDOF 7
ENDMDL
MODEL 2
REMARK VINA RESULT:      -8.9      0.965      1.568
REMARK  Name = 
REMARK  7 active torsions:
REMARK  status: ('A' for Active; 'I' for Inactive)
REMARK    1  A    between atoms: C_2  and  C_3
REMARK    2  A    between atoms: C_5  and  C_6
REMARK    3  A    between atoms: C_9  and  C_10
REMARK    4  A    between atoms: C_10  and  O_11
REMARK    5  A    between atoms: O_11  and  C_12
REMARK    6  A    between atoms: C_21  and  N_22
REMARK    7  A    between atoms: N_25  and  C_26
REMARK                            x       y       z     vdW  Elec       q    Type
REMARK                         _______ _______ _______ _____ _____    ______ ____
ROOT
ATOM      1  C   UNL     1       2.658   5.274  19.893  0.00  0.00    +0.000 A 
ATOM      2  N   UNL     1       1.877   6.105  20.671  0.00  0.00    +0.000 NA
ATOM      3  C   UNL     1       1.957   7.287  20.077  0.00  0.00    +0.000 A 
ATOM      4  O   UNL     1       2.773   7.270  18.960  0.00  0.00    +0.000 OA
ATOM      5  C   UNL     1       3.210   5.972  18.835  0.00  0.00    +0.000 A 
ENDROOT
BRANCH   5   6
ATOM      6  N   UNL     1       4.002   5.639  17.778  0.00  0.00    +0.000 N 
ATOM      7  C   UNL     1       4.766   6.644  17.005  0.00  0.00    +0.000 C 
ATOM      8  C   UNL     1       6.126   6.065  16.540  0.00  0.00    +0.000 C 
ATOM      9  N   UNL     1       5.973   4.751  15.891  0.00  0.00    +0.000 N 
ATOM     10  C   UNL     1       5.134   3.772  16.605  0.00  0.00    +0.000 C 
ATOM     11  C   UNL     1       3.778   4.392  17.027  0.00  0.00    +0.000 C 
BRANCH   9  12
ATOM     12  C   UNL     1       6.330   4.546  14.573  0.00  0.00    +0.000 A 
ATOM     13  C   UNL     1       7.402   5.246  13.998  0.00  0.00    +0.000 A 
ATOM     14  C   UNL     1       7.780   5.042  12.667  0.00  0.00    +0.000 A 
ATOM     15  C   UNL     1       7.089   4.127  11.879  0.00  0.00    +0.000 A 
ATOM     16  C   UNL     1       6.023   3.420  12.425  0.00  0.00    +0.000 A 
ATOM     17  C   UNL     1       5.650   3.633  13.756  0.00  0.00    +0.000 A 
ENDBRANCH   9  12
ENDBRANCH   5   6
BRANCH   3  18
ATOM     18  C   UNL     1       1.191   8.451  20.496  0.00  0.00    +0.000 A 
ATOM     19  C   UNL     1       0.376   8.545  21.617  0.00  0.00    +0.000 A 
ATOM     20  C   UNL     1      -0.237   9.817  21.606  0.00  0.00    +0.000 A 
ATOM     21  C   UNL     1       0.239  10.483  20.499  0.00  0.00    +0.000 A 
ATOM     22  O   UNL     1       1.108   9.662  19.814  0.00  0.00    +0.000 OA
BRANCH  21  23
ATOM     23  C   UNL     1      -0.122  11.829  19.958  0.00  0.00    +0.000 C 
BRANCH  23  24
ATOM     24  O   UNL     1      -0.639  11.720  18.619  0.00  0.00    +0.000 OA
BRANCH  24  25
ATOM     25  C   UNL     1      -2.013  11.582  18.563  0.00  0.00    +0.000 A 
ATOM     26  C   UNL     1      -2.908  12.245  19.413  0.00  0.00    +0.000 A 
ATOM     27  C   UNL     1      -4.289  12.083  19.259  0.00  0.00    +0.000 A 
ATOM     28  C   UNL     1      -4.780  11.254  18.254  0.00  0.00    +0.000 A 
ATOM     29 CL   UNL     1      -6.480  11.062  18.058  0.00  0.00    +0.000 Cl
ATOM     30  C   UNL     1      -3.903  10.592  17.399  0.00  0.00    +0.000 A 
ATOM     31  C   UNL     1      -2.520  10.756  17.557  0.00  0.00    +0.000 A 
ENDBRANCH  24  25
ENDBRANCH  23  24
ENDBRANCH  21  23
ENDBRANCH   3  18
BRANCH   1  33
ATOM     32  N   UNL     1       2.917   2.733  20.352  0.00  0.00    +0.000 NA
ATOM     33  C   UNL     1       2.822   3.889  20.171  0.00  0.00    +0.000 C 
ENDBRANCH   1  33
TORSDOF 7
ENDMDL
MODEL 3
REMARK VINA RESULT:      -8.9      0.934      1.108
REMARK  Name = 
REMARK  7 active torsions:
REMARK  status: ('A' for Active; 'I' for Inactive)
REMARK    1  A    between atoms: C_2  and  C_3
REMARK    2  A    between atoms: C_5  and  C_6
REMARK    3  A    between atoms: C_9  and  C_10
REMARK    4  A    between atoms: C_10  and  O_11
REMARK    5  A    between atoms: O_11  and  C_12
REMARK    6  A    between atoms: C_21  and  N_22
REMARK    7  A    between atoms: N_25  and  C_26
REMARK                            x       y       z     vdW  Elec       q    Type
REMARK                         _______ _______ _______ _____ _____    ______ ____
ROOT
ATOM      1  C   UNL     1       2.671   5.205  19.948  0.00  0.00    +0.000 A 
ATOM      2  N   UNL     1       1.886   6.027  20.732  0.00  0.00    +0.000 NA
ATOM      3  C   UNL     1       1.952   7.211  20.138  0.00  0.00    +0.000 A 
ATOM      4  O   UNL     1       2.762   7.203  19.017  0.00  0.00    +0.000 OA
ATOM      5  C   UNL     1       3.211   5.909  18.888  0.00  0.00    +0.000 A 
ENDROOT
BRANCH   5   6
ATOM      6  N   UNL     1       4.000   5.585  17.826  0.00  0.00    +0.000 N 
ATOM      7  C   UNL     1       4.771   6.595  17.068  0.00  0.00    +0.000 C 
ATOM      8  C   UNL     1       6.127   6.012  16.594  0.00  0.00    +0.000 C 
ATOM      9  N   UNL     1       5.963   4.708  15.927  0.00  0.00    +0.000 N 
ATOM     10  C   UNL     1       5.117   3.725  16.627  0.00  0.00    +0.000 C 
ATOM     11  C   UNL     1       3.766   4.351  17.058  0.00  0.00    +0.000 C 
BRANCH   9  12
ATOM     12  C   UNL     1       6.320   4.519  14.606  0.00  0.00    +0.000 A 
ATOM     13  C   UNL     1       5.606   3.631  13.786  0.00  0.00    +0.000 A 
ATOM     14  C   UNL     1       5.950   3.435  12.445  0.00  0.00    +0.000 A 
ATOM     15  C   UNL     1       7.024   4.127  11.893  0.00  0.00    +0.000 A 
ATOM     16  C   UNL     1       7.747   5.013  12.684  0.00  0.00    +0.000 A 
ATOM     17  C   UNL     1       7.397   5.200  14.025  0.00  0.00    +0.000 A 
ENDBRANCH   9  12
ENDBRANCH   5   6
BRANCH   3  18
ATOM     18  C   UNL     1       1.177   8.367  20.562  0.00  0.00    +0.000 A 
ATOM     19  C   UNL     1       0.351   8.445  21.676  0.00  0.00    +0.000 A 
ATOM     20  C   UNL     1      -0.268   9.715  21.674  0.00  0.00    +0.000 A 
ATOM     21  C   UNL     1       0.216  10.395  20.579  0.00  0.00    +0.000 A 
ATOM     22  O   UNL     1       1.095   9.586  19.893  0.00  0.00    +0.000 OA
BRANCH  21  23
ATOM     23  C   UNL     1      -0.145  11.746  20.049  0.00  0.00    +0.000 C 
BRANCH  23  24
ATOM     24  O   UNL     1      -0.503  11.669  18.657  0.00  0.00    +0.000 OA
BRANCH  24  25
ATOM     25  C   UNL     1      -1.857  11.500  18.440  0.00  0.00    +0.000 A 
ATOM     26  C   UNL     1      -2.402  10.648  17.469  0.00  0.00    +0.000 A 
ATOM     27  C   UNL     1      -3.787  10.503  17.346  0.00  0.00    +0.000 A 
ATOM     28  C   UNL     1      -4.635  11.210  18.194  0.00  0.00    +0.000 A 
ATOM     29 CL   UNL     1      -6.340  11.023  18.049  0.00  0.00    +0.000 Cl
ATOM     30  C   UNL     1      -4.109  12.056  19.167  0.00  0.00    +0.000 A 
ATOM     31  C   UNL     1      -2.720  12.201  19.286  0.00  0.00    +0.000 A 
ENDBRANCH  24  25
ENDBRANCH  23  24
ENDBRANCH  21  23
ENDBRANCH   3  18
BRANCH   1  33
ATOM     32  N   UNL     1       3.042   2.696  20.496  0.00  0.00    +0.000 NA
ATOM     33  C   UNL     1       2.850   3.821  20.224  0.00  0.00    +0.000 C 
ENDBRANCH   1  33
TORSDOF 7
ENDMDL
MODEL 4
REMARK VINA RESULT:      -8.9      0.194      1.198
REMARK  Name = 
REMARK  7 active torsions:
REMARK  status: ('A' for Active; 'I' for Inactive)
REMARK    1  A    between atoms: C_2  and  C_3
REMARK    2  A    between atoms: C_5  and  C_6
REMARK    3  A    between atoms: C_9  and  C_10
REMARK    4  A    between atoms: C_10  and  O_11
REMARK    5  A    between atoms: O_11  and  C_12
REMARK    6  A    between atoms: C_21  and  N_22
REMARK    7  A    between atoms: N_25  and  C_26
REMARK                            x       y       z     vdW  Elec       q    Type
REMARK                         _______ _______ _______ _____ _____    ______ ____
ROOT
ATOM      1  C   UNL     1       2.599   5.180  19.775  0.00  0.00    +0.000 A 
ATOM      2  N   UNL     1       1.853   6.006  20.591  0.00  0.00    +0.000 NA
ATOM      3  C   UNL     1       1.998   7.213  20.063  0.00  0.00    +0.000 A 
ATOM      4  O   UNL     1       2.825   7.215  18.954  0.00  0.00    +0.000 OA
ATOM      5  C   UNL     1       3.197   5.905  18.761  0.00  0.00    +0.000 A 
ENDROOT
BRANCH   5   6
ATOM      6  N   UNL     1       3.983   5.591  17.694  0.00  0.00    +0.000 N 
ATOM      7  C   UNL     1       4.559   6.617  16.797  0.00  0.00    +0.000 C 
ATOM      8  C   UNL     1       5.967   6.194  16.308  0.00  0.00    +0.000 C 
ATOM      9  N   UNL     1       5.978   4.817  15.783  0.00  0.00    +0.000 N 
ATOM     10  C   UNL     1       5.321   3.800  16.623  0.00  0.00    +0.000 C 
ATOM     11  C   UNL     1       3.909   4.261  17.066  0.00  0.00    +0.000 C 
BRANCH   9  12
ATOM     12  C   UNL     1       6.305   4.543  14.469  0.00  0.00    +0.000 A 
ATOM     13  C   UNL     1       7.431   5.126  13.869  0.00  0.00    +0.000 A 
ATOM     14  C   UNL     1       7.778   4.851  12.542  0.00  0.00    +0.000 A 
ATOM     15  C   UNL     1       7.000   3.982  11.784  0.00  0.00    +0.000 A 
ATOM     16  C   UNL     1       5.878   3.390  12.356  0.00  0.00    +0.000 A 
ATOM     17  C   UNL     1       5.537   3.674  13.682  0.00  0.00    +0.000 A 
ENDBRANCH   9  12
ENDBRANCH   5   6
BRANCH   3  18
ATOM     18  C   UNL     1       1.287   8.390  20.539  0.00  0.00    +0.000 A 
ATOM     19  C   UNL     1       0.773   8.586  21.815  0.00  0.00    +0.000 A 
ATOM     20  C   UNL     1       0.096   9.825  21.827  0.00  0.00    +0.000 A 
ATOM     21  C   UNL     1       0.237  10.372  20.572  0.00  0.00    +0.000 A 
ATOM     22  O   UNL     1       0.959   9.509  19.778  0.00  0.00    +0.000 OA
BRANCH  21  23
ATOM     23  C   UNL     1      -0.333  11.632  20.002  0.00  0.00    +0.000 C 
BRANCH  23  24
ATOM     24  O   UNL     1      -1.772  11.594  20.017  0.00  0.00    +0.000 OA
BRANCH  24  25
ATOM     25  C   UNL     1      -2.332  11.266  18.796  0.00  0.00    +0.000 A 
ATOM     26  C   UNL     1      -3.589  11.706  18.360  0.00  0.00    +0.000 A 
ATOM     27  C   UNL     1      -4.061  11.363  17.089  0.00  0.00    +0.000 A 
ATOM     28  C   UNL     1      -3.278  10.577  16.249  0.00  0.00    +0.000 A 
ATOM     29 CL   UNL     1      -3.856  10.164  14.681  0.00  0.00    +0.000 Cl
ATOM     30  C   UNL     1      -2.024  10.137  16.666  0.00  0.00    +0.000 A 
ATOM     31  C   UNL     1      -1.555  10.482  17.941  0.00  0.00    +0.000 A 
ENDBRANCH  24  25
ENDBRANCH  23  24
ENDBRANCH  21  23
ENDBRANCH   3  18
BRANCH   1  33
ATOM     32  N   UNL     1       2.737   2.625  20.204  0.00  0.00    +0.000 NA
ATOM     33  C   UNL     1       2.690   3.776  19.978  0.00  0.00    +0.000 C 
ENDBRANCH   1  33
TORSDOF 7
ENDMDL
MODEL 5
REMARK VINA RESULT:      -8.7      2.456      3.151
REMARK  Name = 
REMARK  7 active torsions:
REMARK  status: ('A' for Active; 'I' for Inactive)
REMARK    1  A    between atoms: C_2  and  C_3
REMARK    2  A    between atoms: C_5  and  C_6
REMARK    3  A    between atoms: C_9  and  C_10
REMARK    4  A    between atoms: C_10  and  O_11
REMARK    5  A    between atoms: O_11  and  C_12
REMARK    6  A    between atoms: C_21  and  N_22
REMARK    7  A    between atoms: N_25  and  C_26
REMARK                            x       y       z     vdW  Elec       q    Type
REMARK                         _______ _______ _______ _____ _____    ______ ____
ROOT
ATOM      1  C   UNL     1       2.581   5.244  19.921  0.00  0.00    +0.000 A 
ATOM      2  N   UNL     1       1.798   6.068  20.704  0.00  0.00    +0.000 NA
ATOM      3  C   UNL     1       1.887   7.258  20.124  0.00  0.00    +0.000 A 
ATOM      4  O   UNL     1       2.712   7.250  19.014  0.00  0.00    +0.000 OA
ATOM      5  C   UNL     1       3.144   5.952  18.876  0.00  0.00    +0.000 A 
ENDROOT
BRANCH   5   6
ATOM      6  N   UNL     1       3.943   5.629  17.821  0.00  0.00    +0.000 N 
ATOM      7  C   UNL     1       4.692   6.643  17.046  0.00  0.00    +0.000 C 
ATOM      8  C   UNL     1       6.061   6.084  16.585  0.00  0.00    +0.000 C 
ATOM      9  N   UNL     1       5.930   4.766  15.940  0.00  0.00    +0.000 N 
ATOM     10  C   UNL     1       5.105   3.776  16.655  0.00  0.00    +0.000 C 
ATOM     11  C   UNL     1       3.739   4.376  17.073  0.00  0.00    +0.000 C 
BRANCH   9  12
ATOM     12  C   UNL     1       6.292   4.563  14.623  0.00  0.00    +0.000 A 
ATOM     13  C   UNL     1       7.376   5.251  14.057  0.00  0.00    +0.000 A 
ATOM     14  C   UNL     1       7.760   5.049  12.727  0.00  0.00    +0.000 A 
ATOM     15  C   UNL     1       7.061   4.147  11.931  0.00  0.00    +0.000 A 
ATOM     16  C   UNL     1       5.983   3.451  12.467  0.00  0.00    +0.000 A 
ATOM     17  C   UNL     1       5.605   3.663  13.797  0.00  0.00    +0.000 A 
ENDBRANCH   9  12
ENDBRANCH   5   6
BRANCH   3  18
ATOM     18  C   UNL     1       1.123   8.420  20.551  0.00  0.00    +0.000 A 
ATOM     19  C   UNL     1       0.964   9.608  19.850  0.00  0.00    +0.000 A 
ATOM     20  C   UNL     1       0.215  10.494  20.655  0.00  0.00    +0.000 A 
ATOM     21  C   UNL     1      -0.094   9.819  21.815  0.00  0.00    +0.000 A 
ATOM     22  O   UNL     1       0.453   8.556  21.765  0.00  0.00    +0.000 OA
BRANCH  21  23
ATOM     23  C   UNL     1      -0.805  10.291  23.042  0.00  0.00    +0.000 C 
BRANCH  23  24
ATOM     24  O   UNL     1      -0.891  11.728  23.062  0.00  0.00    +0.000 OA
BRANCH  24  25
ATOM     25  C   UNL     1      -2.147  12.214  22.754  0.00  0.00    +0.000 A 
ATOM     26  C   UNL     1      -2.539  12.636  21.476  0.00  0.00    +0.000 A 
ATOM     27  C   UNL     1      -3.847  13.073  21.242  0.00  0.00    +0.000 A 
ATOM     28  C   UNL     1      -4.769  13.091  22.285  0.00  0.00    +0.000 A 
ATOM     29 CL   UNL     1      -6.380  13.620  21.993  0.00  0.00    +0.000 Cl
ATOM     30  C   UNL     1      -4.395  12.670  23.559  0.00  0.00    +0.000 A 
ATOM     31  C   UNL     1      -3.084  12.233  23.791  0.00  0.00    +0.000 A 
ENDBRANCH  24  25
ENDBRANCH  23  24
ENDBRANCH  21  23
ENDBRANCH   3  18
BRANCH   1  33
ATOM     32  N   UNL     1       2.809   2.710  20.432  0.00  0.00    +0.000 NA
ATOM     33  C   UNL     1       2.737   3.855  20.184  0.00  0.00    +0.000 C 
ENDBRANCH   1  33
TORSDOF 7
ENDMDL
MODEL 6
REMARK VINA RESULT:      -8.6      2.449      3.159
REMARK  Name = 
REMARK  7 active torsions:
REMARK  status: ('A' for Active; 'I' for Inactive)
REMARK    1  A    between atoms: C_2  and  C_3
REMARK    2  A    between atoms: C_5  and  C_6
REMARK    3  A    between atoms: C_9  and  C_10
REMARK    4  A    between atoms: C_10  and  O_11
REMARK    5  A    between atoms: O_11  and  C_12
REMARK    6  A    between atoms: C_21  and  N_22
REMARK    7  A    between atoms: N_25  and  C_26
REMARK                            x       y       z     vdW  Elec       q    Type
REMARK                         _______ _______ _______ _____ _____    ______ ____
ROOT
ATOM      1  C   UNL     1       2.587   5.184  19.848  0.00  0.00    +0.000 A 
ATOM      2  N   UNL     1       1.838   6.007  20.665  0.00  0.00    +0.000 NA
ATOM      3  C   UNL     1       1.998   7.219  20.150  0.00  0.00    +0.000 A 
ATOM      4  O   UNL     1       2.836   7.225  19.050  0.00  0.00    +0.000 OA
ATOM      5  C   UNL     1       3.201   5.914  18.847  0.00  0.00    +0.000 A 
ENDROOT
BRANCH   5   6
ATOM      6  N   UNL     1       3.995   5.604  17.786  0.00  0.00    +0.000 N 
ATOM      7  C   UNL     1       4.695   6.633  16.985  0.00  0.00    +0.000 C 
ATOM      8  C   UNL     1       6.077   6.118  16.511  0.00  0.00    +0.000 C 
ATOM      9  N   UNL     1       5.985   4.786  15.888  0.00  0.00    +0.000 N 
ATOM     10  C   UNL     1       5.208   3.777  16.630  0.00  0.00    +0.000 C 
ATOM     11  C   UNL     1       3.827   4.334  17.060  0.00  0.00    +0.000 C 
BRANCH   9  12
ATOM     12  C   UNL     1       6.335   4.575  14.568  0.00  0.00    +0.000 A 
ATOM     13  C   UNL     1       7.440   5.229  14.001  0.00  0.00    +0.000 A 
ATOM     14  C   UNL     1       7.811   5.019  12.669  0.00  0.00    +0.000 A 
ATOM     15  C   UNL     1       7.079   4.144  11.872  0.00  0.00    +0.000 A 
ATOM     16  C   UNL     1       5.980   3.483  12.410  0.00  0.00    +0.000 A 
ATOM     17  C   UNL     1       5.615   3.702  13.742  0.00  0.00    +0.000 A 
ENDBRANCH   9  12
ENDBRANCH   5   6
BRANCH   3  18
ATOM     18  C   UNL     1       1.291   8.397  20.630  0.00  0.00    +0.000 A 
ATOM     19  C   UNL     1       1.205   8.830  21.947  0.00  0.00    +0.000 A 
ATOM     20  C   UNL     1       0.364   9.964  21.980  0.00  0.00    +0.000 A 
ATOM     21  C   UNL     1      -0.019  10.217  20.682  0.00  0.00    +0.000 A 
ATOM     22  O   UNL     1       0.537   9.270  19.851  0.00  0.00    +0.000 OA
BRANCH  21  23
ATOM     23  C   UNL     1      -0.958  11.247  20.140  0.00  0.00    +0.000 C 
BRANCH  23  24
ATOM     24  O   UNL     1      -0.988  12.408  20.990  0.00  0.00    +0.000 OA
BRANCH  24  25
ATOM     25  C   UNL     1      -2.197  12.593  21.635  0.00  0.00    +0.000 A 
ATOM     26  C   UNL     1      -3.376  13.006  21.000  0.00  0.00    +0.000 A 
ATOM     27  C   UNL     1      -4.568  13.125  21.722  0.00  0.00    +0.000 A 
ATOM     28  C   UNL     1      -4.586  12.832  23.082  0.00  0.00    +0.000 A 
ATOM     29 CL   UNL     1      -6.056  12.969  23.967  0.00  0.00    +0.000 Cl
ATOM     30  C   UNL     1      -3.424  12.415  23.726  0.00  0.00    +0.000 A 
ATOM     31  C   UNL     1      -2.230  12.298  23.001  0.00  0.00    +0.000 A 
ENDBRANCH  24  25
ENDBRANCH  23  24
ENDBRANCH  21  23
ENDBRANCH   3  18
BRANCH   1  33
ATOM     32  N   UNL     1       2.787   2.625  20.225  0.00  0.00    +0.000 NA
ATOM     33  C   UNL     1       2.665   3.777  20.039  0.00  0.00    +0.000 C 
ENDBRANCH   1  33
TORSDOF 7
ENDMDL
MODEL 7
REMARK VINA RESULT:      -8.6      2.488      3.037
REMARK  Name = 
REMARK  7 active torsions:
REMARK  status: ('A' for Active; 'I' for Inactive)
REMARK    1  A    between atoms: C_2  and  C_3
REMARK    2  A    between atoms: C_5  and  C_6
REMARK    3  A    between atoms: C_9  and  C_10
REMARK    4  A    between atoms: C_10  and  O_11
REMARK    5  A    between atoms: O_11  and  C_12
REMARK    6  A    between atoms: C_21  and  N_22
REMARK    7  A    between atoms: N_25  and  C_26
REMARK                            x       y       z     vdW  Elec       q    Type
REMARK                         _______ _______ _______ _____ _____    ______ ____
ROOT
ATOM      1  C   UNL     1       2.462   5.292  19.855  0.00  0.00    +0.000 A 
ATOM      2  N   UNL     1       1.717   6.128  20.661  0.00  0.00    +0.000 NA
ATOM      3  C   UNL     1       1.919   7.339  20.160  0.00  0.00    +0.000 A 
ATOM      4  O   UNL     1       2.781   7.332  19.079  0.00  0.00    +0.000 OA
ATOM      5  C   UNL     1       3.117   6.014  18.874  0.00  0.00    +0.000 A 
ENDROOT
BRANCH   5   6
ATOM      6  N   UNL     1       3.927   5.691  17.828  0.00  0.00    +0.000 N 
ATOM      7  C   UNL     1       4.642   6.711  17.028  0.00  0.00    +0.000 C 
ATOM      8  C   UNL     1       6.029   6.188  16.581  0.00  0.00    +0.000 C 
ATOM      9  N   UNL     1       5.943   4.850  15.969  0.00  0.00    +0.000 N 
ATOM     10  C   UNL     1       5.153   3.850  16.709  0.00  0.00    +0.000 C 
ATOM     11  C   UNL     1       3.767   4.415  17.112  0.00  0.00    +0.000 C 
BRANCH   9  12
ATOM     12  C   UNL     1       6.314   4.625  14.657  0.00  0.00    +0.000 A 
ATOM     13  C   UNL     1       5.595   3.733  13.847  0.00  0.00    +0.000 A 
ATOM     14  C   UNL     1       5.954   3.503  12.515  0.00  0.00    +0.000 A 
ATOM     15  C   UNL     1       7.047   4.164  11.963  0.00  0.00    +0.000 A 
ATOM     16  C   UNL     1       7.776   5.054  12.745  0.00  0.00    +0.000 A 
ATOM     17  C   UNL     1       7.411   5.275  14.077  0.00  0.00    +0.000 A 
ENDBRANCH   9  12
ENDBRANCH   5   6
BRANCH   3  18
ATOM     18  C   UNL     1       1.232   8.531  20.634  0.00  0.00    +0.000 A 
ATOM     19  C   UNL     1       1.217   9.014  21.936  0.00  0.00    +0.000 A 
ATOM     20  C   UNL     1       0.371  10.144  21.973  0.00  0.00    +0.000 A 
ATOM     21  C   UNL     1      -0.087  10.345  20.690  0.00  0.00    +0.000 A 
ATOM     22  O   UNL     1       0.428   9.369  19.866  0.00  0.00    +0.000 OA
BRANCH  21  23
ATOM     23  C   UNL     1      -1.063  11.348  20.163  0.00  0.00    +0.000 C 
BRANCH  23  24
ATOM     24  O   UNL     1      -1.142  12.490  21.035  0.00  0.00    +0.000 OA
BRANCH  24  25
ATOM     25  C   UNL     1      -2.314  12.552  21.766  0.00  0.00    +0.000 A 
ATOM     26  C   UNL     1      -2.389  12.378  23.155  0.00  0.00    +0.000 A 
ATOM     27  C   UNL     1      -3.612  12.501  23.822  0.00  0.00    +0.000 A 
ATOM     28  C   UNL     1      -4.766  12.796  23.103  0.00  0.00    +0.000 A 
ATOM     29 CL   UNL     1      -6.269  12.957  23.926  0.00  0.00    +0.000 Cl
ATOM     30  C   UNL     1      -4.706  12.976  21.723  0.00  0.00    +0.000 A 
ATOM     31  C   UNL     1      -3.480  12.851  21.057  0.00  0.00    +0.000 A 
ENDBRANCH  24  25
ENDBRANCH  23  24
ENDBRANCH  21  23
ENDBRANCH   3  18
BRANCH   1  33
ATOM     32  N   UNL     1       2.597   2.721  20.180  0.00  0.00    +0.000 NA
ATOM     33  C   UNL     1       2.501   3.882  20.036  0.00  0.00    +0.000 C 
ENDBRANCH   1  33
TORSDOF 7
ENDMDL
MODEL 8
REMARK VINA RESULT:      -8.6      2.665      3.254
REMARK  Name = 
REMARK  7 active torsions:
REMARK  status: ('A' for Active; 'I' for Inactive)
REMARK    1  A    between atoms: C_2  and  C_3
REMARK    2  A    between atoms: C_5  and  C_6
REMARK    3  A    between atoms: C_9  and  C_10
REMARK    4  A    between atoms: C_10  and  O_11
REMARK    5  A    between atoms: O_11  and  C_12
REMARK    6  A    between atoms: C_21  and  N_22
REMARK    7  A    between atoms: N_25  and  C_26
REMARK                            x       y       z     vdW  Elec       q    Type
REMARK                         _______ _______ _______ _____ _____    ______ ____
ROOT
ATOM      1  C   UNL     1       2.961   5.101  19.861  0.00  0.00    +0.000 A 
ATOM      2  N   UNL     1       2.140   5.886  20.645  0.00  0.00    +0.000 NA
ATOM      3  C   UNL     1       2.124   7.063  20.033  0.00  0.00    +0.000 A 
ATOM      4  O   UNL     1       2.917   7.086  18.900  0.00  0.00    +0.000 OA
ATOM      5  C   UNL     1       3.441   5.820  18.782  0.00  0.00    +0.000 A 
ENDROOT
BRANCH   5   6
ATOM      6  N   UNL     1       4.233   5.528  17.713  0.00  0.00    +0.000 N 
ATOM      7  C   UNL     1       5.029   6.555  17.006  0.00  0.00    +0.000 C 
ATOM      8  C   UNL     1       6.377   5.968  16.517  0.00  0.00    +0.000 C 
ATOM      9  N   UNL     1       6.195   4.698  15.792  0.00  0.00    +0.000 N 
ATOM     10  C   UNL     1       5.324   3.702  16.441  0.00  0.00    +0.000 C 
ATOM     11  C   UNL     1       3.982   4.333  16.890  0.00  0.00    +0.000 C 
BRANCH   9  12
ATOM     12  C   UNL     1       6.558   4.560  14.466  0.00  0.00    +0.000 A 
ATOM     13  C   UNL     1       5.925   3.620  13.639  0.00  0.00    +0.000 A 
ATOM     14  C   UNL     1       6.277   3.474  12.293  0.00  0.00    +0.000 A 
ATOM     15  C   UNL     1       7.277   4.272  11.744  0.00  0.00    +0.000 A 
ATOM     16  C   UNL     1       7.919   5.212  12.543  0.00  0.00    +0.000 A 
ATOM     17  C   UNL     1       7.563   5.347  13.888  0.00  0.00    +0.000 A 
ENDBRANCH   9  12
ENDBRANCH   5   6
BRANCH   3  18
ATOM     18  C   UNL     1       1.287   8.176  20.453  0.00  0.00    +0.000 A 
ATOM     19  C   UNL     1       1.047   9.345  19.741  0.00  0.00    +0.000 A 
ATOM     20  C   UNL     1       0.245  10.188  20.541  0.00  0.00    +0.000 A 
ATOM     21  C   UNL     1      -0.014   9.505  21.708  0.00  0.00    +0.000 A 
ATOM     22  O   UNL     1       0.615   8.280  21.668  0.00  0.00    +0.000 OA
BRANCH  21  23
ATOM     23  C   UNL     1      -0.750   9.942  22.935  0.00  0.00    +0.000 C 
BRANCH  23  24
ATOM     24  O   UNL     1      -0.431  11.306  23.263  0.00  0.00    +0.000 OA
BRANCH  24  25
ATOM     25  C   UNL     1      -1.448  12.198  22.981  0.00  0.00    +0.000 A 
ATOM     26  C   UNL     1      -2.787  12.012  23.353  0.00  0.00    +0.000 A 
ATOM     27  C   UNL     1      -3.747  12.988  23.066  0.00  0.00    +0.000 A 
ATOM     28  C   UNL     1      -3.373  14.154  22.404  0.00  0.00    +0.000 A 
ATOM     29 CL   UNL     1      -4.553  15.359  22.060  0.00  0.00    +0.000 Cl
ATOM     30  C   UNL     1      -2.045  14.355  22.033  0.00  0.00    +0.000 A 
ATOM     31  C   UNL     1      -1.086  13.375  22.321  0.00  0.00    +0.000 A 
ENDBRANCH  24  25
ENDBRANCH  23  24
ENDBRANCH  21  23
ENDBRANCH   3  18
BRANCH   1  33
ATOM     32  N   UNL     1       3.456   2.598  20.333  0.00  0.00    +0.000 NA
ATOM     33  C   UNL     1       3.228   3.735  20.155  0.00  0.00    +0.000 C 
ENDBRANCH   1  33
TORSDOF 7
ENDMDL
MODEL 9
REMARK VINA RESULT:      -8.6      2.476      3.233
REMARK  Name = 
REMARK  7 active torsions:
REMARK  status: ('A' for Active; 'I' for Inactive)
REMARK    1  A    between atoms: C_2  and  C_3
REMARK    2  A    between atoms: C_5  and  C_6
REMARK    3  A    between atoms: C_9  and  C_10
REMARK    4  A    between atoms: C_10  and  O_11
REMARK    5  A    between atoms: O_11  and  C_12
REMARK    6  A    between atoms: C_21  and  N_22
REMARK    7  A    between atoms: N_25  and  C_26
REMARK                            x       y       z     vdW  Elec       q    Type
REMARK                         _______ _______ _______ _____ _____    ______ ____
ROOT
ATOM      1  C   UNL     1       2.773   5.208  19.901  0.00  0.00    +0.000 A 
ATOM      2  N   UNL     1       2.008   6.035  20.698  0.00  0.00    +0.000 NA
ATOM      3  C   UNL     1       2.099   7.226  20.124  0.00  0.00    +0.000 A 
ATOM      4  O   UNL     1       2.909   7.217  19.002  0.00  0.00    +0.000 OA
ATOM      5  C   UNL     1       3.328   5.916  18.852  0.00  0.00    +0.000 A 
ENDROOT
BRANCH   5   6
ATOM      6  N   UNL     1       4.110   5.592  17.785  0.00  0.00    +0.000 N 
ATOM      7  C   UNL     1       4.886   6.599  17.028  0.00  0.00    +0.000 C 
ATOM      8  C   UNL     1       6.234   6.007  16.545  0.00  0.00    +0.000 C 
ATOM      9  N   UNL     1       6.056   4.709  15.871  0.00  0.00    +0.000 N 
ATOM     10  C   UNL     1       5.205   3.729  16.569  0.00  0.00    +0.000 C 
ATOM     11  C   UNL     1       3.861   4.364  17.010  0.00  0.00    +0.000 C 
BRANCH   9  12
ATOM     12  C   UNL     1       6.404   4.524  14.547  0.00  0.00    +0.000 A 
ATOM     13  C   UNL     1       7.457   5.250  13.969  0.00  0.00    +0.000 A 
ATOM     14  C   UNL     1       7.825   5.066  12.632  0.00  0.00    +0.000 A 
ATOM     15  C   UNL     1       7.143   4.147  11.842  0.00  0.00    +0.000 A 
ATOM     16  C   UNL     1       6.096   3.414  12.391  0.00  0.00    +0.000 A 
ATOM     17  C   UNL     1       5.733   3.607  13.727  0.00  0.00    +0.000 A 
ENDBRANCH   9  12
ENDBRANCH   5   6
BRANCH   3  18
ATOM     18  C   UNL     1       1.351   8.393  20.567  0.00  0.00    +0.000 A 
ATOM     19  C   UNL     1       0.948   8.671  21.867  0.00  0.00    +0.000 A 
ATOM     20  C   UNL     1       0.183   9.859  21.842  0.00  0.00    +0.000 A 
ATOM     21  C   UNL     1       0.162  10.295  20.537  0.00  0.00    +0.000 A 
ATOM     22  O   UNL     1       0.868   9.412  19.750  0.00  0.00    +0.000 OA
BRANCH  21  23
ATOM     23  C   UNL     1      -0.552  11.456  19.922  0.00  0.00    +0.000 C 
BRANCH  23  24
ATOM     24  O   UNL     1      -0.002  11.769  18.629  0.00  0.00    +0.000 OA
BRANCH  24  25
ATOM     25  C   UNL     1       0.870  12.841  18.641  0.00  0.00    +0.000 A 
ATOM     26  C   UNL     1       2.239  12.749  18.356  0.00  0.00    +0.000 A 
ATOM     27  C   UNL     1       3.042  13.895  18.347  0.00  0.00    +0.000 A 
ATOM     28  C   UNL     1       2.479  15.137  18.624  0.00  0.00    +0.000 A 
ATOM     29 CL   UNL     1       3.466  16.547  18.602  0.00  0.00    +0.000 Cl
ATOM     30  C   UNL     1       1.119  15.245  18.903  0.00  0.00    +0.000 A 
ATOM     31  C   UNL     1       0.317  14.095  18.913  0.00  0.00    +0.000 A 
ENDBRANCH  24  25
ENDBRANCH  23  24
ENDBRANCH  21  23
ENDBRANCH   3  18
BRANCH   1  33
ATOM     32  N   UNL     1       3.029   2.657  20.302  0.00  0.00    +0.000 NA
ATOM     33  C   UNL     1       2.921   3.816  20.155  0.00  0.00    +0.000 C 
ENDBRANCH   1  33
TORSDOF 7
ENDMDL
