MODEL 1
REMARK VINA RESULT:      -8.6      0.000      0.000
REMARK  Name = 
REMARK  8 active torsions:
REMARK  status: ('A' for Active; 'I' for Inactive)
REMARK    1  A    between atoms: C_1  and  O_2
REMARK    2  A    between atoms: O_2  and  C_3
REMARK    3  A    between atoms: C_11  and  C_12
REMARK    4  A    between atoms: C_12  and  C_13
REMARK    5  A    between atoms: N_16  and  C_17
REMARK    6  A    between atoms: C_17  and  C_18
REMARK    7  A    between atoms: C_23  and  C_24
REMARK    8  A    between atoms: C_26  and  C_27
REMARK                            x       y       z     vdW  Elec       q    Type
REMARK                         _______ _______ _______ _____ _____    ______ ____
ROOT
ATOM      1  C   UNL     1       3.843   6.078  17.782  0.00  0.00    +0.000 A 
ATOM      2  C   UNL     1       4.457   6.992  16.915  0.00  0.00    +0.000 A 
ATOM      3  C   UNL     1       5.657   6.675  16.293  0.00  0.00    +0.000 A 
ATOM      4  N   UNL     1       6.235   5.474  16.501  0.00  0.00    +0.000 N 
ATOM      5  C   UNL     1       5.722   4.614  17.410  0.00  0.00    +0.000 A 
ATOM      6  C   UNL     1       4.524   4.887  18.082  0.00  0.00    +0.000 A 
ENDROOT
BRANCH   6   7
ATOM      7  C   UNL     1       4.068   3.813  19.045  0.00  0.00    +0.000 C 
ATOM      8  F   UNL     1       3.059   3.026  18.611  0.00  0.00    +0.000 F 
ATOM      9  F   UNL     1       5.097   2.991  19.377  0.00  0.00    +0.000 F 
ATOM     10  F   UNL     1       3.645   4.366  20.215  0.00  0.00    +0.000 F 
ENDBRANCH   6   7
BRANCH   1  11
ATOM     11  C   UNL     1       2.443   6.401  18.266  0.00  0.00    +0.000 C 
BRANCH  11  20
ATOM     12  C   UNL     1       0.053  11.267  21.992  0.00  0.00    +0.000 A 
ATOM     13  C   UNL     1       0.112  10.086  22.731  0.00  0.00    +0.000 A 
ATOM     14  C   UNL     1       0.555   8.907  22.129  0.00  0.00    +0.000 A 
ATOM     15  C   UNL     1       0.944   8.909  20.785  0.00  0.00    +0.000 A 
ATOM     16  C   UNL     1       0.857  10.077  20.018  0.00  0.00    +0.000 A 
ATOM     17  C   UNL     1       0.402  11.253  20.636  0.00  0.00    +0.000 A 
ATOM     18  C   UNL     1       1.283  10.121  18.576  0.00  0.00    +0.000 C 
ATOM     19  C   UNL     1       1.429   8.733  17.953  0.00  0.00    +0.000 C 
ATOM     20  C   UNL     1       2.229   7.800  18.866  0.00  0.00    +0.000 C 
ATOM     21  C   UNL     1       1.463   7.660  20.178  0.00  0.00    +0.000 C 
ATOM     22  O   UNL     1       1.298   6.583  20.742  0.00  0.00    +0.000 OA
BRANCH  12  24
ATOM     23  C   UNL     1      -0.137  13.588  21.604  0.00  0.00    +0.000 C 
ATOM     24  O   UNL     1      -0.356  12.479  22.470  0.00  0.00    +0.000 OA
ENDBRANCH  12  24
ENDBRANCH  11  20
ENDBRANCH   1  11
BRANCH   4  25
ATOM     25  C   UNL     1       7.388   5.064  15.652  0.00  0.00    +0.000 C 
BRANCH  25  26
ATOM     26  C   UNL     1       6.929   4.601  14.294  0.00  0.00    +0.000 A 
ATOM     27  C   UNL     1       5.772   3.802  14.211  0.00  0.00    +0.000 A 
ATOM     28  C   UNL     1       5.335   3.295  12.990  0.00  0.00    +0.000 A 
ATOM     29  C   UNL     1       6.038   3.585  11.831  0.00  0.00    +0.000 A 
ATOM     30  C   UNL     1       7.160   4.413  11.885  0.00  0.00    +0.000 A 
ATOM     31  C   UNL     1       7.611   4.942  13.105  0.00  0.00    +0.000 A 
ATOM     32  C   UNL     1       8.798   5.870  13.080  0.00  0.00    +0.000 C 
ENDBRANCH  25  26
ENDBRANCH   4  25
TORSDOF 6
ENDMDL
MODEL 2
REMARK VINA RESULT:      -8.5      0.693      1.030
REMARK  Name = 
REMARK  8 active torsions:
REMARK  status: ('A' for Active; 'I' for Inactive)
REMARK    1  A    between atoms: C_1  and  O_2
REMARK    2  A    between atoms: O_2  and  C_3
REMARK    3  A    between atoms: C_11  and  C_12
REMARK    4  A    between atoms: C_12  and  C_13
REMARK    5  A    between atoms: N_16  and  C_17
REMARK    6  A    between atoms: C_17  and  C_18
REMARK    7  A    between atoms: C_23  and  C_24
REMARK    8  A    between atoms: C_26  and  C_27
REMARK                            x       y       z     vdW  Elec       q    Type
REMARK                         _______ _______ _______ _____ _____    ______ ____
ROOT
ATOM      1  C   UNL     1       3.781   5.830  17.730  0.00  0.00    +0.000 A 
ATOM      2  C   UNL     1       4.655   6.873  17.397  0.00  0.00    +0.000 A 
ATOM      3  C   UNL     1       5.854   6.608  16.747  0.00  0.00    +0.000 A 
ATOM      4  N   UNL     1       6.180   5.342  16.413  0.00  0.00    +0.000 N 
ATOM      5  C   UNL     1       5.408   4.306  16.812  0.00  0.00    +0.000 A 
ATOM      6  C   UNL     1       4.197   4.511  17.486  0.00  0.00    +0.000 A 
ENDROOT
BRANCH   6   7
ATOM      7  C   UNL     1       3.437   3.253  17.839  0.00  0.00    +0.000 C 
ATOM      8  F   UNL     1       3.119   3.105  19.143  0.00  0.00    +0.000 F 
ATOM      9  F   UNL     1       2.275   3.174  17.137  0.00  0.00    +0.000 F 
ATOM     10  F   UNL     1       4.151   2.147  17.492  0.00  0.00    +0.000 F 
ENDBRANCH   6   7
BRANCH   1  11
ATOM     11  C   UNL     1       2.407   6.205  18.251  0.00  0.00    +0.000 C 
BRANCH  11  20
ATOM     12  C   UNL     1       0.236  11.301  21.799  0.00  0.00    +0.000 A 
ATOM     13  C   UNL     1       0.291  10.156  22.592  0.00  0.00    +0.000 A 
ATOM     14  C   UNL     1       0.689   8.939  22.037  0.00  0.00    +0.000 A 
ATOM     15  C   UNL     1       1.039   8.867  20.685  0.00  0.00    +0.000 A 
ATOM     16  C   UNL     1       0.955   9.997  19.863  0.00  0.00    +0.000 A 
ATOM     17  C   UNL     1       0.544  11.212  20.435  0.00  0.00    +0.000 A 
ATOM     18  C   UNL     1       1.339   9.961  18.409  0.00  0.00    +0.000 C 
ATOM     19  C   UNL     1       1.436   8.541  17.852  0.00  0.00    +0.000 C 
ATOM     20  C   UNL     1       2.242   7.636  18.787  0.00  0.00    +0.000 C 
ATOM     21  C   UNL     1       1.512   7.577  20.126  0.00  0.00    +0.000 C 
ATOM     22  O   UNL     1       1.340   6.534  20.746  0.00  0.00    +0.000 OA
BRANCH  12  24
ATOM     23  C   UNL     1      -1.528  12.732  22.443  0.00  0.00    +0.000 C 
ATOM     24  O   UNL     1      -0.132  12.544  22.228  0.00  0.00    +0.000 OA
ENDBRANCH  12  24
ENDBRANCH  11  20
ENDBRANCH   1  11
BRANCH   4  25
ATOM     25  C   UNL     1       7.347   5.103  15.517  0.00  0.00    +0.000 C 
BRANCH  25  26
ATOM     26  C   UNL     1       6.904   4.626  14.158  0.00  0.00    +0.000 A 
ATOM     27  C   UNL     1       5.742   3.834  14.070  0.00  0.00    +0.000 A 
ATOM     28  C   UNL     1       5.320   3.314  12.850  0.00  0.00    +0.000 A 
ATOM     29  C   UNL     1       6.041   3.585  11.697  0.00  0.00    +0.000 A 
ATOM     30  C   UNL     1       7.168   4.405  11.756  0.00  0.00    +0.000 A 
ATOM     31  C   UNL     1       7.605   4.948  12.975  0.00  0.00    +0.000 A 
ATOM     32  C   UNL     1       8.798   5.867  12.955  0.00  0.00    +0.000 C 
ENDBRANCH  25  26
ENDBRANCH   4  25
TORSDOF 6
ENDMDL
MODEL 3
REMARK VINA RESULT:      -8.5      4.413      6.561
REMARK  Name = 
REMARK  8 active torsions:
REMARK  status: ('A' for Active; 'I' for Inactive)
REMARK    1  A    between atoms: C_1  and  O_2
REMARK    2  A    between atoms: O_2  and  C_3
REMARK    3  A    between atoms: C_11  and  C_12
REMARK    4  A    between atoms: C_12  and  C_13
REMARK    5  A    between atoms: N_16  and  C_17
REMARK    6  A    between atoms: C_17  and  C_18
REMARK    7  A    between atoms: C_23  and  C_24
REMARK    8  A    between atoms: C_26  and  C_27
REMARK                            x       y       z     vdW  Elec       q    Type
REMARK                         _______ _______ _______ _____ _____    ______ ____
ROOT
ATOM      1  C   UNL     1       1.378   9.445  18.778  0.00  0.00    +0.000 A 
ATOM      2  C   UNL     1       2.139   9.034  17.675  0.00  0.00    +0.000 A 
ATOM      3  C   UNL     1       2.867   7.852  17.723  0.00  0.00    +0.000 A 
ATOM      4  N   UNL     1       2.833   7.077  18.827  0.00  0.00    +0.000 N 
ATOM      5  C   UNL     1       2.193   7.497  19.942  0.00  0.00    +0.000 A 
ATOM      6  C   UNL     1       1.456   8.689  19.958  0.00  0.00    +0.000 A 
ENDROOT
BRANCH   6   7
ATOM      7  C   UNL     1       0.775   9.005  21.271  0.00  0.00    +0.000 C 
ATOM      8  F   UNL     1       1.005  10.239  21.769  0.00  0.00    +0.000 F 
ATOM      9  F   UNL     1      -0.573   8.866  21.164  0.00  0.00    +0.000 F 
ATOM     10  F   UNL     1       1.160   8.125  22.236  0.00  0.00    +0.000 F 
ENDBRANCH   6   7
BRANCH   1  11
ATOM     11  C   UNL     1       0.452  10.630  18.588  0.00  0.00    +0.000 C 
BRANCH  11  20
ATOM     12  C   UNL     1       1.238  17.144  19.077  0.00  0.00    +0.000 A 
ATOM     13  C   UNL     1      -0.110  16.838  18.892  0.00  0.00    +0.000 A 
ATOM     14  C   UNL     1      -0.509  15.511  18.725  0.00  0.00    +0.000 A 
ATOM     15  C   UNL     1       0.441  14.485  18.746  0.00  0.00    +0.000 A 
ATOM     16  C   UNL     1       1.803  14.775  18.893  0.00  0.00    +0.000 A 
ATOM     17  C   UNL     1       2.190  16.116  19.052  0.00  0.00    +0.000 A 
ATOM     18  C   UNL     1       2.851  13.697  18.939  0.00  0.00    +0.000 C 
ATOM     19  C   UNL     1       2.345  12.349  18.424  0.00  0.00    +0.000 C 
ATOM     20  C   UNL     1       0.987  11.999  19.039  0.00  0.00    +0.000 C 
ATOM     21  C   UNL     1      -0.008  13.077  18.622  0.00  0.00    +0.000 C 
ATOM     22  O   UNL     1      -1.142  12.823  18.229  0.00  0.00    +0.000 OA
BRANCH  12  24
ATOM     23  C   UNL     1       2.383  18.631  20.508  0.00  0.00    +0.000 C 
ATOM     24  O   UNL     1       1.748  18.398  19.255  0.00  0.00    +0.000 OA
ENDBRANCH  12  24
ENDBRANCH  11  20
ENDBRANCH   1  11
BRANCH   4  25
ATOM     25  C   UNL     1       3.425   5.711  18.776  0.00  0.00    +0.000 C 
BRANCH  25  26
ATOM     26  C   UNL     1       2.566   4.715  19.510  0.00  0.00    +0.000 A 
ATOM     27  C   UNL     1       2.768   4.542  20.894  0.00  0.00    +0.000 A 
ATOM     28  C   UNL     1       2.047   3.593  21.612  0.00  0.00    +0.000 A 
ATOM     29  C   UNL     1       1.103   2.810  20.967  0.00  0.00    +0.000 A 
ATOM     30  C   UNL     1       0.854   2.996  19.606  0.00  0.00    +0.000 A 
ATOM     31  C   UNL     1       1.564   3.955  18.866  0.00  0.00    +0.000 A 
ATOM     32  C   UNL     1       1.205   4.138  17.414  0.00  0.00    +0.000 C 
ENDBRANCH  25  26
ENDBRANCH   4  25
TORSDOF 6
ENDMDL
MODEL 4
REMARK VINA RESULT:      -8.4      3.873      5.680
REMARK  Name = 
REMARK  8 active torsions:
REMARK  status: ('A' for Active; 'I' for Inactive)
REMARK    1  A    between atoms: C_1  and  O_2
REMARK    2  A    between atoms: O_2  and  C_3
REMARK    3  A    between atoms: C_11  and  C_12
REMARK    4  A    between atoms: C_12  and  C_13
REMARK    5  A    between atoms: N_16  and  C_17
REMARK    6  A    between atoms: C_17  and  C_18
REMARK    7  A    between atoms: C_23  and  C_24
REMARK    8  A    between atoms: C_26  and  C_27
REMARK                            x       y       z     vdW  Elec       q    Type
REMARK                         _______ _______ _______ _____ _____    ______ ____
ROOT
ATOM      1  C   UNL     1       1.531   9.896  19.117  0.00  0.00    +0.000 A 
ATOM      2  C   UNL     1       2.257   9.794  17.922  0.00  0.00    +0.000 A 
ATOM      3  C   UNL     1       2.827   8.585  17.545  0.00  0.00    +0.000 A 
ATOM      4  N   UNL     1       2.671   7.489  18.318  0.00  0.00    +0.000 N 
ATOM      5  C   UNL     1       2.067   7.580  19.525  0.00  0.00    +0.000 A 
ATOM      6  C   UNL     1       1.488   8.778  19.966  0.00  0.00    +0.000 A 
ENDROOT
BRANCH   6   7
ATOM      7  C   UNL     1       0.826   8.709  21.323  0.00  0.00    +0.000 C 
ATOM      8  F   UNL     1      -0.488   9.022  21.352  0.00  0.00    +0.000 F 
ATOM      9  F   UNL     1       0.949   7.467  21.862  0.00  0.00    +0.000 F 
ATOM     10  F   UNL     1       1.438   9.552  22.199  0.00  0.00    +0.000 F 
ENDBRANCH   6   7
BRANCH   1  11
ATOM     11  C   UNL     1       0.768  11.182  19.367  0.00  0.00    +0.000 C 
BRANCH  11  20
ATOM     12  C   UNL     1      -5.671  11.903  18.230  0.00  0.00    +0.000 A 
ATOM     13  C   UNL     1      -5.305  12.616  19.371  0.00  0.00    +0.000 A 
ATOM     14  C   UNL     1      -3.986  12.577  19.827  0.00  0.00    +0.000 A 
ATOM     15  C   UNL     1      -3.028  11.827  19.137  0.00  0.00    +0.000 A 
ATOM     16  C   UNL     1      -3.385  11.074  18.011  0.00  0.00    +0.000 A 
ATOM     17  C   UNL     1      -4.717  11.117  17.570  0.00  0.00    +0.000 A 
ATOM     18  C   UNL     1      -2.378  10.270  17.235  0.00  0.00    +0.000 C 
ATOM     19  C   UNL     1      -1.075  10.042  18.001  0.00  0.00    +0.000 C 
ATOM     20  C   UNL     1      -0.565  11.347  18.621  0.00  0.00    +0.000 C 
ATOM     21  C   UNL     1      -1.621  11.841  19.605  0.00  0.00    +0.000 C 
ATOM     22  O   UNL     1      -1.345  12.266  20.721  0.00  0.00    +0.000 OA
BRANCH  12  24
ATOM     23  C   UNL     1      -7.417  13.110  17.197  0.00  0.00    +0.000 C 
ATOM     24  O   UNL     1      -6.924  11.867  17.687  0.00  0.00    +0.000 OA
ENDBRANCH  12  24
ENDBRANCH  11  20
ENDBRANCH   1  11
BRANCH   4  25
ATOM     25  C   UNL     1       3.085   6.160  17.789  0.00  0.00    +0.000 C 
BRANCH  25  26
ATOM     26  C   UNL     1       4.570   5.952  17.934  0.00  0.00    +0.000 A 
ATOM     27  C   UNL     1       5.066   5.483  19.167  0.00  0.00    +0.000 A 
ATOM     28  C   UNL     1       6.433   5.331  19.380  0.00  0.00    +0.000 A 
ATOM     29  C   UNL     1       7.327   5.630  18.364  0.00  0.00    +0.000 A 
ATOM     30  C   UNL     1       6.854   6.051  17.120  0.00  0.00    +0.000 A 
ATOM     31  C   UNL     1       5.479   6.202  16.882  0.00  0.00    +0.000 A 
ATOM     32  C   UNL     1       5.038   6.609  15.500  0.00  0.00    +0.000 C 
ENDBRANCH  25  26
ENDBRANCH   4  25
TORSDOF 6
ENDMDL
MODEL 5
REMARK VINA RESULT:      -8.4      4.308      6.357
REMARK  Name = 
REMARK  8 active torsions:
REMARK  status: ('A' for Active; 'I' for Inactive)
REMARK    1  A    between atoms: C_1  and  O_2
REMARK    2  A    between atoms: O_2  and  C_3
REMARK    3  A    between atoms: C_11  and  C_12
REMARK    4  A    between atoms: C_12  and  C_13
REMARK    5  A    between atoms: N_16  and  C_17
REMARK    6  A    between atoms: C_17  and  C_18
REMARK    7  A    between atoms: C_23  and  C_24
REMARK    8  A    between atoms: C_26  and  C_27
REMARK                            x       y       z     vdW  Elec       q    Type
REMARK                         _______ _______ _______ _____ _____    ______ ____
ROOT
ATOM      1  C   UNL     1       1.118   9.655  19.222  0.00  0.00    +0.000 A 
ATOM      2  C   UNL     1       1.717   8.865  18.231  0.00  0.00    +0.000 A 
ATOM      3  C   UNL     1       2.198   7.599  18.535  0.00  0.00    +0.000 A 
ATOM      4  N   UNL     1       2.078   7.108  19.787  0.00  0.00    +0.000 N 
ATOM      5  C   UNL     1       1.601   7.885  20.786  0.00  0.00    +0.000 A 
ATOM      6  C   UNL     1       1.117   9.177  20.542  0.00  0.00    +0.000 A 
ENDROOT
BRANCH   6   7
ATOM      7  C   UNL     1       0.591   9.906  21.758  0.00  0.00    +0.000 C 
ATOM      8  F   UNL     1       0.874  11.226  21.819  0.00  0.00    +0.000 F 
ATOM      9  F   UNL     1      -0.760   9.787  21.849  0.00  0.00    +0.000 F 
ATOM     10  F   UNL     1       1.087   9.356  22.900  0.00  0.00    +0.000 F 
ENDBRANCH   6   7
BRANCH   1  11
ATOM     11  C   UNL     1       0.435  10.935  18.781  0.00  0.00    +0.000 C 
BRANCH  11  20
ATOM     12  C   UNL     1      -6.056  11.999  18.706  0.00  0.00    +0.000 A 
ATOM     13  C   UNL     1      -5.691  11.198  17.625  0.00  0.00    +0.000 A 
ATOM     14  C   UNL     1      -4.350  10.873  17.416  0.00  0.00    +0.000 A 
ATOM     15  C   UNL     1      -3.370  11.345  18.296  0.00  0.00    +0.000 A 
ATOM     16  C   UNL     1      -3.712  12.181  19.366  0.00  0.00    +0.000 A 
ATOM     17  C   UNL     1      -5.065  12.506  19.556  0.00  0.00    +0.000 A 
ATOM     18  C   UNL     1      -2.688  12.693  20.341  0.00  0.00    +0.000 C 
ATOM     19  C   UNL     1      -1.253  12.549  19.832  0.00  0.00    +0.000 C 
ATOM     20  C   UNL     1      -1.007  11.147  19.267  0.00  0.00    +0.000 C 
ATOM     21  C   UNL     1      -1.957  10.944  18.091  0.00  0.00    +0.000 C 
ATOM     22  O   UNL     1      -1.604  10.445  17.027  0.00  0.00    +0.000 OA
BRANCH  12  24
ATOM     23  C   UNL     1      -7.885  13.399  18.188  0.00  0.00    +0.000 C 
ATOM     24  O   UNL     1      -7.331  12.380  19.014  0.00  0.00    +0.000 OA
ENDBRANCH  12  24
ENDBRANCH  11  20
ENDBRANCH   1  11
BRANCH   4  25
ATOM     25  C   UNL     1       2.384   5.672  20.039  0.00  0.00    +0.000 C 
BRANCH  25  26
ATOM     26  C   UNL     1       3.376   5.141  19.036  0.00  0.00    +0.000 A 
ATOM     27  C   UNL     1       4.747   5.372  19.261  0.00  0.00    +0.000 A 
ATOM     28  C   UNL     1       5.705   4.959  18.338  0.00  0.00    +0.000 A 
ATOM     29  C   UNL     1       5.312   4.298  17.184  0.00  0.00    +0.000 A 
ATOM     30  C   UNL     1       3.963   4.018  16.966  0.00  0.00    +0.000 A 
ATOM     31  C   UNL     1       2.982   4.418  17.888  0.00  0.00    +0.000 A 
ATOM     32  C   UNL     1       1.551   4.036  17.613  0.00  0.00    +0.000 C 
ENDBRANCH  25  26
ENDBRANCH   4  25
TORSDOF 6
ENDMDL
MODEL 6
REMARK VINA RESULT:      -8.3      3.940      6.133
REMARK  Name = 
REMARK  8 active torsions:
REMARK  status: ('A' for Active; 'I' for Inactive)
REMARK    1  A    between atoms: C_1  and  O_2
REMARK    2  A    between atoms: O_2  and  C_3
REMARK    3  A    between atoms: C_11  and  C_12
REMARK    4  A    between atoms: C_12  and  C_13
REMARK    5  A    between atoms: N_16  and  C_17
REMARK    6  A    between atoms: C_17  and  C_18
REMARK    7  A    between atoms: C_23  and  C_24
REMARK    8  A    between atoms: C_26  and  C_27
REMARK                            x       y       z     vdW  Elec       q    Type
REMARK                         _______ _______ _______ _____ _____    ______ ____
ROOT
ATOM      1  C   UNL     1       1.228   9.765  19.375  0.00  0.00    +0.000 A 
ATOM      2  C   UNL     1       1.849   9.958  18.134  0.00  0.00    +0.000 A 
ATOM      3  C   UNL     1       2.571   8.931  17.540  0.00  0.00    +0.000 A 
ATOM      4  N   UNL     1       2.666   7.728  18.146  0.00  0.00    +0.000 N 
ATOM      5  C   UNL     1       2.167   7.545  19.390  0.00  0.00    +0.000 A 
ATOM      6  C   UNL     1       1.445   8.550  20.045  0.00  0.00    +0.000 A 
ENDROOT
BRANCH   6   7
ATOM      7  C   UNL     1       0.928   8.179  21.417  0.00  0.00    +0.000 C 
ATOM      8  F   UNL     1       1.389   8.932  22.441  0.00  0.00    +0.000 F 
ATOM      9  F   UNL     1      -0.429   8.242  21.459  0.00  0.00    +0.000 F 
ATOM     10  F   UNL     1       1.247   6.890  21.718  0.00  0.00    +0.000 F 
ENDBRANCH   6   7
BRANCH   1  11
ATOM     11  C   UNL     1       0.292  10.851  19.868  0.00  0.00    +0.000 C 
BRANCH  11  20
ATOM     12  C   UNL     1      -5.791  12.350  17.863  0.00  0.00    +0.000 A 
ATOM     13  C   UNL     1      -5.538  12.940  19.101  0.00  0.00    +0.000 A 
ATOM     14  C   UNL     1      -4.316  12.726  19.741  0.00  0.00    +0.000 A 
ATOM     15  C   UNL     1      -3.341  11.923  19.139  0.00  0.00    +0.000 A 
ATOM     16  C   UNL     1      -3.591  11.293  17.914  0.00  0.00    +0.000 A 
ATOM     17  C   UNL     1      -4.829  11.511  17.287  0.00  0.00    +0.000 A 
ATOM     18  C   UNL     1      -2.561  10.437  17.229  0.00  0.00    +0.000 C 
ATOM     19  C   UNL     1      -1.420  10.016  18.156  0.00  0.00    +0.000 C 
ATOM     20  C   UNL     1      -0.887  11.212  18.951  0.00  0.00    +0.000 C 
ATOM     21  C   UNL     1      -2.029  11.752  19.807  0.00  0.00    +0.000 C 
ATOM     22  O   UNL     1      -1.888  12.067  20.984  0.00  0.00    +0.000 OA
BRANCH  12  24
ATOM     23  C   UNL     1      -7.247  13.814  16.719  0.00  0.00    +0.000 C 
ATOM     24  O   UNL     1      -6.942  12.489  17.141  0.00  0.00    +0.000 OA
ENDBRANCH  12  24
ENDBRANCH  11  20
ENDBRANCH   1  11
BRANCH   4  25
ATOM     25  C   UNL     1       3.240   6.578  17.394  0.00  0.00    +0.000 C 
BRANCH  25  26
ATOM     26  C   UNL     1       2.926   5.270  18.072  0.00  0.00    +0.000 A 
ATOM     27  C   UNL     1       1.701   4.637  17.779  0.00  0.00    +0.000 A 
ATOM     28  C   UNL     1       1.330   3.460  18.421  0.00  0.00    +0.000 A 
ATOM     29  C   UNL     1       2.178   2.886  19.356  0.00  0.00    +0.000 A 
ATOM     30  C   UNL     1       3.416   3.471  19.626  0.00  0.00    +0.000 A 
ATOM     31  C   UNL     1       3.813   4.654  18.982  0.00  0.00    +0.000 A 
ATOM     32  C   UNL     1       5.185   5.200  19.285  0.00  0.00    +0.000 C 
ENDBRANCH  25  26
ENDBRANCH   4  25
TORSDOF 6
ENDMDL
MODEL 7
REMARK VINA RESULT:      -8.3      5.402     10.809
REMARK  Name = 
REMARK  8 active torsions:
REMARK  status: ('A' for Active; 'I' for Inactive)
REMARK    1  A    between atoms: C_1  and  O_2
REMARK    2  A    between atoms: O_2  and  C_3
REMARK    3  A    between atoms: C_11  and  C_12
REMARK    4  A    between atoms: C_12  and  C_13
REMARK    5  A    between atoms: N_16  and  C_17
REMARK    6  A    between atoms: C_17  and  C_18
REMARK    7  A    between atoms: C_23  and  C_24
REMARK    8  A    between atoms: C_26  and  C_27
REMARK                            x       y       z     vdW  Elec       q    Type
REMARK                         _______ _______ _______ _____ _____    ______ ____
ROOT
ATOM      1  C   UNL     1      -0.848  11.376  19.047  0.00  0.00    +0.000 A 
ATOM      2  C   UNL     1      -1.504  10.694  18.013  0.00  0.00    +0.000 A 
ATOM      3  C   UNL     1      -2.868  10.861  17.813  0.00  0.00    +0.000 A 
ATOM      4  N   UNL     1      -3.574  11.697  18.603  0.00  0.00    +0.000 N 
ATOM      5  C   UNL     1      -2.991  12.287  19.672  0.00  0.00    +0.000 A 
ATOM      6  C   UNL     1      -1.623  12.142  19.934  0.00  0.00    +0.000 A 
ENDROOT
BRANCH   6   7
ATOM      7  C   UNL     1      -1.119  12.886  21.149  0.00  0.00    +0.000 C 
ATOM      8  F   UNL     1      -2.057  13.543  21.867  0.00  0.00    +0.000 F 
ATOM      9  F   UNL     1      -0.483  12.044  22.005  0.00  0.00    +0.000 F 
ATOM     10  F   UNL     1      -0.192  13.817  20.791  0.00  0.00    +0.000 F 
ENDBRANCH   6   7
BRANCH   1  11
ATOM     11  C   UNL     1       0.666  11.308  19.083  0.00  0.00    +0.000 C 
BRANCH  11  20
ATOM     12  C   UNL     1       3.051   5.200  19.611  0.00  0.00    +0.000 A 
ATOM     13  C   UNL     1       3.405   5.745  18.378  0.00  0.00    +0.000 A 
ATOM     14  C   UNL     1       2.973   7.026  18.030  0.00  0.00    +0.000 A 
ATOM     15  C   UNL     1       2.188   7.767  18.920  0.00  0.00    +0.000 A 
ATOM     16  C   UNL     1       1.792   7.222  20.147  0.00  0.00    +0.000 A 
ATOM     17  C   UNL     1       2.228   5.929  20.479  0.00  0.00    +0.000 A 
ATOM     18  C   UNL     1       0.963   7.995  21.136  0.00  0.00    +0.000 C 
ATOM     19  C   UNL     1       0.289   9.222  20.522  0.00  0.00    +0.000 C 
ATOM     20  C   UNL     1       1.283  10.037  19.689  0.00  0.00    +0.000 C 
ATOM     21  C   UNL     1       1.784   9.146  18.556  0.00  0.00    +0.000 C 
ATOM     22  O   UNL     1       1.889   9.536  17.398  0.00  0.00    +0.000 OA
BRANCH  12  24
ATOM     23  C   UNL     1       4.489   3.344  19.362  0.00  0.00    +0.000 C 
ATOM     24  O   UNL     1       3.416   3.964  20.064  0.00  0.00    +0.000 OA
ENDBRANCH  12  24
ENDBRANCH  11  20
ENDBRANCH   1  11
BRANCH   4  25
ATOM     25  C   UNL     1      -4.975  12.041  18.231  0.00  0.00    +0.000 C 
BRANCH  25  26
ATOM     26  C   UNL     1      -5.961  11.429  19.191  0.00  0.00    +0.000 A 
ATOM     27  C   UNL     1      -6.284  10.065  19.045  0.00  0.00    +0.000 A 
ATOM     28  C   UNL     1      -7.234   9.461  19.863  0.00  0.00    +0.000 A 
ATOM     29  C   UNL     1      -7.868  10.202  20.849  0.00  0.00    +0.000 A 
ATOM     30  C   UNL     1      -7.528  11.541  21.041  0.00  0.00    +0.000 A 
ATOM     31  C   UNL     1      -6.566  12.167  20.232  0.00  0.00    +0.000 A 
ATOM     32  C   UNL     1      -6.212  13.601  20.532  0.00  0.00    +0.000 C 
ENDBRANCH  25  26
ENDBRANCH   4  25
TORSDOF 6
ENDMDL
MODEL 8
REMARK VINA RESULT:      -8.3      4.135      6.272
REMARK  Name = 
REMARK  8 active torsions:
REMARK  status: ('A' for Active; 'I' for Inactive)
REMARK    1  A    between atoms: C_1  and  O_2
REMARK    2  A    between atoms: O_2  and  C_3
REMARK    3  A    between atoms: C_11  and  C_12
REMARK    4  A    between atoms: C_12  and  C_13
REMARK    5  A    between atoms: N_16  and  C_17
REMARK    6  A    between atoms: C_17  and  C_18
REMARK    7  A    between atoms: C_23  and  C_24
REMARK    8  A    between atoms: C_26  and  C_27
REMARK                            x       y       z     vdW  Elec       q    Type
REMARK                         _______ _______ _______ _____ _____    ______ ____
ROOT
ATOM      1  C   UNL     1       1.293   9.851  19.307  0.00  0.00    +0.000 A 
ATOM      2  C   UNL     1       1.941   9.080  18.332  0.00  0.00    +0.000 A 
ATOM      3  C   UNL     1       2.288   7.761  18.594  0.00  0.00    +0.000 A 
ATOM      4  N   UNL     1       1.988   7.202  19.785  0.00  0.00    +0.000 N 
ATOM      5  C   UNL     1       1.458   7.950  20.780  0.00  0.00    +0.000 A 
ATOM      6  C   UNL     1       1.103   9.290  20.580  0.00  0.00    +0.000 A 
ENDROOT
BRANCH   6   7
ATOM      7  C   UNL     1       0.496   9.980  21.781  0.00  0.00    +0.000 C 
ATOM      8  F   UNL     1      -0.854  10.008  21.822  0.00  0.00    +0.000 F 
ATOM      9  F   UNL     1       0.916   9.401  22.937  0.00  0.00    +0.000 F 
ATOM     10  F   UNL     1       0.908  11.276  21.848  0.00  0.00    +0.000 F 
ENDBRANCH   6   7
BRANCH   1  11
ATOM     11  C   UNL     1       0.763  11.209  18.889  0.00  0.00    +0.000 C 
BRANCH  11  20
ATOM     12  C   UNL     1      -5.775  11.893  18.648  0.00  0.00    +0.000 A 
ATOM     13  C   UNL     1      -5.229  12.834  19.520  0.00  0.00    +0.000 A 
ATOM     14  C   UNL     1      -3.854  12.851  19.758  0.00  0.00    +0.000 A 
ATOM     15  C   UNL     1      -3.020  11.927  19.119  0.00  0.00    +0.000 A 
ATOM     16  C   UNL     1      -3.555  10.950  18.269  0.00  0.00    +0.000 A 
ATOM     17  C   UNL     1      -4.941  10.941  18.047  0.00  0.00    +0.000 A 
ATOM     18  C   UNL     1      -2.688   9.952  17.552  0.00  0.00    +0.000 C 
ATOM     19  C   UNL     1      -1.278   9.857  18.134  0.00  0.00    +0.000 C 
ATOM     20  C   UNL     1      -0.674  11.248  18.345  0.00  0.00    +0.000 C 
ATOM     21  C   UNL     1      -1.556  11.995  19.341  0.00  0.00    +0.000 C 
ATOM     22  O   UNL     1      -1.102  12.654  20.271  0.00  0.00    +0.000 OA
BRANCH  12  24
ATOM     23  C   UNL     1      -7.780  13.009  18.092  0.00  0.00    +0.000 C 
ATOM     24  O   UNL     1      -7.100  11.781  18.334  0.00  0.00    +0.000 OA
ENDBRANCH  12  24
ENDBRANCH  11  20
ENDBRANCH   1  11
BRANCH   4  25
ATOM     25  C   UNL     1       2.155   5.733  19.963  0.00  0.00    +0.000 C 
BRANCH  25  26
ATOM     26  C   UNL     1       3.223   5.190  19.049  0.00  0.00    +0.000 A 
ATOM     27  C   UNL     1       4.573   5.401  19.393  0.00  0.00    +0.000 A 
ATOM     28  C   UNL     1       5.602   4.977  18.557  0.00  0.00    +0.000 A 
ATOM     29  C   UNL     1       5.303   4.323  17.371  0.00  0.00    +0.000 A 
ATOM     30  C   UNL     1       3.974   4.063  17.035  0.00  0.00    +0.000 A 
ATOM     31  C   UNL     1       2.922   4.474  17.870  0.00  0.00    +0.000 A 
ATOM     32  C   UNL     1       1.515   4.112  17.469  0.00  0.00    +0.000 C 
ENDBRANCH  25  26
ENDBRANCH   4  25
TORSDOF 6
ENDMDL
MODEL 9
REMARK VINA RESULT:      -8.3      5.306     11.120
REMARK  Name = 
REMARK  8 active torsions:
REMARK  status: ('A' for Active; 'I' for Inactive)
REMARK    1  A    between atoms: C_1  and  O_2
REMARK    2  A    between atoms: O_2  and  C_3
REMARK    3  A    between atoms: C_11  and  C_12
REMARK    4  A    between atoms: C_12  and  C_13
REMARK    5  A    between atoms: N_16  and  C_17
REMARK    6  A    between atoms: C_17  and  C_18
REMARK    7  A    between atoms: C_23  and  C_24
REMARK    8  A    between atoms: C_26  and  C_27
REMARK                            x       y       z     vdW  Elec       q    Type
REMARK                         _______ _______ _______ _____ _____    ______ ____
ROOT
ATOM      1  C   UNL     1      -1.088  11.384  20.005  0.00  0.00    +0.000 A 
ATOM      2  C   UNL     1      -1.778  11.269  18.791  0.00  0.00    +0.000 A 
ATOM      3  C   UNL     1      -3.080  11.737  18.674  0.00  0.00    +0.000 A 
ATOM      4  N   UNL     1      -3.689  12.326  19.724  0.00  0.00    +0.000 N 
ATOM      5  C   UNL     1      -3.088  12.358  20.936  0.00  0.00    +0.000 A 
ATOM      6  C   UNL     1      -1.782  11.885  21.119  0.00  0.00    +0.000 A 
ENDROOT
BRANCH   6   7
ATOM      7  C   UNL     1      -1.242  12.017  22.525  0.00  0.00    +0.000 C 
ATOM      8  F   UNL     1      -0.755  10.883  23.076  0.00  0.00    +0.000 F 
ATOM      9  F   UNL     1      -0.248  12.942  22.578  0.00  0.00    +0.000 F 
ATOM     10  F   UNL     1      -2.209  12.467  23.370  0.00  0.00    +0.000 F 
ENDBRANCH   6   7
BRANCH   1  11
ATOM     11  C   UNL     1       0.388  11.041  20.008  0.00  0.00    +0.000 C 
BRANCH  11  20
ATOM     12  C   UNL     1       3.011   5.092  19.001  0.00  0.00    +0.000 A 
ATOM     13  C   UNL     1       2.526   5.185  20.305  0.00  0.00    +0.000 A 
ATOM     14  C   UNL     1       1.958   6.378  20.756  0.00  0.00    +0.000 A 
ATOM     15  C   UNL     1       1.869   7.480  19.899  0.00  0.00    +0.000 A 
ATOM     16  C   UNL     1       2.383   7.417  18.598  0.00  0.00    +0.000 A 
ATOM     17  C   UNL     1       2.959   6.213  18.162  0.00  0.00    +0.000 A 
ATOM     18  C   UNL     1       2.289   8.576  17.644  0.00  0.00    +0.000 C 
ATOM     19  C   UNL     1       1.958   9.897  18.338  0.00  0.00    +0.000 C 
ATOM     20  C   UNL     1       0.791   9.729  19.315  0.00  0.00    +0.000 C 
ATOM     21  C   UNL     1       1.212   8.720  20.378  0.00  0.00    +0.000 C 
ATOM     22  O   UNL     1       1.002   8.886  21.575  0.00  0.00    +0.000 OA
BRANCH  12  24
ATOM     23  C   UNL     1       3.694   3.993  17.027  0.00  0.00    +0.000 C 
ATOM     24  O   UNL     1       3.581   3.982  18.446  0.00  0.00    +0.000 OA
ENDBRANCH  12  24
ENDBRANCH  11  20
ENDBRANCH   1  11
BRANCH   4  25
ATOM     25  C   UNL     1      -4.987  13.027  19.516  0.00  0.00    +0.000 C 
BRANCH  25  26
ATOM     26  C   UNL     1      -6.047  12.503  20.450  0.00  0.00    +0.000 A 
ATOM     27  C   UNL     1      -6.253  13.170  21.674  0.00  0.00    +0.000 A 
ATOM     28  C   UNL     1      -7.175  12.695  22.602  0.00  0.00    +0.000 A 
ATOM     29  C   UNL     1      -7.916  11.557  22.321  0.00  0.00    +0.000 A 
ATOM     30  C   UNL     1      -7.760  10.909  21.095  0.00  0.00    +0.000 A 
ATOM     31  C   UNL     1      -6.842  11.377  20.141  0.00  0.00    +0.000 A 
ATOM     32  C   UNL     1      -6.765  10.659  18.819  0.00  0.00    +0.000 C 
ENDBRANCH  25  26
ENDBRANCH   4  25
TORSDOF 6
ENDMDL
