MODEL 1
REMARK VINA RESULT:      -7.3      0.000      0.000
REMARK  Name = 
REMARK  8 active torsions:
REMARK  status: ('A' for Active; 'I' for Inactive)
REMARK    1  A    between atoms: C_1  and  O_2
REMARK    2  A    between atoms: O_2  and  C_3
REMARK    3  A    between atoms: C_3  and  C_4
REMARK    4  A    between atoms: C_3  and  C_22
REMARK    5  A    between atoms: C_4  and  N_5
REMARK    6  A    between atoms: N_5  and  C_6
REMARK    7  A    between atoms: N_5  and  S_12
REMARK    8  A    between atoms: S_12  and  C_15
REMARK                            x       y       z     vdW  Elec       q    Type
REMARK                         _______ _______ _______ _____ _____    ______ ____
ROOT
ATOM      1  N   UNL     1       3.370   5.759  17.902  0.00  0.00    +0.000 N 
ENDROOT
BRANCH   1   2
ATOM      2  C   UNL     1       2.556   6.811  18.443  0.00  0.00    +0.000 A 
ATOM      3  C   UNL     1       2.162   7.922  17.698  0.00  0.00    +0.000 A 
ATOM      4  C   UNL     1       1.558   9.014  18.347  0.00  0.00    +0.000 A 
ATOM      5  C   UNL     1       1.352   8.993  19.727  0.00  0.00    +0.000 A 
ATOM      6  C   UNL     1       1.701   7.865  20.462  0.00  0.00    +0.000 A 
ATOM      7  C   UNL     1       2.300   6.781  19.818  0.00  0.00    +0.000 A 
ENDBRANCH   1   2
BRANCH   1   8
ATOM      8  S   UNL     1       2.567   4.301  17.515  0.00  0.00    +0.000 S 
ATOM      9  O   UNL     1       1.282   4.597  16.913  0.00  0.00    +0.000 OA
ATOM     10  O   UNL     1       3.519   3.454  16.824  0.00  0.00    +0.000 OA
BRANCH   8  11
ATOM     11  C   UNL     1       2.243   3.528  19.096  0.00  0.00    +0.000 A 
ATOM     12  C   UNL     1       3.308   3.170  19.934  0.00  0.00    +0.000 A 
ATOM     13  C   UNL     1       3.043   2.649  21.201  0.00  0.00    +0.000 A 
ATOM     14  C   UNL     1       1.727   2.508  21.630  0.00  0.00    +0.000 A 
ATOM     15  F   UNL     1       1.475   2.012  22.849  0.00  0.00    +0.000 F 
ATOM     16  C   UNL     1       0.664   2.891  20.815  0.00  0.00    +0.000 A 
ATOM     17  C   UNL     1       0.921   3.416  19.547  0.00  0.00    +0.000 A 
ENDBRANCH   8  11
ENDBRANCH   1   8
BRANCH   1  18
ATOM     18  C   UNL     1       4.841   5.720  18.120  0.00  0.00    +0.000 C 
BRANCH  18  19
ATOM     19  C   UNL     1       5.583   6.676  17.134  0.00  0.00    +0.000 C 
BRANCH  19  20
ATOM     20  C   UNL     1       7.096   6.338  17.046  0.00  0.00    +0.000 C 
ATOM     21  C   UNL     1       7.524   5.189  17.947  0.00  0.00    +0.000 C 
ATOM     22  C   UNL     1       7.867   5.860  19.256  0.00  0.00    +0.000 C 
ATOM     23  O   UNL     1       8.335   7.173  18.931  0.00  0.00    +0.000 OA
ATOM     24  C   UNL     1       7.989   7.461  17.567  0.00  0.00    +0.000 C 
ENDBRANCH  19  20
BRANCH  19  26
ATOM     25  C   UNL     1       5.567   5.561  14.978  0.00  0.00    +0.000 C 
ATOM     26  O   UNL     1       5.061   6.596  15.801  0.00  0.00    +0.000 OA
ENDBRANCH  19  26
ENDBRANCH  18  19
ENDBRANCH   1  18
TORSDOF 7
ENDMDL
MODEL 2
REMARK VINA RESULT:      -7.1      1.323      2.548
REMARK  Name = 
REMARK  8 active torsions:
REMARK  status: ('A' for Active; 'I' for Inactive)
REMARK    1  A    between atoms: C_1  and  O_2
REMARK    2  A    between atoms: O_2  and  C_3
REMARK    3  A    between atoms: C_3  and  C_4
REMARK    4  A    between atoms: C_3  and  C_22
REMARK    5  A    between atoms: C_4  and  N_5
REMARK    6  A    between atoms: N_5  and  C_6
REMARK    7  A    between atoms: N_5  and  S_12
REMARK    8  A    between atoms: S_12  and  C_15
REMARK                            x       y       z     vdW  Elec       q    Type
REMARK                         _______ _______ _______ _____ _____    ______ ____
ROOT
ATOM      1  N   UNL     1       4.305   4.741  18.007  0.00  0.00    +0.000 N 
ENDROOT
BRANCH   1   2
ATOM      2  C   UNL     1       3.654   5.958  18.405  0.00  0.00    +0.000 A 
ATOM      3  C   UNL     1       3.000   6.101  19.627  0.00  0.00    +0.000 A 
ATOM      4  C   UNL     1       2.199   7.236  19.857  0.00  0.00    +0.000 A 
ATOM      5  C   UNL     1       2.057   8.214  18.873  0.00  0.00    +0.000 A 
ATOM      6  C   UNL     1       2.749   8.094  17.672  0.00  0.00    +0.000 A 
ATOM      7  C   UNL     1       3.543   6.969  17.444  0.00  0.00    +0.000 A 
ENDBRANCH   1   2
BRANCH   1   8
ATOM      8  S   UNL     1       3.288   3.411  17.672  0.00  0.00    +0.000 S 
ATOM      9  O   UNL     1       2.229   3.820  16.772  0.00  0.00    +0.000 OA
ATOM     10  O   UNL     1       4.141   2.288  17.335  0.00  0.00    +0.000 OA
BRANCH   8  11
ATOM     11  C   UNL     1       2.521   3.019  19.242  0.00  0.00    +0.000 A 
ATOM     12  C   UNL     1       3.314   2.662  20.342  0.00  0.00    +0.000 A 
ATOM     13  C   UNL     1       2.714   2.445  21.582  0.00  0.00    +0.000 A 
ATOM     14  C   UNL     1       1.339   2.605  21.724  0.00  0.00    +0.000 A 
ATOM     15  F   UNL     1       0.767   2.400  22.918  0.00  0.00    +0.000 F 
ATOM     16  C   UNL     1       0.549   2.990  20.644  0.00  0.00    +0.000 A 
ATOM     17  C   UNL     1       1.142   3.212  19.399  0.00  0.00    +0.000 A 
ENDBRANCH   8  11
ENDBRANCH   1   8
BRANCH   1  18
ATOM     18  C   UNL     1       5.731   4.476  18.338  0.00  0.00    +0.000 C 
BRANCH  18  19
ATOM     19  C   UNL     1       6.640   4.626  17.077  0.00  0.00    +0.000 C 
BRANCH  19  20
ATOM     20  C   UNL     1       5.794   4.844  15.792  0.00  0.00    +0.000 C 
ATOM     21  C   UNL     1       5.951   3.742  14.756  0.00  0.00    +0.000 C 
ATOM     22  C   UNL     1       7.127   4.190  13.921  0.00  0.00    +0.000 C 
ATOM     23  O   UNL     1       7.120   5.622  13.941  0.00  0.00    +0.000 OA
ATOM     24  C   UNL     1       6.238   6.063  14.986  0.00  0.00    +0.000 C 
ENDBRANCH  19  20
BRANCH  19  26
ATOM     25  C   UNL     1       7.735   6.284  18.470  0.00  0.00    +0.000 C 
ATOM     26  O   UNL     1       7.534   5.742  17.179  0.00  0.00    +0.000 OA
ENDBRANCH  19  26
ENDBRANCH  18  19
ENDBRANCH   1  18
TORSDOF 7
ENDMDL
MODEL 3
REMARK VINA RESULT:      -6.9      2.597      4.960
REMARK  Name = 
REMARK  8 active torsions:
REMARK  status: ('A' for Active; 'I' for Inactive)
REMARK    1  A    between atoms: C_1  and  O_2
REMARK    2  A    between atoms: O_2  and  C_3
REMARK    3  A    between atoms: C_3  and  C_4
REMARK    4  A    between atoms: C_3  and  C_22
REMARK    5  A    between atoms: C_4  and  N_5
REMARK    6  A    between atoms: N_5  and  C_6
REMARK    7  A    between atoms: N_5  and  S_12
REMARK    8  A    between atoms: S_12  and  C_15
REMARK                            x       y       z     vdW  Elec       q    Type
REMARK                         _______ _______ _______ _____ _____    ______ ____
ROOT
ATOM      1  N   UNL     1       2.911   6.076  19.247  0.00  0.00    +0.000 N 
ENDROOT
BRANCH   1   2
ATOM      2  C   UNL     1       2.042   4.933  19.227  0.00  0.00    +0.000 A 
ATOM      3  C   UNL     1       1.429   4.428  20.372  0.00  0.00    +0.000 A 
ATOM      4  C   UNL     1       0.774   3.184  20.318  0.00  0.00    +0.000 A 
ATOM      5  C   UNL     1       0.736   2.454  19.130  0.00  0.00    +0.000 A 
ATOM      6  C   UNL     1       1.307   2.980  17.975  0.00  0.00    +0.000 A 
ATOM      7  C   UNL     1       1.956   4.215  18.029  0.00  0.00    +0.000 A 
ENDBRANCH   1   2
BRANCH   1   8
ATOM      8  S   UNL     1       2.401   7.433  18.344  0.00  0.00    +0.000 S 
ATOM      9  O   UNL     1       3.554   8.110  17.786  0.00  0.00    +0.000 OA
ATOM     10  O   UNL     1       1.321   6.996  17.480  0.00  0.00    +0.000 OA
BRANCH   8  11
ATOM     11  C   UNL     1       1.676   8.537  19.553  0.00  0.00    +0.000 A 
ATOM     12  C   UNL     1       1.150   9.773  19.150  0.00  0.00    +0.000 A 
ATOM     13  C   UNL     1       0.510  10.587  20.084  0.00  0.00    +0.000 A 
ATOM     14  C   UNL     1       0.378  10.158  21.401  0.00  0.00    +0.000 A 
ATOM     15  F   UNL     1      -0.242  10.940  22.295  0.00  0.00    +0.000 F 
ATOM     16  C   UNL     1       0.870   8.918  21.802  0.00  0.00    +0.000 A 
ATOM     17  C   UNL     1       1.511   8.096  20.873  0.00  0.00    +0.000 A 
ENDBRANCH   8  11
ENDBRANCH   1   8
BRANCH   1  18
ATOM     18  C   UNL     1       4.355   5.952  19.584  0.00  0.00    +0.000 C 
BRANCH  18  19
ATOM     19  C   UNL     1       5.096   5.037  18.559  0.00  0.00    +0.000 C 
BRANCH  19  20
ATOM     20  C   UNL     1       6.252   5.796  17.854  0.00  0.00    +0.000 C 
ATOM     21  C   UNL     1       6.141   5.818  16.336  0.00  0.00    +0.000 C 
ATOM     22  C   UNL     1       6.853   4.559  15.900  0.00  0.00    +0.000 C 
ATOM     23  O   UNL     1       7.868   4.305  16.877  0.00  0.00    +0.000 OA
ATOM     24  C   UNL     1       7.608   5.117  18.034  0.00  0.00    +0.000 C 
ENDBRANCH  19  20
BRANCH  19  26
ATOM     25  C   UNL     1       4.787   2.852  19.570  0.00  0.00    +0.000 C 
ATOM     26  O   UNL     1       5.675   3.882  19.180  0.00  0.00    +0.000 OA
ENDBRANCH  19  26
ENDBRANCH  18  19
ENDBRANCH   1  18
TORSDOF 7
ENDMDL
MODEL 4
REMARK VINA RESULT:      -6.9      1.204      2.383
REMARK  Name = 
REMARK  8 active torsions:
REMARK  status: ('A' for Active; 'I' for Inactive)
REMARK    1  A    between atoms: C_1  and  O_2
REMARK    2  A    between atoms: O_2  and  C_3
REMARK    3  A    between atoms: C_3  and  C_4
REMARK    4  A    between atoms: C_3  and  C_22
REMARK    5  A    between atoms: C_4  and  N_5
REMARK    6  A    between atoms: N_5  and  C_6
REMARK    7  A    between atoms: N_5  and  S_12
REMARK    8  A    between atoms: S_12  and  C_15
REMARK                            x       y       z     vdW  Elec       q    Type
REMARK                         _______ _______ _______ _____ _____    ______ ____
ROOT
ATOM      1  N   UNL     1       3.994   5.260  18.097  0.00  0.00    +0.000 N 
ENDROOT
BRANCH   1   2
ATOM      2  C   UNL     1       3.148   6.403  18.299  0.00  0.00    +0.000 A 
ATOM      3  C   UNL     1       3.012   7.419  17.355  0.00  0.00    +0.000 A 
ATOM      4  C   UNL     1       2.347   8.609  17.706  0.00  0.00    +0.000 A 
ATOM      5  C   UNL     1       1.826   8.777  18.989  0.00  0.00    +0.000 A 
ATOM      6  C   UNL     1       1.920   7.744  19.916  0.00  0.00    +0.000 A 
ATOM      7  C   UNL     1       2.579   6.564  19.567  0.00  0.00    +0.000 A 
ENDBRANCH   1   2
BRANCH   1   8
ATOM      8  S   UNL     1       3.204   3.772  17.814  0.00  0.00    +0.000 S 
ATOM      9  O   UNL     1       2.114   3.968  16.880  0.00  0.00    +0.000 OA
ATOM     10  O   UNL     1       4.229   2.784  17.544  0.00  0.00    +0.000 OA
BRANCH   8  11
ATOM     11  C   UNL     1       2.474   3.338  19.390  0.00  0.00    +0.000 A 
ATOM     12  C   UNL     1       1.082   3.372  19.553  0.00  0.00    +0.000 A 
ATOM     13  C   UNL     1       0.519   2.948  20.757  0.00  0.00    +0.000 A 
ATOM     14  C   UNL     1       1.339   2.476  21.777  0.00  0.00    +0.000 A 
ATOM     15  F   UNL     1       0.795   2.065  22.930  0.00  0.00    +0.000 F 
ATOM     16  C   UNL     1       2.720   2.410  21.611  0.00  0.00    +0.000 A 
ATOM     17  C   UNL     1       3.292   2.831  20.408  0.00  0.00    +0.000 A 
ENDBRANCH   8  11
ENDBRANCH   1   8
BRANCH   1  18
ATOM     18  C   UNL     1       5.399   5.234  18.586  0.00  0.00    +0.000 C 
BRANCH  18  19
ATOM     19  C   UNL     1       6.388   4.860  17.437  0.00  0.00    +0.000 C 
BRANCH  19  20
ATOM     20  C   UNL     1       6.084   5.662  16.143  0.00  0.00    +0.000 C 
ATOM     21  C   UNL     1       5.483   4.823  15.024  0.00  0.00    +0.000 C 
ATOM     22  C   UNL     1       6.686   4.296  14.278  0.00  0.00    +0.000 C 
ATOM     23  O   UNL     1       7.717   5.279  14.419  0.00  0.00    +0.000 OA
ATOM     24  C   UNL     1       7.342   6.194  15.462  0.00  0.00    +0.000 C 
ENDBRANCH  19  20
BRANCH  19  26
ATOM     25  C   UNL     1       7.984   5.753  19.033  0.00  0.00    +0.000 C 
ATOM     26  O   UNL     1       7.753   5.132  17.783  0.00  0.00    +0.000 OA
ENDBRANCH  19  26
ENDBRANCH  18  19
ENDBRANCH   1  18
TORSDOF 7
ENDMDL
MODEL 5
REMARK VINA RESULT:      -6.8      2.853      5.672
REMARK  Name = 
REMARK  8 active torsions:
REMARK  status: ('A' for Active; 'I' for Inactive)
REMARK    1  A    between atoms: C_1  and  O_2
REMARK    2  A    between atoms: O_2  and  C_3
REMARK    3  A    between atoms: C_3  and  C_4
REMARK    4  A    between atoms: C_3  and  C_22
REMARK    5  A    between atoms: C_4  and  N_5
REMARK    6  A    between atoms: N_5  and  C_6
REMARK    7  A    between atoms: N_5  and  S_12
REMARK    8  A    between atoms: S_12  and  C_15
REMARK                            x       y       z     vdW  Elec       q    Type
REMARK                         _______ _______ _______ _____ _____    ______ ____
ROOT
ATOM      1  N   UNL     1       3.215   6.142  18.264  0.00  0.00    +0.000 N 
ENDROOT
BRANCH   1   2
ATOM      2  C   UNL     1       2.455   7.338  18.499  0.00  0.00    +0.000 A 
ATOM      3  C   UNL     1       2.279   8.324  17.530  0.00  0.00    +0.000 A 
ATOM      4  C   UNL     1       1.715   9.561  17.893  0.00  0.00    +0.000 A 
ATOM      5  C   UNL     1       1.334   9.806  19.213  0.00  0.00    +0.000 A 
ATOM      6  C   UNL     1       1.465   8.804  20.169  0.00  0.00    +0.000 A 
ATOM      7  C   UNL     1       2.024   7.577  19.808  0.00  0.00    +0.000 A 
ENDBRANCH   1   2
BRANCH   1   8
ATOM      8  S   UNL     1       4.902   6.340  18.077  0.00  0.00    +0.000 S 
ATOM      9  O   UNL     1       5.204   7.733  17.821  0.00  0.00    +0.000 OA
ATOM     10  O   UNL     1       5.543   5.643  19.175  0.00  0.00    +0.000 OA
BRANCH   8  11
ATOM     11  C   UNL     1       5.303   5.431  16.588  0.00  0.00    +0.000 A 
ATOM     12  C   UNL     1       5.255   6.070  15.341  0.00  0.00    +0.000 A 
ATOM     13  C   UNL     1       5.654   5.378  14.197  0.00  0.00    +0.000 A 
ATOM     14  C   UNL     1       6.116   4.070  14.304  0.00  0.00    +0.000 A 
ATOM     15  F   UNL     1       6.503   3.411  13.204  0.00  0.00    +0.000 F 
ATOM     16  C   UNL     1       6.197   3.440  15.543  0.00  0.00    +0.000 A 
ATOM     17  C   UNL     1       5.801   4.126  16.694  0.00  0.00    +0.000 A 
ENDBRANCH   8  11
ENDBRANCH   1   8
BRANCH   1  18
ATOM     18  C   UNL     1       2.583   4.910  17.721  0.00  0.00    +0.000 C 
BRANCH  18  19
ATOM     19  C   UNL     1       2.593   3.759  18.777  0.00  0.00    +0.000 C 
BRANCH  19  20
ATOM     20  C   UNL     1       1.492   3.967  19.852  0.00  0.00    +0.000 C 
ATOM     21  C   UNL     1       2.027   4.420  21.203  0.00  0.00    +0.000 C 
ATOM     22  C   UNL     1       2.331   3.130  21.927  0.00  0.00    +0.000 C 
ATOM     23  O   UNL     1       1.402   2.158  21.435  0.00  0.00    +0.000 OA
ATOM     24  C   UNL     1       0.787   2.669  20.242  0.00  0.00    +0.000 C 
ENDBRANCH  19  20
BRANCH  19  26
ATOM     25  C   UNL     1       3.455   1.581  18.140  0.00  0.00    +0.000 C 
ATOM     26  O   UNL     1       2.359   2.474  18.185  0.00  0.00    +0.000 OA
ENDBRANCH  19  26
ENDBRANCH  18  19
ENDBRANCH   1  18
TORSDOF 7
ENDMDL
MODEL 6
REMARK VINA RESULT:      -6.8      2.343      4.703
REMARK  Name = 
REMARK  8 active torsions:
REMARK  status: ('A' for Active; 'I' for Inactive)
REMARK    1  A    between atoms: C_1  and  O_2
REMARK    2  A    between atoms: O_2  and  C_3
REMARK    3  A    between atoms: C_3  and  C_4
REMARK    4  A    between atoms: C_3  and  C_22
REMARK    5  A    between atoms: C_4  and  N_5
REMARK    6  A    between atoms: N_5  and  C_6
REMARK    7  A    between atoms: N_5  and  S_12
REMARK    8  A    between atoms: S_12  and  C_15
REMARK                            x       y       z     vdW  Elec       q    Type
REMARK                         _______ _______ _______ _____ _____    ______ ____
ROOT
ATOM      1  N   UNL     1       3.433   5.793  19.463  0.00  0.00    +0.000 N 
ENDROOT
BRANCH   1   2
ATOM      2  C   UNL     1       2.542   4.830  20.048  0.00  0.00    +0.000 A 
ATOM      3  C   UNL     1       2.701   4.343  21.344  0.00  0.00    +0.000 A 
ATOM      4  C   UNL     1       1.931   3.246  21.773  0.00  0.00    +0.000 A 
ATOM      5  C   UNL     1       1.015   2.643  20.911  0.00  0.00    +0.000 A 
ATOM      6  C   UNL     1       0.823   3.160  19.633  0.00  0.00    +0.000 A 
ATOM      7  C   UNL     1       1.586   4.249  19.209  0.00  0.00    +0.000 A 
ENDBRANCH   1   2
BRANCH   1   8
ATOM      8  S   UNL     1       2.742   6.884  18.345  0.00  0.00    +0.000 S 
ATOM      9  O   UNL     1       3.792   7.586  17.635  0.00  0.00    +0.000 OA
ATOM     10  O   UNL     1       1.720   6.163  17.612  0.00  0.00    +0.000 OA
BRANCH   8  11
ATOM     11  C   UNL     1       1.892   8.093  19.356  0.00  0.00    +0.000 A 
ATOM     12  C   UNL     1       1.384   9.263  18.775  0.00  0.00    +0.000 A 
ATOM     13  C   UNL     1       0.648  10.156  19.554  0.00  0.00    +0.000 A 
ATOM     14  C   UNL     1       0.405   9.869  20.894  0.00  0.00    +0.000 A 
ATOM     15  F   UNL     1      -0.306  10.726  21.638  0.00  0.00    +0.000 F 
ATOM     16  C   UNL     1       0.880   8.693  21.470  0.00  0.00    +0.000 A 
ATOM     17  C   UNL     1       1.617   7.793  20.697  0.00  0.00    +0.000 A 
ENDBRANCH   8  11
ENDBRANCH   1   8
BRANCH   1  18
ATOM     18  C   UNL     1       4.903   5.568  19.417  0.00  0.00    +0.000 C 
BRANCH  18  19
ATOM     19  C   UNL     1       5.301   4.698  18.183  0.00  0.00    +0.000 C 
BRANCH  19  20
ATOM     20  C   UNL     1       6.837   4.708  17.955  0.00  0.00    +0.000 C 
ATOM     21  C   UNL     1       7.532   5.952  18.487  0.00  0.00    +0.000 C 
ATOM     22  C   UNL     1       7.469   6.927  17.335  0.00  0.00    +0.000 C 
ATOM     23  O   UNL     1       7.486   6.144  16.137  0.00  0.00    +0.000 OA
ATOM     24  C   UNL     1       7.220   4.774  16.478  0.00  0.00    +0.000 C 
ENDBRANCH  19  20
BRANCH  19  26
ATOM     25  C   UNL     1       4.071   2.785  17.335  0.00  0.00    +0.000 C 
ATOM     26  O   UNL     1       4.913   3.326  18.335  0.00  0.00    +0.000 OA
ENDBRANCH  19  26
ENDBRANCH  18  19
ENDBRANCH   1  18
TORSDOF 7
ENDMDL
MODEL 7
REMARK VINA RESULT:      -6.8      2.681      5.003
REMARK  Name = 
REMARK  8 active torsions:
REMARK  status: ('A' for Active; 'I' for Inactive)
REMARK    1  A    between atoms: C_1  and  O_2
REMARK    2  A    between atoms: O_2  and  C_3
REMARK    3  A    between atoms: C_3  and  C_4
REMARK    4  A    between atoms: C_3  and  C_22
REMARK    5  A    between atoms: C_4  and  N_5
REMARK    6  A    between atoms: N_5  and  C_6
REMARK    7  A    between atoms: N_5  and  S_12
REMARK    8  A    between atoms: S_12  and  C_15
REMARK                            x       y       z     vdW  Elec       q    Type
REMARK                         _______ _______ _______ _____ _____    ______ ____
ROOT
ATOM      1  N   UNL     1       2.945   6.191  19.206  0.00  0.00    +0.000 N 
ENDROOT
BRANCH   1   2
ATOM      2  C   UNL     1       2.069   5.056  19.295  0.00  0.00    +0.000 A 
ATOM      3  C   UNL     1       1.574   4.577  20.506  0.00  0.00    +0.000 A 
ATOM      4  C   UNL     1       0.907   3.338  20.541  0.00  0.00    +0.000 A 
ATOM      5  C   UNL     1       0.740   2.589  19.376  0.00  0.00    +0.000 A 
ATOM      6  C   UNL     1       1.192   3.091  18.160  0.00  0.00    +0.000 A 
ATOM      7  C   UNL     1       1.853   4.320  18.125  0.00  0.00    +0.000 A 
ENDBRANCH   1   2
BRANCH   1   8
ATOM      8  S   UNL     1       2.338   7.555  18.375  0.00  0.00    +0.000 S 
ATOM      9  O   UNL     1       3.440   8.350  17.871  0.00  0.00    +0.000 OA
ATOM     10  O   UNL     1       1.304   7.086  17.474  0.00  0.00    +0.000 OA
BRANCH   8  11
ATOM     11  C   UNL     1       1.520   8.527  19.635  0.00  0.00    +0.000 A 
ATOM     12  C   UNL     1       1.593   8.139  20.980  0.00  0.00    +0.000 A 
ATOM     13  C   UNL     1       1.027   8.951  21.963  0.00  0.00    +0.000 A 
ATOM     14  C   UNL     1       0.414  10.148  21.605  0.00  0.00    +0.000 A 
ATOM     15  F   UNL     1      -0.125  10.927  22.552  0.00  0.00    +0.000 F 
ATOM     16  C   UNL     1       0.365  10.555  20.274  0.00  0.00    +0.000 A 
ATOM     17  C   UNL     1       0.931   9.749  19.284  0.00  0.00    +0.000 A 
ENDBRANCH   8  11
ENDBRANCH   1   8
BRANCH   1  18
ATOM     18  C   UNL     1       4.418   6.052  19.357  0.00  0.00    +0.000 C 
BRANCH  18  19
ATOM     19  C   UNL     1       4.987   4.977  18.378  0.00  0.00    +0.000 C 
BRANCH  19  20
ATOM     20  C   UNL     1       6.040   5.589  17.414  0.00  0.00    +0.000 C 
ATOM     21  C   UNL     1       5.471   6.010  16.067  0.00  0.00    +0.000 C 
ATOM     22  C   UNL     1       5.584   4.766  15.218  0.00  0.00    +0.000 C 
ATOM     23  O   UNL     1       6.723   4.045  15.701  0.00  0.00    +0.000 OA
ATOM     24  C   UNL     1       7.103   4.584  16.977  0.00  0.00    +0.000 C 
ENDBRANCH  19  20
BRANCH  19  26
ATOM     25  C   UNL     1       4.800   2.866  19.561  0.00  0.00    +0.000 C 
ATOM     26  O   UNL     1       5.632   3.899  19.067  0.00  0.00    +0.000 OA
ENDBRANCH  19  26
ENDBRANCH  18  19
ENDBRANCH   1  18
TORSDOF 7
ENDMDL
MODEL 8
REMARK VINA RESULT:      -6.7      2.369      4.776
REMARK  Name = 
REMARK  8 active torsions:
REMARK  status: ('A' for Active; 'I' for Inactive)
REMARK    1  A    between atoms: C_1  and  O_2
REMARK    2  A    between atoms: O_2  and  C_3
REMARK    3  A    between atoms: C_3  and  C_4
REMARK    4  A    between atoms: C_3  and  C_22
REMARK    5  A    between atoms: C_4  and  N_5
REMARK    6  A    between atoms: N_5  and  C_6
REMARK    7  A    between atoms: N_5  and  S_12
REMARK    8  A    between atoms: S_12  and  C_15
REMARK                            x       y       z     vdW  Elec       q    Type
REMARK                         _______ _______ _______ _____ _____    ______ ____
ROOT
ATOM      1  N   UNL     1       3.507   5.749  19.215  0.00  0.00    +0.000 N 
ENDROOT
BRANCH   1   2
ATOM      2  C   UNL     1       2.824   4.516  19.492  0.00  0.00    +0.000 A 
ATOM      3  C   UNL     1       2.525   3.580  18.504  0.00  0.00    +0.000 A 
ATOM      4  C   UNL     1       1.665   2.506  18.803  0.00  0.00    +0.000 A 
ATOM      5  C   UNL     1       1.113   2.374  20.078  0.00  0.00    +0.000 A 
ATOM      6  C   UNL     1       1.451   3.282  21.076  0.00  0.00    +0.000 A 
ATOM      7  C   UNL     1       2.304   4.346  20.780  0.00  0.00    +0.000 A 
ENDBRANCH   1   2
BRANCH   1   8
ATOM      8  S   UNL     1       2.679   6.870  18.227  0.00  0.00    +0.000 S 
ATOM      9  O   UNL     1       3.631   7.607  17.421  0.00  0.00    +0.000 OA
ATOM     10  O   UNL     1       1.581   6.162  17.598  0.00  0.00    +0.000 OA
BRANCH   8  11
ATOM     11  C   UNL     1       1.949   8.034  19.375  0.00  0.00    +0.000 A 
ATOM     12  C   UNL     1       1.440   9.254  18.909  0.00  0.00    +0.000 A 
ATOM     13  C   UNL     1       0.795  10.115  19.797  0.00  0.00    +0.000 A 
ATOM     14  C   UNL     1       0.642   9.748  21.130  0.00  0.00    +0.000 A 
ATOM     15  F   UNL     1       0.018  10.575  21.979  0.00  0.00    +0.000 F 
ATOM     16  C   UNL     1       1.117   8.524  21.593  0.00  0.00    +0.000 A 
ATOM     17  C   UNL     1       1.763   7.655  20.711  0.00  0.00    +0.000 A 
ENDBRANCH   8  11
ENDBRANCH   1   8
BRANCH   1  18
ATOM     18  C   UNL     1       4.986   5.864  19.330  0.00  0.00    +0.000 C 
BRANCH  18  19
ATOM     19  C   UNL     1       5.705   4.909  18.325  0.00  0.00    +0.000 C 
BRANCH  19  20
ATOM     20  C   UNL     1       5.635   5.457  16.873  0.00  0.00    +0.000 C 
ATOM     21  C   UNL     1       5.054   4.472  15.869  0.00  0.00    +0.000 C 
ATOM     22  C   UNL     1       6.254   3.686  15.393  0.00  0.00    +0.000 C 
ATOM     23  O   UNL     1       7.377   4.571  15.472  0.00  0.00    +0.000 OA
ATOM     24  C   UNL     1       7.012   5.711  16.265  0.00  0.00    +0.000 C 
ENDBRANCH  19  20
BRANCH  19  26
ATOM     25  C   UNL     1       7.632   5.570  19.643  0.00  0.00    +0.000 C 
ATOM     26  O   UNL     1       7.093   4.735  18.636  0.00  0.00    +0.000 OA
ENDBRANCH  19  26
ENDBRANCH  18  19
ENDBRANCH   1  18
TORSDOF 7
ENDMDL
MODEL 9
REMARK VINA RESULT:      -6.7      3.008      6.075
REMARK  Name = 
REMARK  8 active torsions:
REMARK  status: ('A' for Active; 'I' for Inactive)
REMARK    1  A    between atoms: C_1  and  O_2
REMARK    2  A    between atoms: O_2  and  C_3
REMARK    3  A    between atoms: C_3  and  C_4
REMARK    4  A    between atoms: C_3  and  C_22
REMARK    5  A    between atoms: C_4  and  N_5
REMARK    6  A    between atoms: N_5  and  C_6
REMARK    7  A    between atoms: N_5  and  S_12
REMARK    8  A    between atoms: S_12  and  C_15
REMARK                            x       y       z     vdW  Elec       q    Type
REMARK                         _______ _______ _______ _____ _____    ______ ____
ROOT
ATOM      1  N   UNL     1       3.707   5.362  19.194  0.00  0.00    +0.000 N 
ENDROOT
BRANCH   1   2
ATOM      2  C   UNL     1       2.594   4.502  19.485  0.00  0.00    +0.000 A 
ATOM      3  C   UNL     1       2.247   4.126  20.781  0.00  0.00    +0.000 A 
ATOM      4  C   UNL     1       1.291   3.111  20.977  0.00  0.00    +0.000 A 
ATOM      5  C   UNL     1       0.691   2.482  19.886  0.00  0.00    +0.000 A 
ATOM      6  C   UNL     1       1.003   2.892  18.593  0.00  0.00    +0.000 A 
ATOM      7  C   UNL     1       1.950   3.898  18.399  0.00  0.00    +0.000 A 
ENDBRANCH   1   2
BRANCH   1   8
ATOM      8  S   UNL     1       5.243   4.619  19.128  0.00  0.00    +0.000 S 
ATOM      9  O   UNL     1       6.209   5.429  19.843  0.00  0.00    +0.000 OA
ATOM     10  O   UNL     1       5.063   3.223  19.473  0.00  0.00    +0.000 OA
BRANCH   8  11
ATOM     11  C   UNL     1       5.696   4.667  17.397  0.00  0.00    +0.000 A 
ATOM     12  C   UNL     1       7.039   4.824  17.025  0.00  0.00    +0.000 A 
ATOM     13  C   UNL     1       7.391   4.772  15.677  0.00  0.00    +0.000 A 
ATOM     14  C   UNL     1       6.414   4.542  14.713  0.00  0.00    +0.000 A 
ATOM     15  F   UNL     1       6.756   4.488  13.420  0.00  0.00    +0.000 F 
ATOM     16  C   UNL     1       5.082   4.353  15.077  0.00  0.00    +0.000 A 
ATOM     17  C   UNL     1       4.721   4.403  16.425  0.00  0.00    +0.000 A 
ENDBRANCH   8  11
ENDBRANCH   1   8
BRANCH   1  18
ATOM     18  C   UNL     1       3.640   6.830  19.431  0.00  0.00    +0.000 C 
BRANCH  18  19
ATOM     19  C   UNL     1       2.165   7.342  19.378  0.00  0.00    +0.000 C 
BRANCH  19  20
ATOM     20  C   UNL     1       1.926   8.486  20.401  0.00  0.00    +0.000 C 
ATOM     21  C   UNL     1       1.139   8.059  21.631  0.00  0.00    +0.000 C 
ATOM     22  C   UNL     1      -0.303   8.267  21.233  0.00  0.00    +0.000 C 
ATOM     23  O   UNL     1      -0.315   9.353  20.301  0.00  0.00    +0.000 OA
ATOM     24  C   UNL     1       1.029   9.595  19.856  0.00  0.00    +0.000 C 
ENDBRANCH  19  20
BRANCH  19  26
ATOM     25  C   UNL     1       2.875   8.097  17.183  0.00  0.00    +0.000 C 
ATOM     26  O   UNL     1       1.813   7.858  18.088  0.00  0.00    +0.000 OA
ENDBRANCH  19  26
ENDBRANCH  18  19
ENDBRANCH   1  18
TORSDOF 7
ENDMDL
