MODEL 1
REMARK VINA RESULT:      -9.8      0.000      0.000
REMARK  Name = 
REMARK  5 active torsions:
REMARK  status: ('A' for Active; 'I' for Inactive)
REMARK    1  A    between atoms: C_2  and  C_3
REMARK    2  A    between atoms: C_2  and  C_9
REMARK    3  A    between atoms: C_10  and  C_11
REMARK    4  A    between atoms: N_14  and  C_15
REMARK    5  A    between atoms: C_15  and  C_16
REMARK                            x       y       z     vdW  Elec       q    Type
REMARK                         _______ _______ _______ _____ _____    ______ ____
ROOT
ATOM      1  C   UNL     1       2.330   6.000  18.606  0.00  0.00    +0.000 A 
ATOM      2  C   UNL     1       3.231   5.074  18.117  0.00  0.00    +0.000 A 
ATOM      3  O   UNL     1       2.346   4.146  17.558  0.00  0.00    +0.000 OA
ATOM      4  C   UNL     1       1.476   3.974  18.607  0.00  0.00    +0.000 A 
ATOM      5  C   UNL     1       0.905   2.739  18.868  0.00  0.00    +0.000 A 
ATOM      6  C   UNL     1       1.027   2.362  20.199  0.00  0.00    +0.000 A 
ATOM      7  C   UNL     1       1.487   3.275  21.164  0.00  0.00    +0.000 A 
ATOM      8  C   UNL     1       1.736   4.649  20.862  0.00  0.00    +0.000 A 
ATOM      9  C   UNL     1       1.705   5.039  19.495  0.00  0.00    +0.000 A 
ENDROOT
BRANCH   2  10
ATOM     10  C   UNL     1       4.436   4.448  18.865  0.00  0.00    +0.000 C 
ATOM     11  C   UNL     1       5.548   5.447  19.159  0.00  0.00    +0.000 C 
ATOM     12  C   UNL     1       6.192   5.933  17.862  0.00  0.00    +0.000 C 
ATOM     13  N   UNL     1       6.548   4.847  16.901  0.00  0.00    +0.000 NA
ATOM     14  C   UNL     1       5.407   3.944  16.699  0.00  0.00    +0.000 C 
ATOM     15  C   UNL     1       4.996   3.325  18.035  0.00  0.00    +0.000 C 
BRANCH  13  16
ATOM     16  C   UNL     1       6.965   5.503  15.643  0.00  0.00    +0.000 C 
BRANCH  16  17
ATOM     17  C   UNL     1       6.872   4.792  14.302  0.00  0.00    +0.000 A 
ATOM     18  C   UNL     1       5.967   3.773  13.963  0.00  0.00    +0.000 A 
ATOM     19  C   UNL     1       5.823   3.332  12.645  0.00  0.00    +0.000 A 
ATOM     20  C   UNL     1       6.661   3.816  11.651  0.00  0.00    +0.000 A 
ATOM     21  C   UNL     1       7.644   4.749  11.984  0.00  0.00    +0.000 A 
ATOM     22  C   UNL     1       7.730   5.243  13.283  0.00  0.00    +0.000 A 
ENDBRANCH  16  17
ENDBRANCH  13  16
ENDBRANCH   2  10
BRANCH   1  24
ATOM     23  O   UNL     1       3.484   7.776  17.570  0.00  0.00    +0.000 OA
ATOM     24  C   UNL     1       2.604   7.409  18.338  0.00  0.00    +0.000 C 
BRANCH  24  25
ATOM     25  C   UNL     1       1.734   8.479  19.079  0.00  0.00    +0.000 A 
ATOM     26  C   UNL     1       1.520   8.397  20.466  0.00  0.00    +0.000 A 
ATOM     27  C   UNL     1       0.602   9.246  21.134  0.00  0.00    +0.000 A 
ATOM     28  C   UNL     1      -0.118  10.207  20.429  0.00  0.00    +0.000 A 
ATOM     29  C   UNL     1       0.155  10.386  19.081  0.00  0.00    +0.000 A 
ATOM     30  C   UNL     1       1.091   9.525  18.421  0.00  0.00    +0.000 A 
ENDBRANCH  24  25
ENDBRANCH   1  24
TORSDOF 5
ENDMDL
MODEL 2
REMARK VINA RESULT:      -9.6      0.747      1.151
REMARK  Name = 
REMARK  5 active torsions:
REMARK  status: ('A' for Active; 'I' for Inactive)
REMARK    1  A    between atoms: C_2  and  C_3
REMARK    2  A    between atoms: C_2  and  C_9
REMARK    3  A    between atoms: C_10  and  C_11
REMARK    4  A    between atoms: N_14  and  C_15
REMARK    5  A    between atoms: C_15  and  C_16
REMARK                            x       y       z     vdW  Elec       q    Type
REMARK                         _______ _______ _______ _____ _____    ______ ____
ROOT
ATOM      1  C   UNL     1       2.446   6.030  18.510  0.00  0.00    +0.000 A 
ATOM      2  C   UNL     1       3.227   5.076  17.885  0.00  0.00    +0.000 A 
ATOM      3  O   UNL     1       2.238   4.158  17.516  0.00  0.00    +0.000 OA
ATOM      4  C   UNL     1       1.570   4.023  18.709  0.00  0.00    +0.000 A 
ATOM      5  C   UNL     1       1.032   2.806  19.095  0.00  0.00    +0.000 A 
ATOM      6  C   UNL     1       1.387   2.450  20.389  0.00  0.00    +0.000 A 
ATOM      7  C   UNL     1       2.031   3.369  21.235  0.00  0.00    +0.000 A 
ATOM      8  C   UNL     1       2.247   4.732  20.864  0.00  0.00    +0.000 A 
ATOM      9  C   UNL     1       1.975   5.099  19.517  0.00  0.00    +0.000 A 
ENDROOT
BRANCH   2  10
ATOM     10  C   UNL     1       4.535   4.437  18.416  0.00  0.00    +0.000 C 
ATOM     11  C   UNL     1       5.725   5.387  18.386  0.00  0.00    +0.000 C 
ATOM     12  C   UNL     1       6.099   5.737  16.948  0.00  0.00    +0.000 C 
ATOM     13  N   UNL     1       6.196   4.564  16.029  0.00  0.00    +0.000 NA
ATOM     14  C   UNL     1       5.002   3.718  16.146  0.00  0.00    +0.000 C 
ATOM     15  C   UNL     1       4.858   3.225  17.585  0.00  0.00    +0.000 C 
BRANCH  13  16
ATOM     16  C   UNL     1       6.365   5.100  14.661  0.00  0.00    +0.000 C 
BRANCH  16  17
ATOM     17  C   UNL     1       6.159   4.229  13.430  0.00  0.00    +0.000 A 
ATOM     18  C   UNL     1       7.160   3.554  12.714  0.00  0.00    +0.000 A 
ATOM     19  C   UNL     1       6.846   2.616  11.727  0.00  0.00    +0.000 A 
ATOM     20  C   UNL     1       5.525   2.413  11.352  0.00  0.00    +0.000 A 
ATOM     21  C   UNL     1       4.519   3.154  11.973  0.00  0.00    +0.000 A 
ATOM     22  C   UNL     1       4.832   4.030  13.009  0.00  0.00    +0.000 A 
ENDBRANCH  16  17
ENDBRANCH  13  16
ENDBRANCH   2  10
BRANCH   1  24
ATOM     23  O   UNL     1       3.608   7.775  17.430  0.00  0.00    +0.000 OA
ATOM     24  C   UNL     1       2.693   7.428  18.167  0.00  0.00    +0.000 C 
BRANCH  24  25
ATOM     25  C   UNL     1       1.747   8.512  18.782  0.00  0.00    +0.000 A 
ATOM     26  C   UNL     1       1.474   8.530  20.162  0.00  0.00    +0.000 A 
ATOM     27  C   UNL     1       0.493   9.387  20.721  0.00  0.00    +0.000 A 
ATOM     28  C   UNL     1      -0.235  10.255  19.911  0.00  0.00    +0.000 A 
ATOM     29  C   UNL     1       0.090  10.340  18.565  0.00  0.00    +0.000 A 
ATOM     30  C   UNL     1       1.091   9.472  18.016  0.00  0.00    +0.000 A 
ENDBRANCH  24  25
ENDBRANCH   1  24
TORSDOF 5
ENDMDL
MODEL 3
REMARK VINA RESULT:      -9.6      0.421      1.278
REMARK  Name = 
REMARK  5 active torsions:
REMARK  status: ('A' for Active; 'I' for Inactive)
REMARK    1  A    between atoms: C_2  and  C_3
REMARK    2  A    between atoms: C_2  and  C_9
REMARK    3  A    between atoms: C_10  and  C_11
REMARK    4  A    between atoms: N_14  and  C_15
REMARK    5  A    between atoms: C_15  and  C_16
REMARK                            x       y       z     vdW  Elec       q    Type
REMARK                         _______ _______ _______ _____ _____    ______ ____
ROOT
ATOM      1  C   UNL     1       2.264   5.953  18.702  0.00  0.00    +0.000 A 
ATOM      2  C   UNL     1       3.199   5.082  18.173  0.00  0.00    +0.000 A 
ATOM      3  O   UNL     1       2.348   4.154  17.563  0.00  0.00    +0.000 OA
ATOM      4  C   UNL     1       1.478   3.902  18.596  0.00  0.00    +0.000 A 
ATOM      5  C   UNL     1       0.946   2.637  18.791  0.00  0.00    +0.000 A 
ATOM      6  C   UNL     1       1.074   2.199  20.102  0.00  0.00    +0.000 A 
ATOM      7  C   UNL     1       1.498   3.077  21.115  0.00  0.00    +0.000 A 
ATOM      8  C   UNL     1       1.704   4.472  20.884  0.00  0.00    +0.000 A 
ATOM      9  C   UNL     1       1.666   4.929  19.537  0.00  0.00    +0.000 A 
ENDROOT
BRANCH   2  10
ATOM     10  C   UNL     1       4.419   4.459  18.898  0.00  0.00    +0.000 C 
ATOM     11  C   UNL     1       5.531   5.463  19.178  0.00  0.00    +0.000 C 
ATOM     12  C   UNL     1       6.150   5.957  17.873  0.00  0.00    +0.000 C 
ATOM     13  N   UNL     1       6.495   4.878  16.900  0.00  0.00    +0.000 NA
ATOM     14  C   UNL     1       5.356   3.970  16.714  0.00  0.00    +0.000 C 
ATOM     15  C   UNL     1       4.971   3.343  18.054  0.00  0.00    +0.000 C 
BRANCH  13  16
ATOM     16  C   UNL     1       6.888   5.541  15.639  0.00  0.00    +0.000 C 
BRANCH  16  17
ATOM     17  C   UNL     1       6.642   4.893  14.284  0.00  0.00    +0.000 A 
ATOM     18  C   UNL     1       7.550   4.837  13.214  0.00  0.00    +0.000 A 
ATOM     19  C   UNL     1       7.307   4.041  12.092  0.00  0.00    +0.000 A 
ATOM     20  C   UNL     1       6.099   3.371  11.959  0.00  0.00    +0.000 A 
ATOM     21  C   UNL     1       5.135   3.500  12.959  0.00  0.00    +0.000 A 
ATOM     22  C   UNL     1       5.414   4.231  14.111  0.00  0.00    +0.000 A 
ENDBRANCH  16  17
ENDBRANCH  13  16
ENDBRANCH   2  10
BRANCH   1  24
ATOM     23  O   UNL     1       3.278   7.816  17.673  0.00  0.00    +0.000 OA
ATOM     24  C   UNL     1       2.493   7.382  18.506  0.00  0.00    +0.000 C 
BRANCH  24  25
ATOM     25  C   UNL     1       1.703   8.382  19.415  0.00  0.00    +0.000 A 
ATOM     26  C   UNL     1       1.181   9.576  18.886  0.00  0.00    +0.000 A 
ATOM     27  C   UNL     1       0.614  10.577  19.715  0.00  0.00    +0.000 A 
ATOM     28  C   UNL     1       0.547  10.402  21.095  0.00  0.00    +0.000 A 
ATOM     29  C   UNL     1       0.951   9.188  21.632  0.00  0.00    +0.000 A 
ATOM     30  C   UNL     1       1.516   8.183  20.780  0.00  0.00    +0.000 A 
ENDBRANCH  24  25
ENDBRANCH   1  24
TORSDOF 5
ENDMDL
MODEL 4
REMARK VINA RESULT:      -9.4      0.900      1.317
REMARK  Name = 
REMARK  5 active torsions:
REMARK  status: ('A' for Active; 'I' for Inactive)
REMARK    1  A    between atoms: C_2  and  C_3
REMARK    2  A    between atoms: C_2  and  C_9
REMARK    3  A    between atoms: C_10  and  C_11
REMARK    4  A    between atoms: N_14  and  C_15
REMARK    5  A    between atoms: C_15  and  C_16
REMARK                            x       y       z     vdW  Elec       q    Type
REMARK                         _______ _______ _______ _____ _____    ______ ____
ROOT
ATOM      1  C   UNL     1       2.086   6.214  19.275  0.00  0.00    +0.000 A 
ATOM      2  C   UNL     1       2.886   5.400  18.495  0.00  0.00    +0.000 A 
ATOM      3  O   UNL     1       1.943   4.450  18.090  0.00  0.00    +0.000 OA
ATOM      4  C   UNL     1       1.378   4.133  19.301  0.00  0.00    +0.000 A 
ATOM      5  C   UNL     1       0.962   2.841  19.582  0.00  0.00    +0.000 A 
ATOM      6  C   UNL     1       1.438   2.377  20.800  0.00  0.00    +0.000 A 
ATOM      7  C   UNL     1       2.074   3.248  21.701  0.00  0.00    +0.000 A 
ATOM      8  C   UNL     1       2.161   4.657  21.474  0.00  0.00    +0.000 A 
ATOM      9  C   UNL     1       1.762   5.144  20.199  0.00  0.00    +0.000 A 
ENDROOT
BRANCH   2  10
ATOM     10  C   UNL     1       4.274   4.816  18.862  0.00  0.00    +0.000 C 
ATOM     11  C   UNL     1       5.421   5.790  18.620  0.00  0.00    +0.000 C 
ATOM     12  C   UNL     1       5.577   6.078  17.129  0.00  0.00    +0.000 C 
ATOM     13  N   UNL     1       5.576   4.864  16.258  0.00  0.00    +0.000 NA
ATOM     14  C   UNL     1       4.435   3.999  16.583  0.00  0.00    +0.000 C 
ATOM     15  C   UNL     1       4.511   3.573  18.049  0.00  0.00    +0.000 C 
BRANCH  13  16
ATOM     16  C   UNL     1       5.534   5.336  14.858  0.00  0.00    +0.000 C 
BRANCH  16  17
ATOM     17  C   UNL     1       5.830   4.406  13.691  0.00  0.00    +0.000 A 
ATOM     18  C   UNL     1       4.894   3.621  12.998  0.00  0.00    +0.000 A 
ATOM     19  C   UNL     1       5.229   2.962  11.812  0.00  0.00    +0.000 A 
ATOM     20  C   UNL     1       6.538   2.978  11.350  0.00  0.00    +0.000 A 
ATOM     21  C   UNL     1       7.510   3.661  12.082  0.00  0.00    +0.000 A 
ATOM     22  C   UNL     1       7.154   4.380  13.220  0.00  0.00    +0.000 A 
ENDBRANCH  16  17
ENDBRANCH  13  16
ENDBRANCH   2  10
BRANCH   1  24
ATOM     23  O   UNL     1       2.918   8.149  18.215  0.00  0.00    +0.000 OA
ATOM     24  C   UNL     1       2.203   7.656  19.078  0.00  0.00    +0.000 C 
BRANCH  24  25
ATOM     25  C   UNL     1       1.382   8.594  20.024  0.00  0.00    +0.000 A 
ATOM     26  C   UNL     1       0.675   9.695  19.509  0.00  0.00    +0.000 A 
ATOM     27  C   UNL     1       0.067  10.657  20.355  0.00  0.00    +0.000 A 
ATOM     28  C   UNL     1       0.144  10.534  21.740  0.00  0.00    +0.000 A 
ATOM     29  C   UNL     1       0.737   9.400  22.275  0.00  0.00    +0.000 A 
ATOM     30  C   UNL     1       1.342   8.433  21.407  0.00  0.00    +0.000 A 
ENDBRANCH  24  25
ENDBRANCH   1  24
TORSDOF 5
ENDMDL
MODEL 5
REMARK VINA RESULT:      -8.4      1.002      1.280
REMARK  Name = 
REMARK  5 active torsions:
REMARK  status: ('A' for Active; 'I' for Inactive)
REMARK    1  A    between atoms: C_2  and  C_3
REMARK    2  A    between atoms: C_2  and  C_9
REMARK    3  A    between atoms: C_10  and  C_11
REMARK    4  A    between atoms: N_14  and  C_15
REMARK    5  A    between atoms: C_15  and  C_16
REMARK                            x       y       z     vdW  Elec       q    Type
REMARK                         _______ _______ _______ _____ _____    ______ ____
ROOT
ATOM      1  C   UNL     1       1.996   6.294  19.469  0.00  0.00    +0.000 A 
ATOM      2  C   UNL     1       2.747   5.487  18.635  0.00  0.00    +0.000 A 
ATOM      3  O   UNL     1       1.785   4.531  18.294  0.00  0.00    +0.000 OA
ATOM      4  C   UNL     1       1.306   4.208  19.541  0.00  0.00    +0.000 A 
ATOM      5  C   UNL     1       0.920   2.912  19.846  0.00  0.00    +0.000 A 
ATOM      6  C   UNL     1       1.482   2.450  21.028  0.00  0.00    +0.000 A 
ATOM      7  C   UNL     1       2.172   3.326  21.885  0.00  0.00    +0.000 A 
ATOM      8  C   UNL     1       2.233   4.735  21.655  0.00  0.00    +0.000 A 
ATOM      9  C   UNL     1       1.744   5.221  20.411  0.00  0.00    +0.000 A 
ENDROOT
BRANCH   2  10
ATOM     10  C   UNL     1       4.161   4.913  18.904  0.00  0.00    +0.000 C 
ATOM     11  C   UNL     1       5.277   5.743  18.283  0.00  0.00    +0.000 C 
ATOM     12  C   UNL     1       5.197   5.697  16.759  0.00  0.00    +0.000 C 
ATOM     13  N   UNL     1       5.025   4.329  16.187  0.00  0.00    +0.000 NA
ATOM     14  C   UNL     1       3.930   3.622  16.863  0.00  0.00    +0.000 C 
ATOM     15  C   UNL     1       4.232   3.514  18.358  0.00  0.00    +0.000 C 
BRANCH  13  16
ATOM     16  C   UNL     1       4.768   4.494  14.740  0.00  0.00    +0.000 C 
BRANCH  16  17
ATOM     17  C   UNL     1       5.857   4.264  13.703  0.00  0.00    +0.000 A 
ATOM     18  C   UNL     1       5.819   3.333  12.652  0.00  0.00    +0.000 A 
ATOM     19  C   UNL     1       6.775   3.344  11.633  0.00  0.00    +0.000 A 
ATOM     20  C   UNL     1       7.857   4.210  11.699  0.00  0.00    +0.000 A 
ATOM     21  C   UNL     1       7.976   5.068  12.792  0.00  0.00    +0.000 A 
ATOM     22  C   UNL     1       6.979   5.108  13.763  0.00  0.00    +0.000 A 
ENDBRANCH  16  17
ENDBRANCH  13  16
ENDBRANCH   2  10
BRANCH   1  24
ATOM     23  O   UNL     1       2.754   8.237  18.369  0.00  0.00    +0.000 OA
ATOM     24  C   UNL     1       2.089   7.738  19.267  0.00  0.00    +0.000 C 
BRANCH  24  25
ATOM     25  C   UNL     1       1.308   8.668  20.255  0.00  0.00    +0.000 A 
ATOM     26  C   UNL     1       1.387   8.470  21.645  0.00  0.00    +0.000 A 
ATOM     27  C   UNL     1       0.561   9.181  22.551  0.00  0.00    +0.000 A 
ATOM     28  C   UNL     1      -0.360  10.118  22.088  0.00  0.00    +0.000 A 
ATOM     29  C   UNL     1      -0.381  10.415  20.732  0.00  0.00    +0.000 A 
ATOM     30  C   UNL     1       0.465   9.692  19.829  0.00  0.00    +0.000 A 
ENDBRANCH  24  25
ENDBRANCH   1  24
TORSDOF 5
ENDMDL
MODEL 6
REMARK VINA RESULT:      -8.3      2.913      4.510
REMARK  Name = 
REMARK  5 active torsions:
REMARK  status: ('A' for Active; 'I' for Inactive)
REMARK    1  A    between atoms: C_2  and  C_3
REMARK    2  A    between atoms: C_2  and  C_9
REMARK    3  A    between atoms: C_10  and  C_11
REMARK    4  A    between atoms: N_14  and  C_15
REMARK    5  A    between atoms: C_15  and  C_16
REMARK                            x       y       z     vdW  Elec       q    Type
REMARK                         _______ _______ _______ _____ _____    ______ ____
ROOT
ATOM      1  C   UNL     1       3.687   5.449  17.692  0.00  0.00    +0.000 A 
ATOM      2  C   UNL     1       4.851   4.840  17.262  0.00  0.00    +0.000 A 
ATOM      3  O   UNL     1       4.313   3.756  16.560  0.00  0.00    +0.000 OA
ATOM      4  C   UNL     1       3.428   3.275  17.494  0.00  0.00    +0.000 A 
ATOM      5  C   UNL     1       3.195   1.915  17.626  0.00  0.00    +0.000 A 
ATOM      6  C   UNL     1       3.289   1.480  18.941  0.00  0.00    +0.000 A 
ATOM      7  C   UNL     1       3.386   2.403  19.996  0.00  0.00    +0.000 A 
ATOM      8  C   UNL     1       3.276   3.814  19.795  0.00  0.00    +0.000 A 
ATOM      9  C   UNL     1       3.269   4.288  18.454  0.00  0.00    +0.000 A 
ENDROOT
BRANCH   2  10
ATOM     10  C   UNL     1       6.104   4.502  18.109  0.00  0.00    +0.000 C 
ATOM     11  C   UNL     1       6.304   5.443  19.291  0.00  0.00    +0.000 C 
ATOM     12  C   UNL     1       6.616   6.857  18.806  0.00  0.00    +0.000 C 
ATOM     13  N   UNL     1       7.664   6.933  17.745  0.00  0.00    +0.000 NA
ATOM     14  C   UNL     1       7.373   5.983  16.665  0.00  0.00    +0.000 C 
ATOM     15  C   UNL     1       7.321   4.562  17.227  0.00  0.00    +0.000 C 
BRANCH  13  16
ATOM     16  C   UNL     1       7.691   8.331  17.263  0.00  0.00    +0.000 C 
BRANCH  16  17
ATOM     17  C   UNL     1       8.333   9.445  18.075  0.00  0.00    +0.000 A 
ATOM     18  C   UNL     1       9.017   9.296  19.293  0.00  0.00    +0.000 A 
ATOM     19  C   UNL     1       9.748  10.347  19.853  0.00  0.00    +0.000 A 
ATOM     20  C   UNL     1       9.721  11.605  19.269  0.00  0.00    +0.000 A 
ATOM     21  C   UNL     1       8.959  11.806  18.118  0.00  0.00    +0.000 A 
ATOM     22  C   UNL     1       8.296  10.737  17.522  0.00  0.00    +0.000 A 
ENDBRANCH  16  17
ENDBRANCH  13  16
ENDBRANCH   2  10
BRANCH   1  24
ATOM     23  O   UNL     1       4.283   7.521  16.737  0.00  0.00    +0.000 OA
ATOM     24  C   UNL     1       3.588   6.897  17.528  0.00  0.00    +0.000 C 
BRANCH  24  25
ATOM     25  C   UNL     1       2.553   7.665  18.416  0.00  0.00    +0.000 A 
ATOM     26  C   UNL     1       1.869   8.788  17.916  0.00  0.00    +0.000 A 
ATOM     27  C   UNL     1       1.059   9.603  18.746  0.00  0.00    +0.000 A 
ATOM     28  C   UNL     1       0.906   9.308  20.099  0.00  0.00    +0.000 A 
ATOM     29  C   UNL     1       1.478   8.145  20.594  0.00  0.00    +0.000 A 
ATOM     30  C   UNL     1       2.288   7.327  19.741  0.00  0.00    +0.000 A 
ENDBRANCH  24  25
ENDBRANCH   1  24
TORSDOF 5
ENDMDL
MODEL 7
REMARK VINA RESULT:      -8.0      4.947      9.461
REMARK  Name = 
REMARK  5 active torsions:
REMARK  status: ('A' for Active; 'I' for Inactive)
REMARK    1  A    between atoms: C_2  and  C_3
REMARK    2  A    between atoms: C_2  and  C_9
REMARK    3  A    between atoms: C_10  and  C_11
REMARK    4  A    between atoms: N_14  and  C_15
REMARK    5  A    between atoms: C_15  and  C_16
REMARK                            x       y       z     vdW  Elec       q    Type
REMARK                         _______ _______ _______ _____ _____    ______ ____
ROOT
ATOM      1  C   UNL     1      -0.583  10.724  19.759  0.00  0.00    +0.000 A 
ATOM      2  C   UNL     1      -0.632  12.101  19.654  0.00  0.00    +0.000 A 
ATOM      3  O   UNL     1      -1.986  12.317  19.931  0.00  0.00    +0.000 OA
ATOM      4  C   UNL     1      -2.559  11.405  19.079  0.00  0.00    +0.000 A 
ATOM      5  C   UNL     1      -3.759  11.677  18.440  0.00  0.00    +0.000 A 
ATOM      6  C   UNL     1      -3.706  11.436  17.074  0.00  0.00    +0.000 A 
ATOM      7  C   UNL     1      -2.603  10.776  16.504  0.00  0.00    +0.000 A 
ATOM      8  C   UNL     1      -1.550  10.220  17.294  0.00  0.00    +0.000 A 
ATOM      9  C   UNL     1      -1.534  10.529  18.682  0.00  0.00    +0.000 A 
ENDROOT
BRANCH   2  10
ATOM     10  C   UNL     1      -0.059  12.978  18.512  0.00  0.00    +0.000 C 
ATOM     11  C   UNL     1       1.413  12.707  18.225  0.00  0.00    +0.000 C 
ATOM     12  C   UNL     1       2.278  13.121  19.413  0.00  0.00    +0.000 C 
ATOM     13  N   UNL     1       1.974  14.477  19.961  0.00  0.00    +0.000 NA
ATOM     14  C   UNL     1       0.532  14.626  20.192  0.00  0.00    +0.000 C 
ATOM     15  C   UNL     1      -0.225  14.427  18.879  0.00  0.00    +0.000 C 
BRANCH  13  16
ATOM     16  C   UNL     1       2.754  14.624  21.208  0.00  0.00    +0.000 C 
BRANCH  16  17
ATOM     17  C   UNL     1       4.276  14.616  21.205  0.00  0.00    +0.000 A 
ATOM     18  C   UNL     1       5.107  15.212  20.243  0.00  0.00    +0.000 A 
ATOM     19  C   UNL     1       6.485  15.328  20.440  0.00  0.00    +0.000 A 
ATOM     20  C   UNL     1       7.083  14.750  21.551  0.00  0.00    +0.000 A 
ATOM     21  C   UNL     1       6.291  14.056  22.466  0.00  0.00    +0.000 A 
ATOM     22  C   UNL     1       4.909  14.011  22.305  0.00  0.00    +0.000 A 
ENDBRANCH  16  17
ENDBRANCH  13  16
ENDBRANCH   2  10
BRANCH   1  24
ATOM     23  O   UNL     1       0.806  10.532  21.655  0.00  0.00    +0.000 OA
ATOM     24  C   UNL     1       0.517  10.149  20.529  0.00  0.00    +0.000 C 
BRANCH  24  25
ATOM     25  C   UNL     1       1.356   9.005  19.867  0.00  0.00    +0.000 A 
ATOM     26  C   UNL     1       1.785   9.108  18.532  0.00  0.00    +0.000 A 
ATOM     27  C   UNL     1       2.394   8.021  17.854  0.00  0.00    +0.000 A 
ATOM     28  C   UNL     1       2.596   6.805  18.502  0.00  0.00    +0.000 A 
ATOM     29  C   UNL     1       2.286   6.710  19.851  0.00  0.00    +0.000 A 
ATOM     30  C   UNL     1       1.677   7.820  20.524  0.00  0.00    +0.000 A 
ENDBRANCH  24  25
ENDBRANCH   1  24
TORSDOF 5
ENDMDL
MODEL 8
REMARK VINA RESULT:      -8.0      2.231      7.824
REMARK  Name = 
REMARK  5 active torsions:
REMARK  status: ('A' for Active; 'I' for Inactive)
REMARK    1  A    between atoms: C_2  and  C_3
REMARK    2  A    between atoms: C_2  and  C_9
REMARK    3  A    between atoms: C_10  and  C_11
REMARK    4  A    between atoms: N_14  and  C_15
REMARK    5  A    between atoms: C_15  and  C_16
REMARK                            x       y       z     vdW  Elec       q    Type
REMARK                         _______ _______ _______ _____ _____    ______ ____
ROOT
ATOM      1  C   UNL     1       4.591   4.378  19.373  0.00  0.00    +0.000 A 
ATOM      2  C   UNL     1       3.531   5.196  19.720  0.00  0.00    +0.000 A 
ATOM      3  O   UNL     1       3.126   4.576  20.907  0.00  0.00    +0.000 OA
ATOM      4  C   UNL     1       3.056   3.269  20.491  0.00  0.00    +0.000 A 
ATOM      5  C   UNL     1       2.083   2.412  20.980  0.00  0.00    +0.000 A 
ATOM      6  C   UNL     1       1.410   1.734  19.973  0.00  0.00    +0.000 A 
ATOM      7  C   UNL     1       1.867   1.784  18.645  0.00  0.00    +0.000 A 
ATOM      8  C   UNL     1       3.091   2.424  18.278  0.00  0.00    +0.000 A 
ATOM      9  C   UNL     1       3.751   3.200  19.271  0.00  0.00    +0.000 A 
ENDROOT
BRANCH   2  10
ATOM     10  C   UNL     1       2.370   5.667  18.808  0.00  0.00    +0.000 C 
ATOM     11  C   UNL     1       2.521   7.107  18.335  0.00  0.00    +0.000 C 
ATOM     12  C   UNL     1       2.418   8.074  19.513  0.00  0.00    +0.000 C 
ATOM     13  N   UNL     1       1.264   7.820  20.426  0.00  0.00    +0.000 NA
ATOM     14  C   UNL     1       1.214   6.404  20.810  0.00  0.00    +0.000 C 
ATOM     15  C   UNL     1       1.074   5.534  19.560  0.00  0.00    +0.000 C 
BRANCH  13  16
ATOM     16  C   UNL     1       1.435   8.707  21.596  0.00  0.00    +0.000 C 
BRANCH  16  17
ATOM     17  C   UNL     1       0.455   9.830  21.899  0.00  0.00    +0.000 A 
ATOM     18  C   UNL     1      -0.560   9.808  22.869  0.00  0.00    +0.000 A 
ATOM     19  C   UNL     1      -1.269  10.962  23.211  0.00  0.00    +0.000 A 
ATOM     20  C   UNL     1      -1.062  12.142  22.510  0.00  0.00    +0.000 A 
ATOM     21  C   UNL     1      -0.138  12.160  21.466  0.00  0.00    +0.000 A 
ATOM     22  C   UNL     1       0.622  11.028  21.183  0.00  0.00    +0.000 A 
ENDBRANCH  16  17
ENDBRANCH  13  16
ENDBRANCH   2  10
BRANCH   1  24
ATOM     23  O   UNL     1       6.643   5.475  19.754  0.00  0.00    +0.000 OA
ATOM     24  C   UNL     1       5.830   5.028  18.955  0.00  0.00    +0.000 C 
BRANCH  24  25
ATOM     25  C   UNL     1       6.109   5.157  17.421  0.00  0.00    +0.000 A 
ATOM     26  C   UNL     1       5.249   5.901  16.593  0.00  0.00    +0.000 A 
ATOM     27  C   UNL     1       5.377   5.895  15.181  0.00  0.00    +0.000 A 
ATOM     28  C   UNL     1       6.377   5.149  14.562  0.00  0.00    +0.000 A 
ATOM     29  C   UNL     1       7.308   4.496  15.357  0.00  0.00    +0.000 A 
ATOM     30  C   UNL     1       7.170   4.517  16.784  0.00  0.00    +0.000 A 
ENDBRANCH  24  25
ENDBRANCH   1  24
TORSDOF 5
ENDMDL
MODEL 9
REMARK VINA RESULT:      -7.9      4.870      9.389
REMARK  Name = 
REMARK  5 active torsions:
REMARK  status: ('A' for Active; 'I' for Inactive)
REMARK    1  A    between atoms: C_2  and  C_3
REMARK    2  A    between atoms: C_2  and  C_9
REMARK    3  A    between atoms: C_10  and  C_11
REMARK    4  A    between atoms: N_14  and  C_15
REMARK    5  A    between atoms: C_15  and  C_16
REMARK                            x       y       z     vdW  Elec       q    Type
REMARK                         _______ _______ _______ _____ _____    ______ ____
ROOT
ATOM      1  C   UNL     1      -0.634  10.690  19.692  0.00  0.00    +0.000 A 
ATOM      2  C   UNL     1      -0.675  12.071  19.655  0.00  0.00    +0.000 A 
ATOM      3  O   UNL     1      -2.019  12.282  19.980  0.00  0.00    +0.000 OA
ATOM      4  C   UNL     1      -2.623  11.417  19.101  0.00  0.00    +0.000 A 
ATOM      5  C   UNL     1      -3.838  11.728  18.511  0.00  0.00    +0.000 A 
ATOM      6  C   UNL     1      -3.825  11.553  17.134  0.00  0.00    +0.000 A 
ATOM      7  C   UNL     1      -2.745  10.915  16.502  0.00  0.00    +0.000 A 
ATOM      8  C   UNL     1      -1.674  10.314  17.233  0.00  0.00    +0.000 A 
ATOM      9  C   UNL     1      -1.617  10.554  18.634  0.00  0.00    +0.000 A 
ENDROOT
BRANCH   2  10
ATOM     10  C   UNL     1      -0.127  12.999  18.542  0.00  0.00    +0.000 C 
ATOM     11  C   UNL     1       1.335  12.735  18.202  0.00  0.00    +0.000 C 
ATOM     12  C   UNL     1       2.234  13.087  19.385  0.00  0.00    +0.000 C 
ATOM     13  N   UNL     1       1.953  14.416  20.005  0.00  0.00    +0.000 NA
ATOM     14  C   UNL     1       0.518  14.562  20.282  0.00  0.00    +0.000 C 
ATOM     15  C   UNL     1      -0.274  14.430  18.982  0.00  0.00    +0.000 C 
BRANCH  13  16
ATOM     16  C   UNL     1       2.767  14.499  21.237  0.00  0.00    +0.000 C 
BRANCH  16  17
ATOM     17  C   UNL     1       4.273  14.712  21.187  0.00  0.00    +0.000 A 
ATOM     18  C   UNL     1       5.207  14.255  22.130  0.00  0.00    +0.000 A 
ATOM     19  C   UNL     1       6.582  14.321  21.887  0.00  0.00    +0.000 A 
ATOM     20  C   UNL     1       7.060  14.950  20.747  0.00  0.00    +0.000 A 
ATOM     21  C   UNL     1       6.153  15.511  19.848  0.00  0.00    +0.000 A 
ATOM     22  C   UNL     1       4.783  15.373  20.056  0.00  0.00    +0.000 A 
ENDBRANCH  16  17
ENDBRANCH  13  16
ENDBRANCH   2  10
BRANCH   1  24
ATOM     23  O   UNL     1       0.826  10.418  21.523  0.00  0.00    +0.000 OA
ATOM     24  C   UNL     1       0.483  10.070  20.400  0.00  0.00    +0.000 C 
BRANCH  24  25
ATOM     25  C   UNL     1       1.265   8.925  19.676  0.00  0.00    +0.000 A 
ATOM     26  C   UNL     1       1.588   7.735  20.352  0.00  0.00    +0.000 A 
ATOM     27  C   UNL     1       2.440   6.756  19.781  0.00  0.00    +0.000 A 
ATOM     28  C   UNL     1       2.984   6.942  18.512  0.00  0.00    +0.000 A 
ATOM     29  C   UNL     1       2.594   8.052  17.778  0.00  0.00    +0.000 A 
ATOM     30  C   UNL     1       1.726   9.029  18.366  0.00  0.00    +0.000 A 
ENDBRANCH  24  25
ENDBRANCH   1  24
TORSDOF 5
ENDMDL
