MODEL 1
REMARK VINA RESULT:      -8.6      0.000      0.000
REMARK  Name = 
REMARK  5 active torsions:
REMARK  status: ('A' for Active; 'I' for Inactive)
REMARK    1  A    between atoms: N_3  and  C_4
REMARK    2  A    between atoms: C_4  and  C_5
REMARK    3  A    between atoms: C_8  and  C_9
REMARK    4  A    between atoms: C_21  and  O_22
REMARK    5  A    between atoms: C_21  and  C_23
REMARK                            x       y       z     vdW  Elec       q    Type
REMARK                         _______ _______ _______ _____ _____    ______ ____
ROOT
ATOM      1  O   UNL     1       1.686   9.524  17.511  0.00  0.00    +0.000 OA
ATOM      2  C   UNL     1       1.271   9.659  18.655  0.00  0.00    +0.000 C 
ATOM      3  N   UNL     1       1.694   8.920  19.775  0.00  0.00    +0.000 N 
ATOM      4  C   UNL     1       0.953   9.270  20.918  0.00  0.00    +0.000 A 
ATOM      5  C   UNL     1       1.044   8.759  22.203  0.00  0.00    +0.000 A 
ATOM      6  C   UNL     1       0.163   9.254  23.172  0.00  0.00    +0.000 A 
ATOM      7  C   UNL     1      -0.790  10.234  22.849  0.00  0.00    +0.000 A 
ATOM      8  C   UNL     1      -0.874  10.739  21.552  0.00  0.00    +0.000 A 
ATOM      9  C   UNL     1       0.011  10.249  20.600  0.00  0.00    +0.000 A 
ATOM     10  C   UNL     1       0.131  10.634  19.142  0.00  0.00    +0.000 C 
ENDROOT
BRANCH  10  11
ATOM     11  C   UNL     1       0.515  12.100  18.941  0.00  0.00    +0.000 A 
ATOM     12  C   UNL     1      -0.469  13.106  18.774  0.00  0.00    +0.000 A 
ATOM     13  C   UNL     1      -0.119  14.443  18.547  0.00  0.00    +0.000 A 
ATOM     14  C   UNL     1       1.221  14.752  18.490  0.00  0.00    +0.000 A 
ATOM     15  C   UNL     1       2.190  13.798  18.679  0.00  0.00    +0.000 A 
ATOM     16  C   UNL     1       1.876  12.477  18.917  0.00  0.00    +0.000 A 
ATOM     17  O   UNL     1       3.448  14.307  18.588  0.00  0.00    +0.000 OA
ATOM     18  C   UNL     1       3.158  15.678  18.250  0.00  0.00    +0.000 C 
ATOM     19  O   UNL     1       1.747  15.982  18.246  0.00  0.00    +0.000 OA
ENDBRANCH  10  11
BRANCH  10  20
ATOM     20  O   UNL     1      -1.102  10.327  18.492  0.00  0.00    +0.000 OA
ATOM     21  H   UNL     1      -0.894   9.686  17.791  0.00  0.00    +0.000 HD
ENDBRANCH  10  20
BRANCH   3  22
ATOM     22  C   UNL     1       2.752   7.932  19.714  0.00  0.00    +0.000 C 
BRANCH  22  23
ATOM     23  C   UNL     1       2.231   6.538  19.431  0.00  0.00    +0.000 A 
ATOM     24  C   UNL     1       1.774   5.721  20.473  0.00  0.00    +0.000 A 
ATOM     25  C   UNL     1       1.429   4.388  20.235  0.00  0.00    +0.000 A 
ATOM     26  C   UNL     1       1.529   3.843  18.947  0.00  0.00    +0.000 A 
ATOM     27  C   UNL     1       1.899   4.685  17.888  0.00  0.00    +0.000 A 
ATOM     28  C   UNL     1       2.252   6.017  18.129  0.00  0.00    +0.000 A 
BRANCH  26  29
ATOM     29  C   UNL     1       1.307   2.369  18.708  0.00  0.00    +0.000 C 
ATOM     30  F   UNL     1       2.005   1.879  17.646  0.00  0.00    +0.000 F 
ATOM     31  F   UNL     1       1.659   1.599  19.773  0.00  0.00    +0.000 F 
ATOM     32  F   UNL     1       0.000   2.079  18.453  0.00  0.00    +0.000 F 
ENDBRANCH  26  29
ENDBRANCH  22  23
ENDBRANCH   3  22
TORSDOF 5
ENDMDL
MODEL 2
REMARK VINA RESULT:      -8.5      3.874      6.020
REMARK  Name = 
REMARK  5 active torsions:
REMARK  status: ('A' for Active; 'I' for Inactive)
REMARK    1  A    between atoms: N_3  and  C_4
REMARK    2  A    between atoms: C_4  and  C_5
REMARK    3  A    between atoms: C_8  and  C_9
REMARK    4  A    between atoms: C_21  and  O_22
REMARK    5  A    between atoms: C_21  and  C_23
REMARK                            x       y       z     vdW  Elec       q    Type
REMARK                         _______ _______ _______ _____ _____    ______ ____
ROOT
ATOM      1  O   UNL     1       4.096   7.381  17.268  0.00  0.00    +0.000 OA
ATOM      2  C   UNL     1       3.675   6.539  18.052  0.00  0.00    +0.000 C 
ATOM      3  N   UNL     1       4.411   5.459  18.570  0.00  0.00    +0.000 N 
ATOM      4  C   UNL     1       3.601   4.637  19.375  0.00  0.00    +0.000 A 
ATOM      5  C   UNL     1       3.937   3.470  20.041  0.00  0.00    +0.000 A 
ATOM      6  C   UNL     1       2.932   2.809  20.759  0.00  0.00    +0.000 A 
ATOM      7  C   UNL     1       1.621   3.311  20.795  0.00  0.00    +0.000 A 
ATOM      8  C   UNL     1       1.294   4.485  20.118  0.00  0.00    +0.000 A 
ATOM      9  C   UNL     1       2.300   5.139  19.417  0.00  0.00    +0.000 A 
ATOM     10  C   UNL     1       2.208   6.419  18.617  0.00  0.00    +0.000 C 
ENDROOT
BRANCH  10  11
ATOM     11  C   UNL     1       1.828   7.631  19.469  0.00  0.00    +0.000 A 
ATOM     12  C   UNL     1       1.706   7.536  20.877  0.00  0.00    +0.000 A 
ATOM     13  C   UNL     1       1.318   8.634  21.655  0.00  0.00    +0.000 A 
ATOM     14  C   UNL     1       1.054   9.817  21.004  0.00  0.00    +0.000 A 
ATOM     15  C   UNL     1       1.195   9.939  19.644  0.00  0.00    +0.000 A 
ATOM     16  C   UNL     1       1.589   8.879  18.854  0.00  0.00    +0.000 A 
ATOM     17  O   UNL     1       0.892  11.187  19.196  0.00  0.00    +0.000 OA
ATOM     18  C   UNL     1       0.477  11.817  20.426  0.00  0.00    +0.000 C 
ATOM     19  O   UNL     1       0.634  10.973  21.585  0.00  0.00    +0.000 OA
ENDBRANCH  10  11
BRANCH  10  20
ATOM     20  O   UNL     1       1.276   6.221  17.554  0.00  0.00    +0.000 OA
ATOM     21  H   UNL     1       1.784   6.273  16.727  0.00  0.00    +0.000 HD
ENDBRANCH  10  20
BRANCH   3  22
ATOM     22  C   UNL     1       5.816   5.250  18.282  0.00  0.00    +0.000 C 
BRANCH  22  23
ATOM     23  C   UNL     1       6.054   4.753  16.872  0.00  0.00    +0.000 A 
ATOM     24  C   UNL     1       6.987   5.383  16.039  0.00  0.00    +0.000 A 
ATOM     25  C   UNL     1       7.105   5.019  14.695  0.00  0.00    +0.000 A 
ATOM     26  C   UNL     1       6.293   4.013  14.154  0.00  0.00    +0.000 A 
ATOM     27  C   UNL     1       5.424   3.319  15.008  0.00  0.00    +0.000 A 
ATOM     28  C   UNL     1       5.301   3.690  16.351  0.00  0.00    +0.000 A 
BRANCH  26  29
ATOM     29  C   UNL     1       6.305   3.719  12.673  0.00  0.00    +0.000 C 
ATOM     30  F   UNL     1       7.152   4.519  11.968  0.00  0.00    +0.000 F 
ATOM     31  F   UNL     1       6.674   2.441  12.387  0.00  0.00    +0.000 F 
ATOM     32  F   UNL     1       5.079   3.891  12.104  0.00  0.00    +0.000 F 
ENDBRANCH  26  29
ENDBRANCH  22  23
ENDBRANCH   3  22
TORSDOF 5
ENDMDL
MODEL 3
REMARK VINA RESULT:      -8.5      0.601      1.284
REMARK  Name = 
REMARK  5 active torsions:
REMARK  status: ('A' for Active; 'I' for Inactive)
REMARK    1  A    between atoms: N_3  and  C_4
REMARK    2  A    between atoms: C_4  and  C_5
REMARK    3  A    between atoms: C_8  and  C_9
REMARK    4  A    between atoms: C_21  and  O_22
REMARK    5  A    between atoms: C_21  and  C_23
REMARK                            x       y       z     vdW  Elec       q    Type
REMARK                         _______ _______ _______ _____ _____    ______ ____
ROOT
ATOM      1  O   UNL     1       1.864   9.470  17.450  0.00  0.00    +0.000 OA
ATOM      2  C   UNL     1       1.414   9.628  18.578  0.00  0.00    +0.000 C 
ATOM      3  N   UNL     1       1.781   8.893  19.719  0.00  0.00    +0.000 N 
ATOM      4  C   UNL     1       1.010   9.274  20.832  0.00  0.00    +0.000 A 
ATOM      5  C   UNL     1       1.045   8.775  22.125  0.00  0.00    +0.000 A 
ATOM      6  C   UNL     1       0.143   9.302  23.058  0.00  0.00    +0.000 A 
ATOM      7  C   UNL     1      -0.775  10.301  22.692  0.00  0.00    +0.000 A 
ATOM      8  C   UNL     1      -0.802  10.792  21.387  0.00  0.00    +0.000 A 
ATOM      9  C   UNL     1       0.103  10.270  20.471  0.00  0.00    +0.000 A 
ATOM     10  C   UNL     1       0.281  10.635  19.015  0.00  0.00    +0.000 C 
ENDROOT
BRANCH  10  11
ATOM     11  C   UNL     1       0.706  12.090  18.810  0.00  0.00    +0.000 A 
ATOM     12  C   UNL     1       2.062  12.442  18.601  0.00  0.00    +0.000 A 
ATOM     13  C   UNL     1       2.458  13.777  18.455  0.00  0.00    +0.000 A 
ATOM     14  C   UNL     1       1.482  14.745  18.523  0.00  0.00    +0.000 A 
ATOM     15  C   UNL     1       0.158  14.423  18.695  0.00  0.00    +0.000 A 
ATOM     16  C   UNL     1      -0.263  13.117  18.828  0.00  0.00    +0.000 A 
ATOM     17  O   UNL     1      -0.646  15.520  18.730  0.00  0.00    +0.000 OA
ATOM     18  C   UNL     1       0.335  16.572  18.631  0.00  0.00    +0.000 C 
ATOM     19  O   UNL     1       1.681  16.088  18.438  0.00  0.00    +0.000 OA
ENDBRANCH  10  11
BRANCH  10  20
ATOM     20  O   UNL     1      -0.936  10.350  18.326  0.00  0.00    +0.000 OA
ATOM     21  H   UNL     1      -0.813   9.489  17.892  0.00  0.00    +0.000 HD
ENDBRANCH  10  20
BRANCH   3  22
ATOM     22  C   UNL     1       2.817   7.880  19.706  0.00  0.00    +0.000 C 
BRANCH  22  23
ATOM     23  C   UNL     1       2.273   6.496  19.422  0.00  0.00    +0.000 A 
ATOM     24  C   UNL     1       1.789   5.690  20.462  0.00  0.00    +0.000 A 
ATOM     25  C   UNL     1       1.422   4.363  20.225  0.00  0.00    +0.000 A 
ATOM     26  C   UNL     1       1.525   3.812  18.940  0.00  0.00    +0.000 A 
ATOM     27  C   UNL     1       1.922   4.643  17.883  0.00  0.00    +0.000 A 
ATOM     28  C   UNL     1       2.298   5.969  18.123  0.00  0.00    +0.000 A 
BRANCH  26  29
ATOM     29  C   UNL     1       1.278   2.341  18.705  0.00  0.00    +0.000 C 
ATOM     30  F   UNL     1       1.964   1.839  17.640  0.00  0.00    +0.000 F 
ATOM     31  F   UNL     1       1.623   1.567  19.769  0.00  0.00    +0.000 F 
ATOM     32  F   UNL     1      -0.034   2.072  18.456  0.00  0.00    +0.000 F 
ENDBRANCH  26  29
ENDBRANCH  22  23
ENDBRANCH   3  22
TORSDOF 5
ENDMDL
MODEL 4
REMARK VINA RESULT:      -8.4      3.048      5.075
REMARK  Name = 
REMARK  5 active torsions:
REMARK  status: ('A' for Active; 'I' for Inactive)
REMARK    1  A    between atoms: N_3  and  C_4
REMARK    2  A    between atoms: C_4  and  C_5
REMARK    3  A    between atoms: C_8  and  C_9
REMARK    4  A    between atoms: C_21  and  O_22
REMARK    5  A    between atoms: C_21  and  C_23
REMARK                            x       y       z     vdW  Elec       q    Type
REMARK                         _______ _______ _______ _____ _____    ______ ____
ROOT
ATOM      1  O   UNL     1       1.177  12.711  20.306  0.00  0.00    +0.000 OA
ATOM      2  C   UNL     1       0.276  12.179  19.670  0.00  0.00    +0.000 C 
ATOM      3  N   UNL     1       0.425  11.094  18.787  0.00  0.00    +0.000 N 
ATOM      4  C   UNL     1      -0.794  10.785  18.158  0.00  0.00    +0.000 A 
ATOM      5  C   UNL     1      -1.061   9.810  17.210  0.00  0.00    +0.000 A 
ATOM      6  C   UNL     1      -2.365   9.722  16.706  0.00  0.00    +0.000 A 
ATOM      7  C   UNL     1      -3.370  10.601  17.143  0.00  0.00    +0.000 A 
ATOM      8  C   UNL     1      -3.088  11.580  18.095  0.00  0.00    +0.000 A 
ATOM      9  C   UNL     1      -1.794  11.654  18.596  0.00  0.00    +0.000 A 
ATOM     10  C   UNL     1      -1.240  12.608  19.630  0.00  0.00    +0.000 C 
ENDROOT
BRANCH  10  11
ATOM     11  C   UNL     1      -1.907  12.460  20.998  0.00  0.00    +0.000 A 
ATOM     12  C   UNL     1      -1.327  11.672  22.023  0.00  0.00    +0.000 A 
ATOM     13  C   UNL     1      -1.958  11.502  23.262  0.00  0.00    +0.000 A 
ATOM     14  C   UNL     1      -3.168  12.128  23.455  0.00  0.00    +0.000 A 
ATOM     15  C   UNL     1      -3.732  12.921  22.487  0.00  0.00    +0.000 A 
ATOM     16  C   UNL     1      -3.129  13.118  21.263  0.00  0.00    +0.000 A 
ATOM     17  O   UNL     1      -4.923  13.451  22.875  0.00  0.00    +0.000 OA
ATOM     18  C   UNL     1      -5.075  12.843  24.173  0.00  0.00    +0.000 C 
ATOM     19  O   UNL     1      -3.938  12.050  24.574  0.00  0.00    +0.000 OA
ENDBRANCH  10  11
BRANCH  10  20
ATOM     20  O   UNL     1      -1.371  13.939  19.132  0.00  0.00    +0.000 OA
ATOM     21  H   UNL     1      -2.146  14.325  19.574  0.00  0.00    +0.000 HD
ENDBRANCH  10  20
BRANCH   3  22
ATOM     22  C   UNL     1       1.689  10.416  18.575  0.00  0.00    +0.000 C 
BRANCH  22  23
ATOM     23  C   UNL     1       1.657   8.971  19.026  0.00  0.00    +0.000 A 
ATOM     24  C   UNL     1       1.220   8.633  20.313  0.00  0.00    +0.000 A 
ATOM     25  C   UNL     1       1.325   7.320  20.781  0.00  0.00    +0.000 A 
ATOM     26  C   UNL     1       1.865   6.314  19.968  0.00  0.00    +0.000 A 
ATOM     27  C   UNL     1       2.217   6.633  18.649  0.00  0.00    +0.000 A 
ATOM     28  C   UNL     1       2.120   7.949  18.185  0.00  0.00    +0.000 A 
BRANCH  26  29
ATOM     29  C   UNL     1       2.123   4.930  20.515  0.00  0.00    +0.000 C 
ATOM     30  F   UNL     1       2.576   4.931  21.800  0.00  0.00    +0.000 F 
ATOM     31  F   UNL     1       1.015   4.141  20.509  0.00  0.00    +0.000 F 
ATOM     32  F   UNL     1       3.065   4.258  19.794  0.00  0.00    +0.000 F 
ENDBRANCH  26  29
ENDBRANCH  22  23
ENDBRANCH   3  22
TORSDOF 5
ENDMDL
MODEL 5
REMARK VINA RESULT:      -8.3      5.855      8.563
REMARK  Name = 
REMARK  5 active torsions:
REMARK  status: ('A' for Active; 'I' for Inactive)
REMARK    1  A    between atoms: N_3  and  C_4
REMARK    2  A    between atoms: C_4  and  C_5
REMARK    3  A    between atoms: C_8  and  C_9
REMARK    4  A    between atoms: C_21  and  O_22
REMARK    5  A    between atoms: C_21  and  C_23
REMARK                            x       y       z     vdW  Elec       q    Type
REMARK                         _______ _______ _______ _____ _____    ______ ____
ROOT
ATOM      1  O   UNL     1      -1.285  14.386  20.549  0.00  0.00    +0.000 OA
ATOM      2  C   UNL     1      -1.123  13.208  20.844  0.00  0.00    +0.000 C 
ATOM      3  N   UNL     1      -1.182  12.672  22.143  0.00  0.00    +0.000 N 
ATOM      4  C   UNL     1      -0.865  11.302  22.137  0.00  0.00    +0.000 A 
ATOM      5  C   UNL     1      -0.787  10.423  23.206  0.00  0.00    +0.000 A 
ATOM      6  C   UNL     1      -0.415   9.099  22.942  0.00  0.00    +0.000 A 
ATOM      7  C   UNL     1      -0.123   8.676  21.635  0.00  0.00    +0.000 A 
ATOM      8  C   UNL     1      -0.202   9.571  20.568  0.00  0.00    +0.000 A 
ATOM      9  C   UNL     1      -0.581  10.880  20.838  0.00  0.00    +0.000 A 
ATOM     10  C   UNL     1      -0.749  12.028  19.868  0.00  0.00    +0.000 C 
ENDROOT
BRANCH  10  11
ATOM     11  C   UNL     1      -1.847  11.780  18.833  0.00  0.00    +0.000 A 
ATOM     12  C   UNL     1      -3.216  11.958  19.149  0.00  0.00    +0.000 A 
ATOM     13  C   UNL     1      -4.225  11.691  18.215  0.00  0.00    +0.000 A 
ATOM     14  C   UNL     1      -3.842  11.246  16.970  0.00  0.00    +0.000 A 
ATOM     15  C   UNL     1      -2.520  11.097  16.633  0.00  0.00    +0.000 A 
ATOM     16  C   UNL     1      -1.505  11.364  17.527  0.00  0.00    +0.000 A 
ATOM     17  O   UNL     1      -2.353  10.653  15.358  0.00  0.00    +0.000 OA
ATOM     18  C   UNL     1      -3.726  10.474  14.956  0.00  0.00    +0.000 C 
ATOM     19  O   UNL     1      -4.677  10.906  15.952  0.00  0.00    +0.000 OA
ENDBRANCH  10  11
BRANCH  10  20
ATOM     20  O   UNL     1       0.508  12.276  19.240  0.00  0.00    +0.000 OA
ATOM     21  H   UNL     1       1.157  12.389  19.954  0.00  0.00    +0.000 HD
ENDBRANCH  10  20
BRANCH   3  22
ATOM     22  C   UNL     1      -1.521  13.464  23.309  0.00  0.00    +0.000 C 
BRANCH  22  23
ATOM     23  C   UNL     1      -3.011  13.508  23.569  0.00  0.00    +0.000 A 
ATOM     24  C   UNL     1      -3.645  12.481  24.281  0.00  0.00    +0.000 A 
ATOM     25  C   UNL     1      -5.037  12.447  24.397  0.00  0.00    +0.000 A 
ATOM     26  C   UNL     1      -5.828  13.442  23.807  0.00  0.00    +0.000 A 
ATOM     27  C   UNL     1      -5.191  14.518  23.173  0.00  0.00    +0.000 A 
ATOM     28  C   UNL     1      -3.798  14.547  23.050  0.00  0.00    +0.000 A 
BRANCH  26  29
ATOM     29  C   UNL     1      -7.334  13.331  23.796  0.00  0.00    +0.000 C 
ATOM     30  F   UNL     1      -7.914  13.705  24.971  0.00  0.00    +0.000 F 
ATOM     31  F   UNL     1      -7.916  14.096  22.833  0.00  0.00    +0.000 F 
ATOM     32  F   UNL     1      -7.756  12.056  23.567  0.00  0.00    +0.000 F 
ENDBRANCH  26  29
ENDBRANCH  22  23
ENDBRANCH   3  22
TORSDOF 5
ENDMDL
MODEL 6
REMARK VINA RESULT:      -7.9      4.251      6.564
REMARK  Name = 
REMARK  5 active torsions:
REMARK  status: ('A' for Active; 'I' for Inactive)
REMARK    1  A    between atoms: N_3  and  C_4
REMARK    2  A    between atoms: C_4  and  C_5
REMARK    3  A    between atoms: C_8  and  C_9
REMARK    4  A    between atoms: C_21  and  O_22
REMARK    5  A    between atoms: C_21  and  C_23
REMARK                            x       y       z     vdW  Elec       q    Type
REMARK                         _______ _______ _______ _____ _____    ______ ____
ROOT
ATOM      1  O   UNL     1       4.154   6.697  16.690  0.00  0.00    +0.000 OA
ATOM      2  C   UNL     1       3.808   5.961  17.606  0.00  0.00    +0.000 C 
ATOM      3  N   UNL     1       4.628   5.023  18.259  0.00  0.00    +0.000 N 
ATOM      4  C   UNL     1       3.894   4.285  19.205  0.00  0.00    +0.000 A 
ATOM      5  C   UNL     1       4.323   3.258  20.030  0.00  0.00    +0.000 A 
ATOM      6  C   UNL     1       3.382   2.653  20.872  0.00  0.00    +0.000 A 
ATOM      7  C   UNL     1       2.041   3.069  20.874  0.00  0.00    +0.000 A 
ATOM      8  C   UNL     1       1.620   4.102  20.037  0.00  0.00    +0.000 A 
ATOM      9  C   UNL     1       2.563   4.703  19.213  0.00  0.00    +0.000 A 
ATOM     10  C   UNL     1       2.366   5.836  18.230  0.00  0.00    +0.000 C 
ENDROOT
BRANCH  10  11
ATOM     11  C   UNL     1       1.923   7.137  18.900  0.00  0.00    +0.000 A 
ATOM     12  C   UNL     1       1.702   8.318  18.149  0.00  0.00    +0.000 A 
ATOM     13  C   UNL     1       1.337   9.521  18.765  0.00  0.00    +0.000 A 
ATOM     14  C   UNL     1       1.199   9.522  20.135  0.00  0.00    +0.000 A 
ATOM     15  C   UNL     1       1.378   8.382  20.878  0.00  0.00    +0.000 A 
ATOM     16  C   UNL     1       1.725   7.180  20.298  0.00  0.00    +0.000 A 
ATOM     17  O   UNL     1       1.191   8.592  22.209  0.00  0.00    +0.000 OA
ATOM     18  C   UNL     1       0.943  10.012  22.222  0.00  0.00    +0.000 C 
ATOM     19  O   UNL     1       0.886  10.598  20.905  0.00  0.00    +0.000 OA
ENDBRANCH  10  11
BRANCH  10  20
ATOM     20  O   UNL     1       1.426   5.418  17.241  0.00  0.00    +0.000 OA
ATOM     21  H   UNL     1       1.532   4.456  17.148  0.00  0.00    +0.000 HD
ENDBRANCH  10  20
BRANCH   3  22
ATOM     22  C   UNL     1       6.037   4.863  17.961  0.00  0.00    +0.000 C 
BRANCH  22  23
ATOM     23  C   UNL     1       6.287   4.487  16.516  0.00  0.00    +0.000 A 
ATOM     24  C   UNL     1       7.225   5.188  15.746  0.00  0.00    +0.000 A 
ATOM     25  C   UNL     1       7.354   4.940  14.377  0.00  0.00    +0.000 A 
ATOM     26  C   UNL     1       6.550   3.979  13.747  0.00  0.00    +0.000 A 
ATOM     27  C   UNL     1       5.677   3.214  14.533  0.00  0.00    +0.000 A 
ATOM     28  C   UNL     1       5.542   3.470  15.901  0.00  0.00    +0.000 A 
BRANCH  26  29
ATOM     29  C   UNL     1       6.574   3.812  12.247  0.00  0.00    +0.000 C 
ATOM     30  F   UNL     1       7.114   2.628  11.842  0.00  0.00    +0.000 F 
ATOM     31  F   UNL     1       5.336   3.868  11.686  0.00  0.00    +0.000 F 
ATOM     32  F   UNL     1       7.309   4.780  11.631  0.00  0.00    +0.000 F 
ENDBRANCH  26  29
ENDBRANCH  22  23
ENDBRANCH   3  22
TORSDOF 5
ENDMDL
MODEL 7
REMARK VINA RESULT:      -7.8      4.807      8.523
REMARK  Name = 
REMARK  5 active torsions:
REMARK  status: ('A' for Active; 'I' for Inactive)
REMARK    1  A    between atoms: N_3  and  C_4
REMARK    2  A    between atoms: C_4  and  C_5
REMARK    3  A    between atoms: C_8  and  C_9
REMARK    4  A    between atoms: C_21  and  O_22
REMARK    5  A    between atoms: C_21  and  C_23
REMARK                            x       y       z     vdW  Elec       q    Type
REMARK                         _______ _______ _______ _____ _____    ______ ____
ROOT
ATOM      1  O   UNL     1       4.882   7.969  17.433  0.00  0.00    +0.000 OA
ATOM      2  C   UNL     1       4.301   6.898  17.555  0.00  0.00    +0.000 C 
ATOM      3  N   UNL     1       2.912   6.729  17.697  0.00  0.00    +0.000 N 
ATOM      4  C   UNL     1       2.587   5.376  17.900  0.00  0.00    +0.000 A 
ATOM      5  C   UNL     1       1.343   4.801  18.107  0.00  0.00    +0.000 A 
ATOM      6  C   UNL     1       1.284   3.419  18.320  0.00  0.00    +0.000 A 
ATOM      7  C   UNL     1       2.452   2.638  18.331  0.00  0.00    +0.000 A 
ATOM      8  C   UNL     1       3.698   3.228  18.125  0.00  0.00    +0.000 A 
ATOM      9  C   UNL     1       3.746   4.599  17.905  0.00  0.00    +0.000 A 
ATOM     10  C   UNL     1       4.957   5.468  17.649  0.00  0.00    +0.000 C 
ENDROOT
BRANCH  10  11
ATOM     11  C   UNL     1       5.697   5.098  16.362  0.00  0.00    +0.000 A 
ATOM     12  C   UNL     1       7.069   5.400  16.185  0.00  0.00    +0.000 A 
ATOM     13  C   UNL     1       7.737   5.100  14.992  0.00  0.00    +0.000 A 
ATOM     14  C   UNL     1       7.014   4.499  13.987  0.00  0.00    +0.000 A 
ATOM     15  C   UNL     1       5.691   4.170  14.149  0.00  0.00    +0.000 A 
ATOM     16  C   UNL     1       5.011   4.441  15.317  0.00  0.00    +0.000 A 
ATOM     17  O   UNL     1       5.160   3.581  13.044  0.00  0.00    +0.000 OA
ATOM     18  C   UNL     1       6.285   3.641  12.144  0.00  0.00    +0.000 C 
ATOM     19  O   UNL     1       7.482   4.167  12.754  0.00  0.00    +0.000 OA
ENDBRANCH  10  11
BRANCH  10  20
ATOM     20  O   UNL     1       5.820   5.385  18.783  0.00  0.00    +0.000 OA
ATOM     21  H   UNL     1       5.366   5.843  19.510  0.00  0.00    +0.000 HD
ENDBRANCH  10  20
BRANCH   3  22
ATOM     22  C   UNL     1       1.973   7.832  17.643  0.00  0.00    +0.000 C 
BRANCH  22  23
ATOM     23  C   UNL     1       1.621   8.365  19.015  0.00  0.00    +0.000 A 
ATOM     24  C   UNL     1       1.883   7.608  20.165  0.00  0.00    +0.000 A 
ATOM     25  C   UNL     1       1.430   8.032  21.417  0.00  0.00    +0.000 A 
ATOM     26  C   UNL     1       0.709   9.227  21.549  0.00  0.00    +0.000 A 
ATOM     27  C   UNL     1       0.527  10.030  20.414  0.00  0.00    +0.000 A 
ATOM     28  C   UNL     1       0.972   9.600  19.159  0.00  0.00    +0.000 A 
BRANCH  26  29
ATOM     29  C   UNL     1       0.086   9.616  22.868  0.00  0.00    +0.000 C 
ATOM     30  F   UNL     1       0.888   9.368  23.941  0.00  0.00    +0.000 F 
ATOM     31  F   UNL     1      -0.231  10.938  22.937  0.00  0.00    +0.000 F 
ATOM     32  F   UNL     1      -1.072   8.940  23.111  0.00  0.00    +0.000 F 
ENDBRANCH  26  29
ENDBRANCH  22  23
ENDBRANCH   3  22
TORSDOF 5
ENDMDL
MODEL 8
REMARK VINA RESULT:      -7.7      3.328      5.091
REMARK  Name = 
REMARK  5 active torsions:
REMARK  status: ('A' for Active; 'I' for Inactive)
REMARK    1  A    between atoms: N_3  and  C_4
REMARK    2  A    between atoms: C_4  and  C_5
REMARK    3  A    between atoms: C_8  and  C_9
REMARK    4  A    between atoms: C_21  and  O_22
REMARK    5  A    between atoms: C_21  and  C_23
REMARK                            x       y       z     vdW  Elec       q    Type
REMARK                         _______ _______ _______ _____ _____    ______ ____
ROOT
ATOM      1  O   UNL     1       1.447  10.322  22.209  0.00  0.00    +0.000 OA
ATOM      2  C   UNL     1       0.706  10.545  21.259  0.00  0.00    +0.000 C 
ATOM      3  N   UNL     1       0.238   9.589  20.341  0.00  0.00    +0.000 N 
ATOM      4  C   UNL     1      -0.524  10.195  19.326  0.00  0.00    +0.000 A 
ATOM      5  C   UNL     1      -1.135   9.609  18.229  0.00  0.00    +0.000 A 
ATOM      6  C   UNL     1      -1.816  10.441  17.333  0.00  0.00    +0.000 A 
ATOM      7  C   UNL     1      -1.873  11.830  17.536  0.00  0.00    +0.000 A 
ATOM      8  C   UNL     1      -1.252  12.409  18.642  0.00  0.00    +0.000 A 
ATOM      9  C   UNL     1      -0.586  11.574  19.531  0.00  0.00    +0.000 A 
ATOM     10  C   UNL     1       0.152  11.947  20.797  0.00  0.00    +0.000 C 
ENDROOT
BRANCH  10  11
ATOM     11  C   UNL     1      -0.757  12.574  21.855  0.00  0.00    +0.000 A 
ATOM     12  C   UNL     1      -0.451  13.826  22.444  0.00  0.00    +0.000 A 
ATOM     13  C   UNL     1      -1.259  14.382  23.444  0.00  0.00    +0.000 A 
ATOM     14  C   UNL     1      -2.368  13.670  23.840  0.00  0.00    +0.000 A 
ATOM     15  C   UNL     1      -2.699  12.470  23.261  0.00  0.00    +0.000 A 
ATOM     16  C   UNL     1      -1.930  11.904  22.266  0.00  0.00    +0.000 A 
ATOM     17  O   UNL     1      -3.830  11.929  23.789  0.00  0.00    +0.000 OA
ATOM     18  C   UNL     1      -4.133  12.896  24.815  0.00  0.00    +0.000 C 
ATOM     19  O   UNL     1      -3.245  14.033  24.814  0.00  0.00    +0.000 OA
ENDBRANCH  10  11
BRANCH  10  20
ATOM     20  O   UNL     1       1.226  12.822  20.453  0.00  0.00    +0.000 OA
ATOM     21  H   UNL     1       0.844  13.712  20.374  0.00  0.00    +0.000 HD
ENDBRANCH  10  20
BRANCH   3  22
ATOM     22  C   UNL     1       0.531   8.174  20.456  0.00  0.00    +0.000 C 
BRANCH  22  23
ATOM     23  C   UNL     1       1.714   7.754  19.610  0.00  0.00    +0.000 A 
ATOM     24  C   UNL     1       2.114   8.523  18.509  0.00  0.00    +0.000 A 
ATOM     25  C   UNL     1       3.110   8.064  17.643  0.00  0.00    +0.000 A 
ATOM     26  C   UNL     1       3.732   6.827  17.860  0.00  0.00    +0.000 A 
ATOM     27  C   UNL     1       3.397   6.100  19.011  0.00  0.00    +0.000 A 
ATOM     28  C   UNL     1       2.393   6.555  19.873  0.00  0.00    +0.000 A 
BRANCH  26  29
ATOM     29  C   UNL     1       4.697   6.255  16.849  0.00  0.00    +0.000 C 
ATOM     30  F   UNL     1       4.699   6.924  15.662  0.00  0.00    +0.000 F 
ATOM     31  F   UNL     1       5.986   6.260  17.283  0.00  0.00    +0.000 F 
ATOM     32  F   UNL     1       4.411   4.959  16.539  0.00  0.00    +0.000 F 
ENDBRANCH  26  29
ENDBRANCH  22  23
ENDBRANCH   3  22
TORSDOF 5
ENDMDL
MODEL 9
REMARK VINA RESULT:      -7.6      6.157      8.933
REMARK  Name = 
REMARK  5 active torsions:
REMARK  status: ('A' for Active; 'I' for Inactive)
REMARK    1  A    between atoms: N_3  and  C_4
REMARK    2  A    between atoms: C_4  and  C_5
REMARK    3  A    between atoms: C_8  and  C_9
REMARK    4  A    between atoms: C_21  and  O_22
REMARK    5  A    between atoms: C_21  and  C_23
REMARK                            x       y       z     vdW  Elec       q    Type
REMARK                         _______ _______ _______ _____ _____    ______ ____
ROOT
ATOM      1  O   UNL     1      -1.270  14.447  20.618  0.00  0.00    +0.000 OA
ATOM      2  C   UNL     1      -1.098  13.268  20.901  0.00  0.00    +0.000 C 
ATOM      3  N   UNL     1      -1.070  12.730  22.200  0.00  0.00    +0.000 N 
ATOM      4  C   UNL     1      -0.767  11.357  22.170  0.00  0.00    +0.000 A 
ATOM      5  C   UNL     1      -0.621  10.476  23.230  0.00  0.00    +0.000 A 
ATOM      6  C   UNL     1      -0.281   9.149  22.940  0.00  0.00    +0.000 A 
ATOM      7  C   UNL     1      -0.086   8.726  21.615  0.00  0.00    +0.000 A 
ATOM      8  C   UNL     1      -0.232   9.623  20.557  0.00  0.00    +0.000 A 
ATOM      9  C   UNL     1      -0.579  10.934  20.854  0.00  0.00    +0.000 A 
ATOM     10  C   UNL     1      -0.805  12.085  19.899  0.00  0.00    +0.000 C 
ENDROOT
BRANCH  10  11
ATOM     11  C   UNL     1      -1.976  11.849  18.944  0.00  0.00    +0.000 A 
ATOM     12  C   UNL     1      -1.767  11.408  17.614  0.00  0.00    +0.000 A 
ATOM     13  C   UNL     1      -2.835  11.231  16.725  0.00  0.00    +0.000 A 
ATOM     14  C   UNL     1      -4.103  11.501  17.186  0.00  0.00    +0.000 A 
ATOM     15  C   UNL     1      -4.330  11.900  18.480  0.00  0.00    +0.000 A 
ATOM     16  C   UNL     1      -3.300  12.070  19.381  0.00  0.00    +0.000 A 
ATOM     17  O   UNL     1      -5.649  12.111  18.738  0.00  0.00    +0.000 OA
ATOM     18  C   UNL     1      -6.217  11.866  17.436  0.00  0.00    +0.000 C 
ATOM     19  O   UNL     1      -5.251  11.420  16.461  0.00  0.00    +0.000 OA
ENDBRANCH  10  11
BRANCH  10  20
ATOM     20  O   UNL     1       0.406  12.323  19.184  0.00  0.00    +0.000 OA
ATOM     21  H   UNL     1       1.050  11.669  19.504  0.00  0.00    +0.000 HD
ENDBRANCH  10  20
BRANCH   3  22
ATOM     22  C   UNL     1      -1.319  13.523  23.387  0.00  0.00    +0.000 C 
BRANCH  22  23
ATOM     23  C   UNL     1      -2.795  13.741  23.643  0.00  0.00    +0.000 A 
ATOM     24  C   UNL     1      -3.690  12.663  23.633  0.00  0.00    +0.000 A 
ATOM     25  C   UNL     1      -5.067  12.878  23.725  0.00  0.00    +0.000 A 
ATOM     26  C   UNL     1      -5.582  14.177  23.833  0.00  0.00    +0.000 A 
ATOM     27  C   UNL     1      -4.684  15.249  23.935  0.00  0.00    +0.000 A 
ATOM     28  C   UNL     1      -3.305  15.034  23.834  0.00  0.00    +0.000 A 
BRANCH  26  29
ATOM     29  C   UNL     1      -7.070  14.430  23.778  0.00  0.00    +0.000 C 
ATOM     30  F   UNL     1      -7.398  15.751  23.826  0.00  0.00    +0.000 F 
ATOM     31  F   UNL     1      -7.650  13.942  22.648  0.00  0.00    +0.000 F 
ATOM     32  F   UNL     1      -7.730  13.850  24.819  0.00  0.00    +0.000 F 
ENDBRANCH  26  29
ENDBRANCH  22  23
ENDBRANCH   3  22
TORSDOF 5
ENDMDL
