MODEL 1
REMARK VINA RESULT:      -5.7      0.000      0.000
REMARK  Name = 
REMARK  1 active torsions:
REMARK  status: ('A' for Active; 'I' for Inactive)
REMARK    1  A    between atoms: C_2  and  C_3
REMARK                            x       y       z     vdW  Elec       q    Type
REMARK                         _______ _______ _______ _____ _____    ______ ____
ROOT
ATOM      1  C   UNL     1       5.613   5.022  18.994  0.00  0.00    +0.000 A 
ATOM      2  C   UNL     1       4.474   5.611  18.479  0.00  0.00    +0.000 A 
ATOM      3  C   UNL     1       3.464   4.616  18.475  0.00  0.00    +0.000 A 
ATOM      4  C   UNL     1       2.117   4.551  18.078  0.00  0.00    +0.000 A 
ATOM      5  C   UNL     1       1.423   3.344  18.247  0.00  0.00    +0.000 A 
ATOM      6  C   UNL     1       2.048   2.225  18.804  0.00  0.00    +0.000 A 
ATOM      7  C   UNL     1       3.389   2.268  19.203  0.00  0.00    +0.000 A 
ATOM      8  C   UNL     1       4.053   3.479  19.015  0.00  0.00    +0.000 A 
ATOM      9  O   UNL     1       5.357   3.722  19.325  0.00  0.00    +0.000 OA
ENDROOT
BRANCH   1  11
ATOM     10  O   UNL     1       7.591   5.381  20.243  0.00  0.00    +0.000 OA
ATOM     11  C   UNL     1       6.935   5.538  19.216  0.00  0.00    +0.000 C 
ENDBRANCH   1  11
TORSDOF 1
ENDMDL
MODEL 2
REMARK VINA RESULT:      -5.7      1.429      1.429
REMARK  Name = 
REMARK  1 active torsions:
REMARK  status: ('A' for Active; 'I' for Inactive)
REMARK    1  A    between atoms: C_2  and  C_3
REMARK                            x       y       z     vdW  Elec       q    Type
REMARK                         _______ _______ _______ _____ _____    ______ ____
ROOT
ATOM      1  C   UNL     1       5.825   4.417  18.009  0.00  0.00    +0.000 A 
ATOM      2  C   UNL     1       4.734   4.568  17.174  0.00  0.00    +0.000 A 
ATOM      3  C   UNL     1       3.626   3.985  17.840  0.00  0.00    +0.000 A 
ATOM      4  C   UNL     1       2.264   3.792  17.547  0.00  0.00    +0.000 A 
ATOM      5  C   UNL     1       1.455   3.155  18.498  0.00  0.00    +0.000 A 
ATOM      6  C   UNL     1       1.982   2.722  19.718  0.00  0.00    +0.000 A 
ATOM      7  C   UNL     1       3.335   2.902  20.028  0.00  0.00    +0.000 A 
ATOM      8  C   UNL     1       4.114   3.531  19.059  0.00  0.00    +0.000 A 
ATOM      9  O   UNL     1       5.448   3.788  19.161  0.00  0.00    +0.000 OA
ENDROOT
BRANCH   1  11
ATOM     10  O   UNL     1       7.963   4.359  16.996  0.00  0.00    +0.000 OA
ATOM     11  C   UNL     1       7.202   4.797  17.855  0.00  0.00    +0.000 C 
ENDBRANCH   1  11
TORSDOF 1
ENDMDL
MODEL 3
REMARK VINA RESULT:      -5.5      1.037      1.037
REMARK  Name = 
REMARK  1 active torsions:
REMARK  status: ('A' for Active; 'I' for Inactive)
REMARK    1  A    between atoms: C_2  and  C_3
REMARK                            x       y       z     vdW  Elec       q    Type
REMARK                         _______ _______ _______ _____ _____    ______ ____
ROOT
ATOM      1  C   UNL     1       5.090   4.826  19.194  0.00  0.00    +0.000 A 
ATOM      2  C   UNL     1       3.933   5.399  19.689  0.00  0.00    +0.000 A 
ATOM      3  C   UNL     1       2.912   4.422  19.574  0.00  0.00    +0.000 A 
ATOM      4  C   UNL     1       1.539   4.362  19.870  0.00  0.00    +0.000 A 
ATOM      5  C   UNL     1       0.845   3.171  19.610  0.00  0.00    +0.000 A 
ATOM      6  C   UNL     1       1.499   2.059  19.073  0.00  0.00    +0.000 A 
ATOM      7  C   UNL     1       2.865   2.099  18.769  0.00  0.00    +0.000 A 
ATOM      8  C   UNL     1       3.524   3.298  19.031  0.00  0.00    +0.000 A 
ATOM      9  O   UNL     1       4.843   3.544  18.796  0.00  0.00    +0.000 OA
ENDROOT
BRANCH   1  11
ATOM     10  O   UNL     1       7.247   5.439  19.950  0.00  0.00    +0.000 OA
ATOM     11  C   UNL     1       6.421   5.346  19.046  0.00  0.00    +0.000 C 
ENDBRANCH   1  11
TORSDOF 1
ENDMDL
MODEL 4
REMARK VINA RESULT:      -5.5      1.603      1.882
REMARK  Name = 
REMARK  1 active torsions:
REMARK  status: ('A' for Active; 'I' for Inactive)
REMARK    1  A    between atoms: C_2  and  C_3
REMARK                            x       y       z     vdW  Elec       q    Type
REMARK                         _______ _______ _______ _____ _____    ______ ____
ROOT
ATOM      1  C   UNL     1       5.013   4.499  18.368  0.00  0.00    +0.000 A 
ATOM      2  C   UNL     1       4.158   3.611  17.743  0.00  0.00    +0.000 A 
ATOM      3  C   UNL     1       2.997   3.522  18.553  0.00  0.00    +0.000 A 
ATOM      4  C   UNL     1       1.788   2.807  18.503  0.00  0.00    +0.000 A 
ATOM      5  C   UNL     1       0.849   3.000  19.526  0.00  0.00    +0.000 A 
ATOM      6  C   UNL     1       1.100   3.888  20.576  0.00  0.00    +0.000 A 
ATOM      7  C   UNL     1       2.299   4.606  20.646  0.00  0.00    +0.000 A 
ATOM      8  C   UNL     1       3.215   4.387  19.619  0.00  0.00    +0.000 A 
ATOM      9  O   UNL     1       4.437   4.976  19.510  0.00  0.00    +0.000 OA
ENDROOT
BRANCH   1  11
ATOM     10  O   UNL     1       7.379   4.432  18.369  0.00  0.00    +0.000 OA
ATOM     11  C   UNL     1       6.327   4.961  18.018  0.00  0.00    +0.000 C 
ENDBRANCH   1  11
TORSDOF 1
ENDMDL
MODEL 5
REMARK VINA RESULT:      -5.4      1.774      1.798
REMARK  Name = 
REMARK  1 active torsions:
REMARK  status: ('A' for Active; 'I' for Inactive)
REMARK    1  A    between atoms: C_2  and  C_3
REMARK                            x       y       z     vdW  Elec       q    Type
REMARK                         _______ _______ _______ _____ _____    ______ ____
ROOT
ATOM      1  C   UNL     1       5.624   5.658  17.481  0.00  0.00    +0.000 A 
ATOM      2  C   UNL     1       4.375   6.219  17.667  0.00  0.00    +0.000 A 
ATOM      3  C   UNL     1       3.454   5.144  17.763  0.00  0.00    +0.000 A 
ATOM      4  C   UNL     1       2.064   5.022  17.934  0.00  0.00    +0.000 A 
ATOM      5  C   UNL     1       1.502   3.739  17.989  0.00  0.00    +0.000 A 
ATOM      6  C   UNL     1       2.302   2.597  17.882  0.00  0.00    +0.000 A 
ATOM      7  C   UNL     1       3.687   2.697  17.708  0.00  0.00    +0.000 A 
ATOM      8  C   UNL     1       4.214   3.986  17.649  0.00  0.00    +0.000 A 
ATOM      9  O   UNL     1       5.528   4.296  17.474  0.00  0.00    +0.000 OA
ENDROOT
BRANCH   1  11
ATOM     10  O   UNL     1       7.530   6.314  16.241  0.00  0.00    +0.000 OA
ATOM     11  C   UNL     1       6.919   6.255  17.305  0.00  0.00    +0.000 C 
ENDBRANCH   1  11
TORSDOF 1
ENDMDL
MODEL 6
REMARK VINA RESULT:      -5.4      1.629      4.533
REMARK  Name = 
REMARK  1 active torsions:
REMARK  status: ('A' for Active; 'I' for Inactive)
REMARK    1  A    between atoms: C_2  and  C_3
REMARK                            x       y       z     vdW  Elec       q    Type
REMARK                         _______ _______ _______ _____ _____    ______ ____
ROOT
ATOM      1  C   UNL     1       4.608   3.772  18.611  0.00  0.00    +0.000 A 
ATOM      2  C   UNL     1       4.453   4.722  17.620  0.00  0.00    +0.000 A 
ATOM      3  C   UNL     1       5.565   5.597  17.714  0.00  0.00    +0.000 A 
ATOM      4  C   UNL     1       6.000   6.750  17.036  0.00  0.00    +0.000 A 
ATOM      5  C   UNL     1       7.203   7.350  17.432  0.00  0.00    +0.000 A 
ATOM      6  C   UNL     1       7.965   6.818  18.475  0.00  0.00    +0.000 A 
ATOM      7  C   UNL     1       7.549   5.674  19.165  0.00  0.00    +0.000 A 
ATOM      8  C   UNL     1       6.345   5.105  18.754  0.00  0.00    +0.000 A 
ATOM      9  O   UNL     1       5.764   4.001  19.301  0.00  0.00    +0.000 OA
ENDROOT
BRANCH   1  11
ATOM     10  O   UNL     1       3.670   1.614  18.357  0.00  0.00    +0.000 OA
ATOM     11  C   UNL     1       3.790   2.656  18.996  0.00  0.00    +0.000 C 
ENDBRANCH   1  11
TORSDOF 1
ENDMDL
MODEL 7
REMARK VINA RESULT:      -5.4      1.413      1.413
REMARK  Name = 
REMARK  1 active torsions:
REMARK  status: ('A' for Active; 'I' for Inactive)
REMARK    1  A    between atoms: C_2  and  C_3
REMARK                            x       y       z     vdW  Elec       q    Type
REMARK                         _______ _______ _______ _____ _____    ______ ____
ROOT
ATOM      1  C   UNL     1       5.484   4.928  19.072  0.00  0.00    +0.000 A 
ATOM      2  C   UNL     1       4.383   5.733  19.295  0.00  0.00    +0.000 A 
ATOM      3  C   UNL     1       3.331   4.881  19.716  0.00  0.00    +0.000 A 
ATOM      4  C   UNL     1       1.983   5.049  20.078  0.00  0.00    +0.000 A 
ATOM      5  C   UNL     1       1.241   3.921  20.457  0.00  0.00    +0.000 A 
ATOM      6  C   UNL     1       1.824   2.651  20.483  0.00  0.00    +0.000 A 
ATOM      7  C   UNL     1       3.163   2.462  20.123  0.00  0.00    +0.000 A 
ATOM      8  C   UNL     1       3.871   3.601  19.744  0.00  0.00    +0.000 A 
ATOM      9  O   UNL     1       5.174   3.627  19.349  0.00  0.00    +0.000 OA
ENDROOT
BRANCH   1  11
ATOM     10  O   UNL     1       7.630   4.412  18.219  0.00  0.00    +0.000 OA
ATOM     11  C   UNL     1       6.813   5.236  18.622  0.00  0.00    +0.000 C 
ENDBRANCH   1  11
TORSDOF 1
ENDMDL
MODEL 8
REMARK VINA RESULT:      -5.4      4.012      4.690
REMARK  Name = 
REMARK  1 active torsions:
REMARK  status: ('A' for Active; 'I' for Inactive)
REMARK    1  A    between atoms: C_2  and  C_3
REMARK                            x       y       z     vdW  Elec       q    Type
REMARK                         _______ _______ _______ _____ _____    ______ ____
ROOT
ATOM      1  C   UNL     1       7.039   4.924  14.401  0.00  0.00    +0.000 A 
ATOM      2  C   UNL     1       5.870   4.221  14.623  0.00  0.00    +0.000 A 
ATOM      3  C   UNL     1       5.624   4.264  16.019  0.00  0.00    +0.000 A 
ATOM      4  C   UNL     1       4.642   3.752  16.884  0.00  0.00    +0.000 A 
ATOM      5  C   UNL     1       4.744   4.026  18.256  0.00  0.00    +0.000 A 
ATOM      6  C   UNL     1       5.794   4.798  18.760  0.00  0.00    +0.000 A 
ATOM      7  C   UNL     1       6.784   5.314  17.916  0.00  0.00    +0.000 A 
ATOM      8  C   UNL     1       6.660   5.018  16.560  0.00  0.00    +0.000 A 
ATOM      9  O   UNL     1       7.520   5.415  15.582  0.00  0.00    +0.000 OA
ENDROOT
BRANCH   1  11
ATOM     10  O   UNL     1       8.748   5.938  13.116  0.00  0.00    +0.000 OA
ATOM     11  C   UNL     1       7.772   5.196  13.197  0.00  0.00    +0.000 C 
ENDBRANCH   1  11
TORSDOF 1
ENDMDL
MODEL 9
REMARK VINA RESULT:      -5.4      2.513      2.661
REMARK  Name = 
REMARK  1 active torsions:
REMARK  status: ('A' for Active; 'I' for Inactive)
REMARK    1  A    between atoms: C_2  and  C_3
REMARK                            x       y       z     vdW  Elec       q    Type
REMARK                         _______ _______ _______ _____ _____    ______ ____
ROOT
ATOM      1  C   UNL     1       5.819   4.717  16.332  0.00  0.00    +0.000 A 
ATOM      2  C   UNL     1       5.150   5.768  16.930  0.00  0.00    +0.000 A 
ATOM      3  C   UNL     1       3.912   5.253  17.393  0.00  0.00    +0.000 A 
ATOM      4  C   UNL     1       2.789   5.778  18.056  0.00  0.00    +0.000 A 
ATOM      5  C   UNL     1       1.724   4.918  18.360  0.00  0.00    +0.000 A 
ATOM      6  C   UNL     1       1.772   3.564  18.020  0.00  0.00    +0.000 A 
ATOM      7  C   UNL     1       2.879   3.022  17.358  0.00  0.00    +0.000 A 
ATOM      8  C   UNL     1       3.917   3.903  17.062  0.00  0.00    +0.000 A 
ATOM      9  O   UNL     1       5.070   3.578  16.415  0.00  0.00    +0.000 OA
ENDROOT
BRANCH   1  11
ATOM     10  O   UNL     1       7.521   5.474  14.871  0.00  0.00    +0.000 OA
ATOM     11  C   UNL     1       7.097   4.651  15.679  0.00  0.00    +0.000 C 
ENDBRANCH   1  11
TORSDOF 1
ENDMDL
