MODEL 1
REMARK VINA RESULT:      -7.6      0.000      0.000
REMARK  Name = 
REMARK  7 active torsions:
REMARK  status: ('A' for Active; 'I' for Inactive)
REMARK    1  A    between atoms: C_1  and  N_2
REMARK    2  A    between atoms: N_5  and  S_6
REMARK    3  A    between atoms: S_6  and  C_9
REMARK    4  A    between atoms: C_12  and  N_13
REMARK    5  A    between atoms: N_13  and  C_14
REMARK    6  A    between atoms: C_14  and  N_16
REMARK    7  A    between atoms: C_17  and  C_19
REMARK                            x       y       z     vdW  Elec       q    Type
REMARK                         _______ _______ _______ _____ _____    ______ ____
ROOT
ATOM      1  C   UNL     1       1.524   7.615  20.381  0.00  0.00    +0.000 A 
ATOM      2  C   UNL     1       2.283   7.691  19.209  0.00  0.00    +0.000 A 
ATOM      3  C   UNL     1       2.826   6.512  18.653  0.00  0.00    +0.000 A 
ATOM      4  C   UNL     1       2.638   5.270  19.284  0.00  0.00    +0.000 A 
ATOM      5  C   UNL     1       1.811   5.214  20.402  0.00  0.00    +0.000 A 
ATOM      6  C   UNL     1       1.303   6.375  20.978  0.00  0.00    +0.000 A 
ENDROOT
BRANCH   1   7
ATOM      7  S   UNL     1       0.887   9.073  21.194  0.00  0.00    +0.000 S 
ATOM      8  O   UNL     1       1.803   9.414  22.265  0.00  0.00    +0.000 OA
ATOM      9  O   UNL     1      -0.515   8.835  21.476  0.00  0.00    +0.000 OA
BRANCH   7  14
ATOM     10  C   UNL     1      -2.545  12.701  20.203  0.00  0.00    +0.000 C 
ATOM     11  N   UNL     1      -1.239  12.200  19.771  0.00  0.00    +0.000 NA
ATOM     12  C   UNL     1      -1.355  10.816  19.270  0.00  0.00    +0.000 C 
ATOM     13  C   UNL     1       0.009  10.214  18.870  0.00  0.00    +0.000 C 
ATOM     14  N   UNL     1       1.007  10.273  19.985  0.00  0.00    +0.000 NA
ATOM     15  C   UNL     1       1.108  11.690  20.464  0.00  0.00    +0.000 C 
ATOM     16  C   UNL     1      -0.264  12.257  20.882  0.00  0.00    +0.000 C 
ENDBRANCH   7  14
ENDBRANCH   1   7
BRANCH   4  17
ATOM     17  N   UNL     1       3.281   4.125  18.767  0.00  0.00    +0.000 N 
ATOM     18  H   UNL     1       2.934   3.795  17.864  0.00  0.00    +0.000 HD
BRANCH  17  19
ATOM     19  C   UNL     1       4.412   3.449  19.211  0.00  0.00    +0.000 C 
ATOM     20  S   UNL     1       4.524   2.013  20.067  0.00  0.00    +0.000 S 
BRANCH  19  21
ATOM     21  N   UNL     1       5.623   4.087  18.965  0.00  0.00    +0.000 N 
ATOM     22  C   UNL     1       6.141   4.469  17.731  0.00  0.00    +0.000 C 
ATOM     23  O   UNL     1       5.585   4.146  16.681  0.00  0.00    +0.000 OA
ATOM     24  H   UNL     1       6.121   4.349  19.803  0.00  0.00    +0.000 HD
BRANCH  22  25
ATOM     25  C   UNL     1       7.432   5.329  17.750  0.00  0.00    +0.000 C 
ATOM     26  C   UNL     1       7.274   6.813  17.317  0.00  0.00    +0.000 C 
ATOM     27  C   UNL     1       8.182   7.211  18.493  0.00  0.00    +0.000 C 
ATOM     28  C   UNL     1       7.810   5.881  19.161  0.00  0.00    +0.000 C 
ENDBRANCH  22  25
ENDBRANCH  19  21
ENDBRANCH  17  19
ENDBRANCH   4  17
TORSDOF 6
ENDMDL
MODEL 2
REMARK VINA RESULT:      -7.4      3.003      8.699
REMARK  Name = 
REMARK  7 active torsions:
REMARK  status: ('A' for Active; 'I' for Inactive)
REMARK    1  A    between atoms: C_1  and  N_2
REMARK    2  A    between atoms: N_5  and  S_6
REMARK    3  A    between atoms: S_6  and  C_9
REMARK    4  A    between atoms: C_12  and  N_13
REMARK    5  A    between atoms: N_13  and  C_14
REMARK    6  A    between atoms: C_14  and  N_16
REMARK    7  A    between atoms: C_17  and  C_19
REMARK                            x       y       z     vdW  Elec       q    Type
REMARK                         _______ _______ _______ _____ _____    ______ ____
ROOT
ATOM      1  C   UNL     1       2.208   7.565  19.248  0.00  0.00    +0.000 A 
ATOM      2  C   UNL     1       2.501   8.160  18.017  0.00  0.00    +0.000 A 
ATOM      3  C   UNL     1       2.083   9.484  17.766  0.00  0.00    +0.000 A 
ATOM      4  C   UNL     1       1.347  10.198  18.728  0.00  0.00    +0.000 A 
ATOM      5  C   UNL     1       1.141   9.610  19.973  0.00  0.00    +0.000 A 
ATOM      6  C   UNL     1       1.517   8.292  20.216  0.00  0.00    +0.000 A 
ENDROOT
BRANCH   1   7
ATOM      7  S   UNL     1       2.620   5.862  19.601  0.00  0.00    +0.000 S 
ATOM      8  O   UNL     1       1.676   5.377  20.588  0.00  0.00    +0.000 OA
ATOM      9  O   UNL     1       4.045   5.806  19.859  0.00  0.00    +0.000 OA
BRANCH   7  14
ATOM     10  C   UNL     1       3.819   1.054  18.431  0.00  0.00    +0.000 C 
ATOM     11  N   UNL     1       3.173   2.247  17.882  0.00  0.00    +0.000 NA
ATOM     12  C   UNL     1       4.134   3.366  17.800  0.00  0.00    +0.000 C 
ATOM     13  C   UNL     1       3.482   4.671  17.296  0.00  0.00    +0.000 C 
ATOM     14  N   UNL     1       2.300   5.073  18.121  0.00  0.00    +0.000 NA
ATOM     15  C   UNL     1       1.340   3.922  18.176  0.00  0.00    +0.000 C 
ATOM     16  C   UNL     1       2.010   2.638  18.708  0.00  0.00    +0.000 C 
ENDBRANCH   7  14
ENDBRANCH   1   7
BRANCH   4  17
ATOM     17  N   UNL     1       0.848  11.479  18.411  0.00  0.00    +0.000 N 
ATOM     18  H   UNL     1       1.509  12.107  17.946  0.00  0.00    +0.000 HD
BRANCH  17  19
ATOM     19  C   UNL     1      -0.442  11.989  18.491  0.00  0.00    +0.000 C 
ATOM     20  S   UNL     1      -1.068  13.135  19.542  0.00  0.00    +0.000 S 
BRANCH  19  21
ATOM     21  N   UNL     1      -1.363  11.423  17.617  0.00  0.00    +0.000 N 
ATOM     22  C   UNL     1      -2.147  10.293  17.830  0.00  0.00    +0.000 C 
ATOM     23  O   UNL     1      -1.990   9.592  18.830  0.00  0.00    +0.000 OA
ATOM     24  H   UNL     1      -1.503  11.959  16.772  0.00  0.00    +0.000 HD
BRANCH  22  25
ATOM     25  C   UNL     1      -3.226   9.978  16.763  0.00  0.00    +0.000 C 
ATOM     26  C   UNL     1      -3.938  11.204  16.125  0.00  0.00    +0.000 C 
ATOM     27  C   UNL     1      -3.807  10.518  14.755  0.00  0.00    +0.000 C 
ATOM     28  C   UNL     1      -2.652   9.693  15.338  0.00  0.00    +0.000 C 
ENDBRANCH  22  25
ENDBRANCH  19  21
ENDBRANCH  17  19
ENDBRANCH   4  17
TORSDOF 6
ENDMDL
MODEL 3
REMARK VINA RESULT:      -7.2      1.386      1.746
REMARK  Name = 
REMARK  7 active torsions:
REMARK  status: ('A' for Active; 'I' for Inactive)
REMARK    1  A    between atoms: C_1  and  N_2
REMARK    2  A    between atoms: N_5  and  S_6
REMARK    3  A    between atoms: S_6  and  C_9
REMARK    4  A    between atoms: C_12  and  N_13
REMARK    5  A    between atoms: N_13  and  C_14
REMARK    6  A    between atoms: C_14  and  N_16
REMARK    7  A    between atoms: C_17  and  C_19
REMARK                            x       y       z     vdW  Elec       q    Type
REMARK                         _______ _______ _______ _____ _____    ______ ____
ROOT
ATOM      1  C   UNL     1       1.385   8.799  19.873  0.00  0.00    +0.000 A 
ATOM      2  C   UNL     1       1.490   7.692  20.722  0.00  0.00    +0.000 A 
ATOM      3  C   UNL     1       2.069   6.498  20.242  0.00  0.00    +0.000 A 
ATOM      4  C   UNL     1       2.509   6.401  18.910  0.00  0.00    +0.000 A 
ATOM      5  C   UNL     1       2.466   7.541  18.114  0.00  0.00    +0.000 A 
ATOM      6  C   UNL     1       1.864   8.711  18.567  0.00  0.00    +0.000 A 
ENDROOT
BRANCH   1   7
ATOM      7  S   UNL     1       0.577  10.310  20.381  0.00  0.00    +0.000 S 
ATOM      8  O   UNL     1       1.410  10.935  21.390  0.00  0.00    +0.000 OA
ATOM      9  O   UNL     1      -0.806   9.986  20.670  0.00  0.00    +0.000 OA
BRANCH   7  14
ATOM     10  C   UNL     1      -0.730  15.217  20.027  0.00  0.00    +0.000 C 
ATOM     11  N   UNL     1      -0.218  14.101  19.232  0.00  0.00    +0.000 NA
ATOM     12  C   UNL     1      -1.198  12.996  19.199  0.00  0.00    +0.000 C 
ATOM     13  C   UNL     1      -0.674  11.763  18.433  0.00  0.00    +0.000 C 
ATOM     14  N   UNL     1       0.633  11.270  18.971  0.00  0.00    +0.000 NA
ATOM     15  C   UNL     1       1.607  12.410  18.982  0.00  0.00    +0.000 C 
ATOM     16  C   UNL     1       1.071  13.619  19.776  0.00  0.00    +0.000 C 
ENDBRANCH   7  14
ENDBRANCH   1   7
BRANCH   4  17
ATOM     17  N   UNL     1       2.984   5.163  18.424  0.00  0.00    +0.000 N 
ATOM     18  H   UNL     1       2.546   4.832  17.561  0.00  0.00    +0.000 HD
BRANCH  17  19
ATOM     19  C   UNL     1       4.055   4.382  18.842  0.00  0.00    +0.000 C 
ATOM     20  S   UNL     1       4.047   2.916  19.655  0.00  0.00    +0.000 S 
BRANCH  19  21
ATOM     21  N   UNL     1       5.314   4.922  18.610  0.00  0.00    +0.000 N 
ATOM     22  C   UNL     1       5.897   5.208  17.378  0.00  0.00    +0.000 C 
ATOM     23  O   UNL     1       5.352   4.875  16.326  0.00  0.00    +0.000 OA
ATOM     24  H   UNL     1       5.804   5.189  19.452  0.00  0.00    +0.000 HD
BRANCH  22  25
ATOM     25  C   UNL     1       7.243   5.977  17.403  0.00  0.00    +0.000 C 
ATOM     26  C   UNL     1       7.149   7.527  17.346  0.00  0.00    +0.000 C 
ATOM     27  C   UNL     1       8.233   7.594  18.436  0.00  0.00    +0.000 C 
ATOM     28  C   UNL     1       7.846   6.163  18.832  0.00  0.00    +0.000 C 
ENDBRANCH  22  25
ENDBRANCH  19  21
ENDBRANCH  17  19
ENDBRANCH   4  17
TORSDOF 6
ENDMDL
MODEL 4
REMARK VINA RESULT:      -7.2      2.114      2.522
REMARK  Name = 
REMARK  7 active torsions:
REMARK  status: ('A' for Active; 'I' for Inactive)
REMARK    1  A    between atoms: C_1  and  N_2
REMARK    2  A    between atoms: N_5  and  S_6
REMARK    3  A    between atoms: S_6  and  C_9
REMARK    4  A    between atoms: C_12  and  N_13
REMARK    5  A    between atoms: N_13  and  C_14
REMARK    6  A    between atoms: C_14  and  N_16
REMARK    7  A    between atoms: C_17  and  C_19
REMARK                            x       y       z     vdW  Elec       q    Type
REMARK                         _______ _______ _______ _____ _____    ______ ____
ROOT
ATOM      1  C   UNL     1       1.658   7.857  20.130  0.00  0.00    +0.000 A 
ATOM      2  C   UNL     1       2.249   8.105  18.887  0.00  0.00    +0.000 A 
ATOM      3  C   UNL     1       2.934   7.067  18.221  0.00  0.00    +0.000 A 
ATOM      4  C   UNL     1       3.057   5.796  18.811  0.00  0.00    +0.000 A 
ATOM      5  C   UNL     1       2.390   5.555  20.008  0.00  0.00    +0.000 A 
ATOM      6  C   UNL     1       1.744   6.583  20.690  0.00  0.00    +0.000 A 
ENDROOT
BRANCH   1   7
ATOM      7  S   UNL     1       0.859   9.146  21.075  0.00  0.00    +0.000 S 
ATOM      8  O   UNL     1       1.701   9.440  22.217  0.00  0.00    +0.000 OA
ATOM      9  O   UNL     1      -0.522   8.750  21.265  0.00  0.00    +0.000 OA
BRANCH   7  14
ATOM     10  C   UNL     1      -2.464  13.001  20.952  0.00  0.00    +0.000 C 
ATOM     11  N   UNL     1      -1.245  12.509  20.310  0.00  0.00    +0.000 NA
ATOM     12  C   UNL     1      -1.490  11.206  19.660  0.00  0.00    +0.000 C 
ATOM     13  C   UNL     1      -0.214  10.609  19.030  0.00  0.00    +0.000 C 
ATOM     14  N   UNL     1       0.905  10.485  20.017  0.00  0.00    +0.000 NA
ATOM     15  C   UNL     1       1.135  11.824  20.650  0.00  0.00    +0.000 C 
ATOM     16  C   UNL     1      -0.149  12.386  21.295  0.00  0.00    +0.000 C 
ENDBRANCH   7  14
ENDBRANCH   1   7
BRANCH   4  17
ATOM     17  N   UNL     1       3.839   4.808  18.174  0.00  0.00    +0.000 N 
ATOM     18  H   UNL     1       3.317   4.114  17.634  0.00  0.00    +0.000 HD
BRANCH  17  19
ATOM     19  C   UNL     1       5.218   4.701  18.036  0.00  0.00    +0.000 C 
ATOM     20  S   UNL     1       6.432   5.226  19.064  0.00  0.00    +0.000 S 
BRANCH  19  21
ATOM     21  N   UNL     1       5.655   4.134  16.845  0.00  0.00    +0.000 N 
ATOM     22  C   UNL     1       5.666   4.721  15.583  0.00  0.00    +0.000 C 
ATOM     23  O   UNL     1       5.146   5.820  15.390  0.00  0.00    +0.000 OA
ATOM     24  H   UNL     1       6.070   3.220  16.958  0.00  0.00    +0.000 HD
BRANCH  22  25
ATOM     25  C   UNL     1       6.376   3.934  14.451  0.00  0.00    +0.000 C 
ATOM     26  C   UNL     1       5.536   3.663  13.172  0.00  0.00    +0.000 C 
ATOM     27  C   UNL     1       6.769   4.032  12.331  0.00  0.00    +0.000 C 
ATOM     28  C   UNL     1       7.296   4.811  13.543  0.00  0.00    +0.000 C 
ENDBRANCH  22  25
ENDBRANCH  19  21
ENDBRANCH  17  19
ENDBRANCH   4  17
TORSDOF 6
ENDMDL
MODEL 5
REMARK VINA RESULT:      -7.1      2.389      3.608
REMARK  Name = 
REMARK  7 active torsions:
REMARK  status: ('A' for Active; 'I' for Inactive)
REMARK    1  A    between atoms: C_1  and  N_2
REMARK    2  A    between atoms: N_5  and  S_6
REMARK    3  A    between atoms: S_6  and  C_9
REMARK    4  A    between atoms: C_12  and  N_13
REMARK    5  A    between atoms: N_13  and  C_14
REMARK    6  A    between atoms: C_14  and  N_16
REMARK    7  A    between atoms: C_17  and  C_19
REMARK                            x       y       z     vdW  Elec       q    Type
REMARK                         _______ _______ _______ _____ _____    ______ ____
ROOT
ATOM      1  C   UNL     1       1.520   8.865  19.188  0.00  0.00    +0.000 A 
ATOM      2  C   UNL     1       2.069   8.975  17.907  0.00  0.00    +0.000 A 
ATOM      3  C   UNL     1       3.012   8.020  17.469  0.00  0.00    +0.000 A 
ATOM      4  C   UNL     1       3.428   6.982  18.321  0.00  0.00    +0.000 A 
ATOM      5  C   UNL     1       2.805   6.851  19.558  0.00  0.00    +0.000 A 
ATOM      6  C   UNL     1       1.902   7.807  20.012  0.00  0.00    +0.000 A 
ENDROOT
BRANCH   1   7
ATOM      7  S   UNL     1       0.394  10.088  19.846  0.00  0.00    +0.000 S 
ATOM      8  O   UNL     1       1.174  11.025  20.630  0.00  0.00    +0.000 OA
ATOM      9  O   UNL     1      -0.717   9.377  20.445  0.00  0.00    +0.000 OA
BRANCH   7  14
ATOM     10  C   UNL     1      -4.282  11.958  19.105  0.00  0.00    +0.000 C 
ATOM     11  N   UNL     1      -2.977  11.828  18.456  0.00  0.00    +0.000 NA
ATOM     12  C   UNL     1      -2.633  10.404  18.265  0.00  0.00    +0.000 C 
ATOM     13  C   UNL     1      -1.230  10.212  17.650  0.00  0.00    +0.000 C 
ATOM     14  N   UNL     1      -0.161  10.893  18.446  0.00  0.00    +0.000 NA
ATOM     15  C   UNL     1      -0.534  12.335  18.614  0.00  0.00    +0.000 C 
ATOM     16  C   UNL     1      -1.928  12.500  19.254  0.00  0.00    +0.000 C 
ENDBRANCH   7  14
ENDBRANCH   1   7
BRANCH   4  17
ATOM     17  N   UNL     1       4.451   6.106  17.898  0.00  0.00    +0.000 N 
ATOM     18  H   UNL     1       5.406   6.441  18.044  0.00  0.00    +0.000 HD
BRANCH  17  19
ATOM     19  C   UNL     1       4.385   4.792  17.448  0.00  0.00    +0.000 C 
ATOM     20  S   UNL     1       5.116   4.088  16.115  0.00  0.00    +0.000 S 
BRANCH  19  21
ATOM     21  N   UNL     1       3.541   3.956  18.170  0.00  0.00    +0.000 N 
ATOM     22  C   UNL     1       3.863   3.190  19.288  0.00  0.00    +0.000 C 
ATOM     23  O   UNL     1       5.026   3.098  19.680  0.00  0.00    +0.000 OA
ATOM     24  H   UNL     1       2.578   3.988  17.864  0.00  0.00    +0.000 HD
BRANCH  22  25
ATOM     25  C   UNL     1       2.688   2.485  20.014  0.00  0.00    +0.000 C 
ATOM     26  C   UNL     1       2.714   2.533  21.567  0.00  0.00    +0.000 C 
ATOM     27  C   UNL     1       1.207   2.838  21.543  0.00  0.00    +0.000 C 
ATOM     28  C   UNL     1       1.386   3.343  20.106  0.00  0.00    +0.000 C 
ENDBRANCH  22  25
ENDBRANCH  19  21
ENDBRANCH  17  19
ENDBRANCH   4  17
TORSDOF 6
ENDMDL
MODEL 6
REMARK VINA RESULT:      -7.1      1.513      2.097
REMARK  Name = 
REMARK  7 active torsions:
REMARK  status: ('A' for Active; 'I' for Inactive)
REMARK    1  A    between atoms: C_1  and  N_2
REMARK    2  A    between atoms: N_5  and  S_6
REMARK    3  A    between atoms: S_6  and  C_9
REMARK    4  A    between atoms: C_12  and  N_13
REMARK    5  A    between atoms: N_13  and  C_14
REMARK    6  A    between atoms: C_14  and  N_16
REMARK    7  A    between atoms: C_17  and  C_19
REMARK                            x       y       z     vdW  Elec       q    Type
REMARK                         _______ _______ _______ _____ _____    ______ ____
ROOT
ATOM      1  C   UNL     1       1.905   8.389  18.774  0.00  0.00    +0.000 A 
ATOM      2  C   UNL     1       1.803   7.649  19.956  0.00  0.00    +0.000 A 
ATOM      3  C   UNL     1       2.266   6.316  19.986  0.00  0.00    +0.000 A 
ATOM      4  C   UNL     1       2.796   5.716  18.830  0.00  0.00    +0.000 A 
ATOM      5  C   UNL     1       2.960   6.501  17.693  0.00  0.00    +0.000 A 
ATOM      6  C   UNL     1       2.473   7.804  17.643  0.00  0.00    +0.000 A 
ENDROOT
BRANCH   1   7
ATOM      7  S   UNL     1       1.254  10.048  18.634  0.00  0.00    +0.000 S 
ATOM      8  O   UNL     1      -0.016   9.964  17.940  0.00  0.00    +0.000 OA
ATOM      9  O   UNL     1       2.317  10.888  18.119  0.00  0.00    +0.000 OA
BRANCH   7  14
ATOM     10  C   UNL     1      -1.530  14.003  20.222  0.00  0.00    +0.000 C 
ATOM     11  N   UNL     1      -0.747  12.872  20.719  0.00  0.00    +0.000 NA
ATOM     12  C   UNL     1       0.663  12.991  20.293  0.00  0.00    +0.000 C 
ATOM     13  C   UNL     1       1.518  11.782  20.730  0.00  0.00    +0.000 C 
ATOM     14  N   UNL     1       0.949  10.481  20.257  0.00  0.00    +0.000 NA
ATOM     15  C   UNL     1      -0.476  10.386  20.712  0.00  0.00    +0.000 C 
ATOM     16  C   UNL     1      -1.314  11.592  20.240  0.00  0.00    +0.000 C 
ENDBRANCH   7  14
ENDBRANCH   1   7
BRANCH   4  17
ATOM     17  N   UNL     1       3.151   4.350  18.858  0.00  0.00    +0.000 N 
ATOM     18  H   UNL     1       2.545   3.727  18.318  0.00  0.00    +0.000 HD
BRANCH  17  19
ATOM     19  C   UNL     1       4.275   3.721  19.379  0.00  0.00    +0.000 C 
ATOM     20  S   UNL     1       4.375   2.382  20.381  0.00  0.00    +0.000 S 
BRANCH  19  21
ATOM     21  N   UNL     1       5.490   4.325  19.077  0.00  0.00    +0.000 N 
ATOM     22  C   UNL     1       6.047   4.519  17.815  0.00  0.00    +0.000 C 
ATOM     23  O   UNL     1       5.527   4.034  16.811  0.00  0.00    +0.000 OA
ATOM     24  H   UNL     1       5.960   4.716  19.881  0.00  0.00    +0.000 HD
BRANCH  22  25
ATOM     25  C   UNL     1       7.333   5.383  17.744  0.00  0.00    +0.000 C 
ATOM     26  C   UNL     1       7.139   6.866  17.322  0.00  0.00    +0.000 C 
ATOM     27  C   UNL     1       8.126   7.270  18.431  0.00  0.00    +0.000 C 
ATOM     28  C   UNL     1       7.806   5.940  19.125  0.00  0.00    +0.000 C 
ENDBRANCH  22  25
ENDBRANCH  19  21
ENDBRANCH  17  19
ENDBRANCH   4  17
TORSDOF 6
ENDMDL
MODEL 7
REMARK VINA RESULT:      -7.1      2.778      8.669
REMARK  Name = 
REMARK  7 active torsions:
REMARK  status: ('A' for Active; 'I' for Inactive)
REMARK    1  A    between atoms: C_1  and  N_2
REMARK    2  A    between atoms: N_5  and  S_6
REMARK    3  A    between atoms: S_6  and  C_9
REMARK    4  A    between atoms: C_12  and  N_13
REMARK    5  A    between atoms: N_13  and  C_14
REMARK    6  A    between atoms: C_14  and  N_16
REMARK    7  A    between atoms: C_17  and  C_19
REMARK                            x       y       z     vdW  Elec       q    Type
REMARK                         _______ _______ _______ _____ _____    ______ ____
ROOT
ATOM      1  C   UNL     1       2.219   7.691  18.754  0.00  0.00    +0.000 A 
ATOM      2  C   UNL     1       2.061   8.778  17.888  0.00  0.00    +0.000 A 
ATOM      3  C   UNL     1       1.514   9.984  18.376  0.00  0.00    +0.000 A 
ATOM      4  C   UNL     1       1.097  10.092  19.714  0.00  0.00    +0.000 A 
ATOM      5  C   UNL     1       1.341   9.023  20.571  0.00  0.00    +0.000 A 
ATOM      6  C   UNL     1       1.845   7.818  20.091  0.00  0.00    +0.000 A 
ENDROOT
BRANCH   1   7
ATOM      7  S   UNL     1       2.814   6.104  18.186  0.00  0.00    +0.000 S 
ATOM      8  O   UNL     1       3.927   6.348  17.290  0.00  0.00    +0.000 OA
ATOM      9  O   UNL     1       1.663   5.347  17.736  0.00  0.00    +0.000 OA
BRANCH   7  14
ATOM     10  C   UNL     1       3.880   1.172  18.855  0.00  0.00    +0.000 C 
ATOM     11  N   UNL     1       3.907   2.461  19.546  0.00  0.00    +0.000 NA
ATOM     12  C   UNL     1       2.544   3.018  19.657  0.00  0.00    +0.000 C 
ATOM     13  C   UNL     1       2.526   4.414  20.315  0.00  0.00    +0.000 C 
ATOM     14  N   UNL     1       3.420   5.387  19.611  0.00  0.00    +0.000 NA
ATOM     15  C   UNL     1       4.796   4.797  19.524  0.00  0.00    +0.000 C 
ATOM     16  C   UNL     1       4.789   3.415  18.839  0.00  0.00    +0.000 C 
ENDBRANCH   7  14
ENDBRANCH   1   7
BRANCH   4  17
ATOM     17  N   UNL     1       0.454  11.271  20.148  0.00  0.00    +0.000 N 
ATOM     18  H   UNL     1       0.996  12.132  20.042  0.00  0.00    +0.000 HD
BRANCH  17  19
ATOM     19  C   UNL     1      -0.856  11.483  20.562  0.00  0.00    +0.000 C 
ATOM     20  S   UNL     1      -1.436  11.895  22.080  0.00  0.00    +0.000 S 
BRANCH  19  21
ATOM     21  N   UNL     1      -1.830  11.262  19.597  0.00  0.00    +0.000 N 
ATOM     22  C   UNL     1      -1.903  11.823  18.325  0.00  0.00    +0.000 C 
ATOM     23  O   UNL     1      -1.122  12.707  17.976  0.00  0.00    +0.000 OA
ATOM     24  H   UNL     1      -2.505  10.556  19.856  0.00  0.00    +0.000 HD
BRANCH  22  25
ATOM     25  C   UNL     1      -2.997  11.267  17.377  0.00  0.00    +0.000 C 
ATOM     26  C   UNL     1      -2.590  11.092  15.887  0.00  0.00    +0.000 C 
ATOM     27  C   UNL     1      -3.308   9.731  15.892  0.00  0.00    +0.000 C 
ATOM     28  C   UNL     1      -3.148   9.713  17.417  0.00  0.00    +0.000 C 
ENDBRANCH  22  25
ENDBRANCH  19  21
ENDBRANCH  17  19
ENDBRANCH   4  17
TORSDOF 6
ENDMDL
MODEL 8
REMARK VINA RESULT:      -7.1      2.320      3.136
REMARK  Name = 
REMARK  7 active torsions:
REMARK  status: ('A' for Active; 'I' for Inactive)
REMARK    1  A    between atoms: C_1  and  N_2
REMARK    2  A    between atoms: N_5  and  S_6
REMARK    3  A    between atoms: S_6  and  C_9
REMARK    4  A    between atoms: C_12  and  N_13
REMARK    5  A    between atoms: N_13  and  C_14
REMARK    6  A    between atoms: C_14  and  N_16
REMARK    7  A    between atoms: C_17  and  C_19
REMARK                            x       y       z     vdW  Elec       q    Type
REMARK                         _______ _______ _______ _____ _____    ______ ____
ROOT
ATOM      1  C   UNL     1       0.676   9.746  19.128  0.00  0.00    +0.000 A 
ATOM      2  C   UNL     1       0.916   9.035  20.308  0.00  0.00    +0.000 A 
ATOM      3  C   UNL     1       1.768   7.910  20.282  0.00  0.00    +0.000 A 
ATOM      4  C   UNL     1       2.348   7.479  19.077  0.00  0.00    +0.000 A 
ATOM      5  C   UNL     1       2.157   8.252  17.936  0.00  0.00    +0.000 A 
ATOM      6  C   UNL     1       1.290   9.341  17.944  0.00  0.00    +0.000 A 
ENDROOT
BRANCH   1   7
ATOM      7  S   UNL     1      -0.464  11.121  19.065  0.00  0.00    +0.000 S 
ATOM      8  O   UNL     1      -0.982  11.325  20.403  0.00  0.00    +0.000 OA
ATOM      9  O   UNL     1      -1.369  10.883  17.957  0.00  0.00    +0.000 OA
BRANCH   7  14
ATOM     10  C   UNL     1       0.474  15.166  22.010  0.00  0.00    +0.000 C 
ATOM     11  N   UNL     1       0.808  14.585  20.709  0.00  0.00    +0.000 NA
ATOM     12  C   UNL     1      -0.403  14.454  19.873  0.00  0.00    +0.000 C 
ATOM     13  C   UNL     1      -0.115  13.777  18.516  0.00  0.00    +0.000 C 
ATOM     14  N   UNL     1       0.545  12.442  18.674  0.00  0.00    +0.000 NA
ATOM     15  C   UNL     1       1.773  12.611  19.517  0.00  0.00    +0.000 C 
ATOM     16  C   UNL     1       1.453  13.265  20.877  0.00  0.00    +0.000 C 
ENDBRANCH   7  14
ENDBRANCH   1   7
BRANCH   4  17
ATOM     17  N   UNL     1       3.107   6.289  19.058  0.00  0.00    +0.000 N 
ATOM     18  H   UNL     1       3.708   6.137  19.872  0.00  0.00    +0.000 HD
BRANCH  17  19
ATOM     19  C   UNL     1       3.068   5.208  18.185  0.00  0.00    +0.000 C 
ATOM     20  S   UNL     1       1.876   4.049  17.982  0.00  0.00    +0.000 S 
BRANCH  19  21
ATOM     21  N   UNL     1       4.209   5.025  17.412  0.00  0.00    +0.000 N 
ATOM     22  C   UNL     1       5.448   4.548  17.833  0.00  0.00    +0.000 C 
ATOM     23  O   UNL     1       5.679   4.348  19.025  0.00  0.00    +0.000 OA
ATOM     24  H   UNL     1       4.065   5.201  16.427  0.00  0.00    +0.000 HD
BRANCH  22  25
ATOM     25  C   UNL     1       6.501   4.268  16.729  0.00  0.00    +0.000 C 
ATOM     26  C   UNL     1       5.945   3.832  15.345  0.00  0.00    +0.000 C 
ATOM     27  C   UNL     1       6.963   4.777  14.683  0.00  0.00    +0.000 C 
ATOM     28  C   UNL     1       7.026   5.549  16.007  0.00  0.00    +0.000 C 
ENDBRANCH  22  25
ENDBRANCH  19  21
ENDBRANCH  17  19
ENDBRANCH   4  17
TORSDOF 6
ENDMDL
MODEL 9
REMARK VINA RESULT:      -7.1      3.120      8.785
REMARK  Name = 
REMARK  7 active torsions:
REMARK  status: ('A' for Active; 'I' for Inactive)
REMARK    1  A    between atoms: C_1  and  N_2
REMARK    2  A    between atoms: N_5  and  S_6
REMARK    3  A    between atoms: S_6  and  C_9
REMARK    4  A    between atoms: C_12  and  N_13
REMARK    5  A    between atoms: N_13  and  C_14
REMARK    6  A    between atoms: C_14  and  N_16
REMARK    7  A    between atoms: C_17  and  C_19
REMARK                            x       y       z     vdW  Elec       q    Type
REMARK                         _______ _______ _______ _____ _____    ______ ____
ROOT
ATOM      1  C   UNL     1       1.983   7.281  19.870  0.00  0.00    +0.000 A 
ATOM      2  C   UNL     1       1.302   7.804  20.974  0.00  0.00    +0.000 A 
ATOM      3  C   UNL     1       0.754   9.103  20.903  0.00  0.00    +0.000 A 
ATOM      4  C   UNL     1       0.917   9.887  19.748  0.00  0.00    +0.000 A 
ATOM      5  C   UNL     1       1.528   9.311  18.638  0.00  0.00    +0.000 A 
ATOM      6  C   UNL     1       2.103   8.046  18.711  0.00  0.00    +0.000 A 
ENDROOT
BRANCH   1   7
ATOM      7  S   UNL     1       2.785   5.685  19.920  0.00  0.00    +0.000 S 
ATOM      8  O   UNL     1       2.427   5.053  21.175  0.00  0.00    +0.000 OA
ATOM      9  O   UNL     1       4.177   5.888  19.572  0.00  0.00    +0.000 OA
BRANCH   7  14
ATOM     10  C   UNL     1       3.914   0.972  18.361  0.00  0.00    +0.000 C 
ATOM     11  N   UNL     1       3.006   2.088  18.094  0.00  0.00    +0.000 NA
ATOM     12  C   UNL     1       3.764   3.284  17.675  0.00  0.00    +0.000 C 
ATOM     13  C   UNL     1       2.856   4.512  17.452  0.00  0.00    +0.000 C 
ATOM     14  N   UNL     1       2.022   4.831  18.654  0.00  0.00    +0.000 NA
ATOM     15  C   UNL     1       1.260   3.601  19.048  0.00  0.00    +0.000 C 
ATOM     16  C   UNL     1       2.192   2.397  19.290  0.00  0.00    +0.000 C 
ENDBRANCH   7  14
ENDBRANCH   1   7
BRANCH   4  17
ATOM     17  N   UNL     1       0.454  11.221  19.743  0.00  0.00    +0.000 N 
ATOM     18  H   UNL     1       0.697  11.774  20.568  0.00  0.00    +0.000 HD
BRANCH  17  19
ATOM     19  C   UNL     1      -0.154  11.961  18.735  0.00  0.00    +0.000 C 
ATOM     20  S   UNL     1       0.000  13.589  18.372  0.00  0.00    +0.000 S 
BRANCH  19  21
ATOM     21  N   UNL     1      -1.070  11.265  17.955  0.00  0.00    +0.000 N 
ATOM     22  C   UNL     1      -2.452  11.216  18.116  0.00  0.00    +0.000 C 
ATOM     23  O   UNL     1      -2.995  11.725  19.097  0.00  0.00    +0.000 OA
ATOM     24  H   UNL     1      -0.659  10.814  17.150  0.00  0.00    +0.000 HD
BRANCH  22  25
ATOM     25  C   UNL     1      -3.262  10.511  16.997  0.00  0.00    +0.000 C 
ATOM     26  C   UNL     1      -3.488  11.329  15.695  0.00  0.00    +0.000 C 
ATOM     27  C   UNL     1      -3.167  10.059  14.889  0.00  0.00    +0.000 C 
ATOM     28  C   UNL     1      -2.420   9.531  16.120  0.00  0.00    +0.000 C 
ENDBRANCH  22  25
ENDBRANCH  19  21
ENDBRANCH  17  19
ENDBRANCH   4  17
TORSDOF 6
ENDMDL
