MODEL 1
REMARK VINA RESULT:      -8.0      0.000      0.000
REMARK  Name = 
REMARK  8 active torsions:
REMARK  status: ('A' for Active; 'I' for Inactive)
REMARK    1  A    between atoms: C_1  and  C_2
REMARK    2  A    between atoms: C_2  and  C_3
REMARK    3  A    between atoms: C_2  and  C_4
REMARK    4  A    between atoms: C_2  and  C_5
REMARK    5  A    between atoms: C_8  and  C_9
REMARK    6  A    between atoms: C_12  and  C_14
REMARK    7  A    between atoms: C_14  and  S_15
REMARK    8  A    between atoms: S_15  and  C_16
REMARK                            x       y       z     vdW  Elec       q    Type
REMARK                         _______ _______ _______ _____ _____    ______ ____
ROOT
ATOM      1  C   UNL     1       3.233   5.560  18.410  0.00  0.00    +0.000 C 
ATOM      2  O   UNL     1       3.160   4.576  19.142  0.00  0.00    +0.000 OA
ATOM      3  N   UNL     1       3.919   5.578  17.210  0.00  0.00    +0.000 N 
ATOM      4  C   UNL     1       4.530   4.452  16.667  0.00  0.00    +0.000 C 
ATOM      5  O   UNL     1       4.566   3.335  17.180  0.00  0.00    +0.000 OA
ATOM      6  H   UNL     1       3.840   6.384  16.604  0.00  0.00    +0.000 HD
ENDROOT
BRANCH   1  10
ATOM      7  C   UNL     1       1.234   9.282  19.489  0.00  0.00    +0.000 A 
ATOM      8  C   UNL     1       1.698   9.002  18.197  0.00  0.00    +0.000 A 
ATOM      9  C   UNL     1       2.343   7.799  17.897  0.00  0.00    +0.000 A 
ATOM     10  C   UNL     1       2.548   6.815  18.873  0.00  0.00    +0.000 A 
ATOM     11  C   UNL     1       2.083   7.064  20.164  0.00  0.00    +0.000 A 
ATOM     12  C   UNL     1       1.441   8.284  20.465  0.00  0.00    +0.000 A 
BRANCH   7  14
ATOM     13  C   UNL     1       0.535  10.944  21.337  0.00  0.00    +0.000 C 
ATOM     14  C   UNL     1       0.527  10.609  19.825  0.00  0.00    +0.000 C 
ATOM     15  C   UNL     1      -0.952  10.549  19.386  0.00  0.00    +0.000 C 
ATOM     16  C   UNL     1       1.220  11.781  19.099  0.00  0.00    +0.000 C 
ENDBRANCH   7  14
ENDBRANCH   1  10
BRANCH   4  17
ATOM     17  C   UNL     1       5.221   4.697  15.339  0.00  0.00    +0.000 C 
BRANCH  17  18
ATOM     18  S   UNL     1       6.991   4.357  15.467  0.00  0.00    +0.000 S 
BRANCH  18  19
ATOM     19  C   UNL     1       7.375   5.210  16.929  0.00  0.00    +0.000 A 
ATOM     20  N   UNL     1       7.451   6.540  16.955  0.00  0.00    +0.000 NA
ATOM     21  N   UNL     1       7.762   6.763  18.240  0.00  0.00    +0.000 N 
ATOM     22  C   UNL     1       7.902   5.587  18.924  0.00  0.00    +0.000 A 
ATOM     23  N   UNL     1       8.279   5.537  20.210  0.00  0.00    +0.000 N 
ATOM     24  N   UNL     1       7.615   4.586  18.130  0.00  0.00    +0.000 NA
ATOM     25  H   UNL     1       7.874   7.713  18.571  0.00  0.00    +0.000 HD
ATOM     26  H   UNL     1       8.717   6.334  20.663  0.00  0.00    +0.000 HD
ATOM     27  H   UNL     1       8.646   4.652  20.547  0.00  0.00    +0.000 HD
ENDBRANCH  18  19
ENDBRANCH  17  18
ENDBRANCH   4  17
TORSDOF 5
ENDMDL
MODEL 2
REMARK VINA RESULT:      -8.0      0.478      1.324
REMARK  Name = 
REMARK  8 active torsions:
REMARK  status: ('A' for Active; 'I' for Inactive)
REMARK    1  A    between atoms: C_1  and  C_2
REMARK    2  A    between atoms: C_2  and  C_3
REMARK    3  A    between atoms: C_2  and  C_4
REMARK    4  A    between atoms: C_2  and  C_5
REMARK    5  A    between atoms: C_8  and  C_9
REMARK    6  A    between atoms: C_12  and  C_14
REMARK    7  A    between atoms: C_14  and  S_15
REMARK    8  A    between atoms: S_15  and  C_16
REMARK                            x       y       z     vdW  Elec       q    Type
REMARK                         _______ _______ _______ _____ _____    ______ ____
ROOT
ATOM      1  C   UNL     1       3.106   5.566  18.534  0.00  0.00    +0.000 C 
ATOM      2  O   UNL     1       3.046   4.616  19.310  0.00  0.00    +0.000 OA
ATOM      3  N   UNL     1       3.775   5.532  17.325  0.00  0.00    +0.000 N 
ATOM      4  C   UNL     1       4.381   4.385  16.823  0.00  0.00    +0.000 C 
ATOM      5  O   UNL     1       4.427   3.291  17.385  0.00  0.00    +0.000 OA
ATOM      6  H   UNL     1       3.686   6.311  16.686  0.00  0.00    +0.000 HD
ENDROOT
BRANCH   1  10
ATOM      7  C   UNL     1       1.134   9.166  20.005  0.00  0.00    +0.000 A 
ATOM      8  C   UNL     1       1.373   8.038  20.801  0.00  0.00    +0.000 A 
ATOM      9  C   UNL     1       2.000   6.900  20.285  0.00  0.00    +0.000 A 
ATOM     10  C   UNL     1       2.424   6.839  18.951  0.00  0.00    +0.000 A 
ATOM     11  C   UNL     1       2.210   7.954  18.142  0.00  0.00    +0.000 A 
ATOM     12  C   UNL     1       1.567   9.097  18.664  0.00  0.00    +0.000 A 
BRANCH   7  14
ATOM     13  C   UNL     1       1.331  11.685  20.535  0.00  0.00    +0.000 C 
ATOM     14  C   UNL     1       0.438  10.420  20.568  0.00  0.00    +0.000 C 
ATOM     15  C   UNL     1       0.039  10.191  22.041  0.00  0.00    +0.000 C 
ATOM     16  C   UNL     1      -0.829  10.740  19.748  0.00  0.00    +0.000 C 
ENDBRANCH   7  14
ENDBRANCH   1  10
BRANCH   4  17
ATOM     17  C   UNL     1       5.053   4.572  15.477  0.00  0.00    +0.000 C 
BRANCH  17  18
ATOM     18  S   UNL     1       6.815   4.182  15.581  0.00  0.00    +0.000 S 
BRANCH  18  19
ATOM     19  C   UNL     1       7.261   5.095  16.988  0.00  0.00    +0.000 A 
ATOM     20  N   UNL     1       7.382   6.421  16.943  0.00  0.00    +0.000 NA
ATOM     21  N   UNL     1       7.730   6.699  18.208  0.00  0.00    +0.000 N 
ATOM     22  C   UNL     1       7.847   5.556  18.949  0.00  0.00    +0.000 A 
ATOM     23  N   UNL     1       8.251   5.559  20.228  0.00  0.00    +0.000 N 
ATOM     24  N   UNL     1       7.507   4.525  18.215  0.00  0.00    +0.000 NA
ATOM     25  H   UNL     1       7.881   7.660  18.487  0.00  0.00    +0.000 HD
ATOM     26  H   UNL     1       8.726   6.362  20.629  0.00  0.00    +0.000 HD
ATOM     27  H   UNL     1       8.596   4.679  20.602  0.00  0.00    +0.000 HD
ENDBRANCH  18  19
ENDBRANCH  17  18
ENDBRANCH   4  17
TORSDOF 5
ENDMDL
MODEL 3
REMARK VINA RESULT:      -7.9      1.731      2.468
REMARK  Name = 
REMARK  8 active torsions:
REMARK  status: ('A' for Active; 'I' for Inactive)
REMARK    1  A    between atoms: C_1  and  C_2
REMARK    2  A    between atoms: C_2  and  C_3
REMARK    3  A    between atoms: C_2  and  C_4
REMARK    4  A    between atoms: C_2  and  C_5
REMARK    5  A    between atoms: C_8  and  C_9
REMARK    6  A    between atoms: C_12  and  C_14
REMARK    7  A    between atoms: C_14  and  S_15
REMARK    8  A    between atoms: S_15  and  C_16
REMARK                            x       y       z     vdW  Elec       q    Type
REMARK                         _______ _______ _______ _____ _____    ______ ____
ROOT
ATOM      1  C   UNL     1       3.241   5.974  19.040  0.00  0.00    +0.000 C 
ATOM      2  O   UNL     1       2.636   4.939  18.772  0.00  0.00    +0.000 OA
ATOM      3  N   UNL     1       4.609   6.039  19.230  0.00  0.00    +0.000 N 
ATOM      4  C   UNL     1       5.454   4.949  19.055  0.00  0.00    +0.000 C 
ATOM      5  O   UNL     1       5.105   3.810  18.747  0.00  0.00    +0.000 OA
ATOM      6  H   UNL     1       5.054   6.942  19.333  0.00  0.00    +0.000 HD
ENDROOT
BRANCH   1  10
ATOM      7  C   UNL     1       0.884   9.639  19.188  0.00  0.00    +0.000 A 
ATOM      8  C   UNL     1       1.479   9.152  18.017  0.00  0.00    +0.000 A 
ATOM      9  C   UNL     1       2.236   7.976  18.017  0.00  0.00    +0.000 A 
ATOM     10  C   UNL     1       2.427   7.228  19.186  0.00  0.00    +0.000 A 
ATOM     11  C   UNL     1       1.833   7.685  20.362  0.00  0.00    +0.000 A 
ATOM     12  C   UNL     1       1.078   8.878  20.360  0.00  0.00    +0.000 A 
BRANCH   7  14
ATOM     13  C   UNL     1      -0.553  11.272  20.579  0.00  0.00    +0.000 C 
ATOM     14  C   UNL     1       0.054  10.937  19.194  0.00  0.00    +0.000 C 
ATOM     15  C   UNL     1      -1.125  10.818  18.205  0.00  0.00    +0.000 C 
ATOM     16  C   UNL     1       0.934  12.135  18.784  0.00  0.00    +0.000 C 
ENDBRANCH   7  14
ENDBRANCH   1  10
BRANCH   4  17
ATOM     17  C   UNL     1       6.919   5.246  19.311  0.00  0.00    +0.000 C 
BRANCH  17  18
ATOM     18  S   UNL     1       7.530   6.494  18.156  0.00  0.00    +0.000 S 
BRANCH  18  19
ATOM     19  C   UNL     1       6.864   5.903  16.666  0.00  0.00    +0.000 A 
ATOM     20  N   UNL     1       5.857   6.531  16.061  0.00  0.00    +0.000 NA
ATOM     21  N   UNL     1       5.670   5.755  14.983  0.00  0.00    +0.000 N 
ATOM     22  C   UNL     1       6.521   4.685  14.993  0.00  0.00    +0.000 A 
ATOM     23  N   UNL     1       6.488   3.722  14.059  0.00  0.00    +0.000 N 
ATOM     24  N   UNL     1       7.325   4.778  16.023  0.00  0.00    +0.000 NA
ATOM     25  H   UNL     1       4.956   5.998  14.308  0.00  0.00    +0.000 HD
ATOM     26  H   UNL     1       5.681   3.603  13.454  0.00  0.00    +0.000 HD
ATOM     27  H   UNL     1       6.926   2.837  14.297  0.00  0.00    +0.000 HD
ENDBRANCH  18  19
ENDBRANCH  17  18
ENDBRANCH   4  17
TORSDOF 5
ENDMDL
MODEL 4
REMARK VINA RESULT:      -7.9      1.699      2.800
REMARK  Name = 
REMARK  8 active torsions:
REMARK  status: ('A' for Active; 'I' for Inactive)
REMARK    1  A    between atoms: C_1  and  C_2
REMARK    2  A    between atoms: C_2  and  C_3
REMARK    3  A    between atoms: C_2  and  C_4
REMARK    4  A    between atoms: C_2  and  C_5
REMARK    5  A    between atoms: C_8  and  C_9
REMARK    6  A    between atoms: C_12  and  C_14
REMARK    7  A    between atoms: C_14  and  S_15
REMARK    8  A    between atoms: S_15  and  C_16
REMARK                            x       y       z     vdW  Elec       q    Type
REMARK                         _______ _______ _______ _____ _____    ______ ____
ROOT
ATOM      1  C   UNL     1       3.237   6.038  18.896  0.00  0.00    +0.000 C 
ATOM      2  O   UNL     1       2.636   4.992  18.668  0.00  0.00    +0.000 OA
ATOM      3  N   UNL     1       4.600   6.111  19.121  0.00  0.00    +0.000 N 
ATOM      4  C   UNL     1       5.445   5.010  19.028  0.00  0.00    +0.000 C 
ATOM      5  O   UNL     1       5.100   3.857  18.771  0.00  0.00    +0.000 OA
ATOM      6  H   UNL     1       5.045   7.017  19.187  0.00  0.00    +0.000 HD
ENDROOT
BRANCH   1  10
ATOM      7  C   UNL     1       0.867   9.672  19.335  0.00  0.00    +0.000 A 
ATOM      8  C   UNL     1       1.122   8.785  20.389  0.00  0.00    +0.000 A 
ATOM      9  C   UNL     1       1.879   7.625  20.202  0.00  0.00    +0.000 A 
ATOM     10  C   UNL     1       2.424   7.301  18.952  0.00  0.00    +0.000 A 
ATOM     11  C   UNL     1       2.197   8.175  17.890  0.00  0.00    +0.000 A 
ATOM     12  C   UNL     1       1.423   9.340  18.081  0.00  0.00    +0.000 A 
BRANCH   7  14
ATOM     13  C   UNL     1      -1.370  10.876  18.874  0.00  0.00    +0.000 C 
ATOM     14  C   UNL     1       0.029  10.948  19.536  0.00  0.00    +0.000 C 
ATOM     15  C   UNL     1       0.755  12.163  18.921  0.00  0.00    +0.000 C 
ATOM     16  C   UNL     1      -0.197  11.206  21.040  0.00  0.00    +0.000 C 
ENDBRANCH   7  14
ENDBRANCH   1  10
BRANCH   4  17
ATOM     17  C   UNL     1       6.903   5.317  19.308  0.00  0.00    +0.000 C 
BRANCH  17  18
ATOM     18  S   UNL     1       7.545   6.517  18.119  0.00  0.00    +0.000 S 
BRANCH  18  19
ATOM     19  C   UNL     1       6.863   5.902  16.645  0.00  0.00    +0.000 A 
ATOM     20  N   UNL     1       5.861   6.530  16.031  0.00  0.00    +0.000 NA
ATOM     21  N   UNL     1       5.658   5.733  14.973  0.00  0.00    +0.000 N 
ATOM     22  C   UNL     1       6.494   4.652  15.002  0.00  0.00    +0.000 A 
ATOM     23  N   UNL     1       6.442   3.668  14.091  0.00  0.00    +0.000 N 
ATOM     24  N   UNL     1       7.305   4.757  16.026  0.00  0.00    +0.000 NA
ATOM     25  H   UNL     1       4.945   5.971  14.295  0.00  0.00    +0.000 HD
ATOM     26  H   UNL     1       5.631   3.547  13.492  0.00  0.00    +0.000 HD
ATOM     27  H   UNL     1       6.869   2.783  14.346  0.00  0.00    +0.000 HD
ENDBRANCH  18  19
ENDBRANCH  17  18
ENDBRANCH   4  17
TORSDOF 5
ENDMDL
MODEL 5
REMARK VINA RESULT:      -7.8      1.056      1.655
REMARK  Name = 
REMARK  8 active torsions:
REMARK  status: ('A' for Active; 'I' for Inactive)
REMARK    1  A    between atoms: C_1  and  C_2
REMARK    2  A    between atoms: C_2  and  C_3
REMARK    3  A    between atoms: C_2  and  C_4
REMARK    4  A    between atoms: C_2  and  C_5
REMARK    5  A    between atoms: C_8  and  C_9
REMARK    6  A    between atoms: C_12  and  C_14
REMARK    7  A    between atoms: C_14  and  S_15
REMARK    8  A    between atoms: S_15  and  C_16
REMARK                            x       y       z     vdW  Elec       q    Type
REMARK                         _______ _______ _______ _____ _____    ______ ____
ROOT
ATOM      1  C   UNL     1       3.164   6.137  18.987  0.00  0.00    +0.000 C 
ATOM      2  O   UNL     1       3.242   5.376  19.948  0.00  0.00    +0.000 OA
ATOM      3  N   UNL     1       3.794   5.916  17.776  0.00  0.00    +0.000 N 
ATOM      4  C   UNL     1       4.518   4.761  17.495  0.00  0.00    +0.000 C 
ATOM      5  O   UNL     1       4.712   3.827  18.272  0.00  0.00    +0.000 OA
ATOM      6  H   UNL     1       3.592   6.523  16.993  0.00  0.00    +0.000 HD
ENDROOT
BRANCH   1  10
ATOM      7  C   UNL     1       0.803   9.795  19.221  0.00  0.00    +0.000 A 
ATOM      8  C   UNL     1       1.407   9.341  18.041  0.00  0.00    +0.000 A 
ATOM      9  C   UNL     1       2.164   8.166  18.013  0.00  0.00    +0.000 A 
ATOM     10  C   UNL     1       2.348   7.386  19.162  0.00  0.00    +0.000 A 
ATOM     11  C   UNL     1       1.746   7.810  20.346  0.00  0.00    +0.000 A 
ATOM     12  C   UNL     1       0.990   9.001  20.373  0.00  0.00    +0.000 A 
BRANCH   7  14
ATOM     13  C   UNL     1       0.754  12.337  18.770  0.00  0.00    +0.000 C 
ATOM     14  C   UNL     1      -0.028  11.092  19.257  0.00  0.00    +0.000 C 
ATOM     15  C   UNL     1      -0.489  11.387  20.700  0.00  0.00    +0.000 C 
ATOM     16  C   UNL     1      -1.269  10.955  18.351  0.00  0.00    +0.000 C 
ENDBRANCH   7  14
ENDBRANCH   1  10
BRANCH   4  17
ATOM     17  C   UNL     1       5.120   4.725  16.104  0.00  0.00    +0.000 C 
BRANCH  17  18
ATOM     18  S   UNL     1       6.897   4.409  16.184  0.00  0.00    +0.000 S 
BRANCH  18  19
ATOM     19  C   UNL     1       7.413   5.734  17.180  0.00  0.00    +0.000 A 
ATOM     20  N   UNL     1       7.746   5.550  18.457  0.00  0.00    +0.000 NA
ATOM     21  N   UNL     1       8.068   6.798  18.829  0.00  0.00    +0.000 N 
ATOM     22  C   UNL     1       7.883   7.681  17.801  0.00  0.00    +0.000 A 
ATOM     23  N   UNL     1       8.069   9.003  17.938  0.00  0.00    +0.000 N 
ATOM     24  N   UNL     1       7.515   7.028  16.727  0.00  0.00    +0.000 NA
ATOM     25  H   UNL     1       8.385   6.974  19.774  0.00  0.00    +0.000 HD
ATOM     26  H   UNL     1       8.109   9.437  18.855  0.00  0.00    +0.000 HD
ATOM     27  H   UNL     1       7.631   9.602  17.245  0.00  0.00    +0.000 HD
ENDBRANCH  18  19
ENDBRANCH  17  18
ENDBRANCH   4  17
TORSDOF 5
ENDMDL
MODEL 6
REMARK VINA RESULT:      -7.8      0.998      1.573
REMARK  Name = 
REMARK  8 active torsions:
REMARK  status: ('A' for Active; 'I' for Inactive)
REMARK    1  A    between atoms: C_1  and  C_2
REMARK    2  A    between atoms: C_2  and  C_3
REMARK    3  A    between atoms: C_2  and  C_4
REMARK    4  A    between atoms: C_2  and  C_5
REMARK    5  A    between atoms: C_8  and  C_9
REMARK    6  A    between atoms: C_12  and  C_14
REMARK    7  A    between atoms: C_14  and  S_15
REMARK    8  A    between atoms: S_15  and  C_16
REMARK                            x       y       z     vdW  Elec       q    Type
REMARK                         _______ _______ _______ _____ _____    ______ ____
ROOT
ATOM      1  C   UNL     1       3.236   6.016  18.833  0.00  0.00    +0.000 C 
ATOM      2  O   UNL     1       3.488   5.437  19.886  0.00  0.00    +0.000 OA
ATOM      3  N   UNL     1       3.661   5.577  17.592  0.00  0.00    +0.000 N 
ATOM      4  C   UNL     1       4.350   4.383  17.403  0.00  0.00    +0.000 C 
ATOM      5  O   UNL     1       4.688   3.599  18.289  0.00  0.00    +0.000 OA
ATOM      6  H   UNL     1       3.320   6.037  16.758  0.00  0.00    +0.000 HD
ENDROOT
BRANCH   1  10
ATOM      7  C   UNL     1       0.913   9.668  19.358  0.00  0.00    +0.000 A 
ATOM      8  C   UNL     1       1.187   8.772  20.399  0.00  0.00    +0.000 A 
ATOM      9  C   UNL     1       1.928   7.606  20.184  0.00  0.00    +0.000 A 
ATOM     10  C   UNL     1       2.437   7.285  18.918  0.00  0.00    +0.000 A 
ATOM     11  C   UNL     1       2.190   8.168  17.868  0.00  0.00    +0.000 A 
ATOM     12  C   UNL     1       1.433   9.339  18.087  0.00  0.00    +0.000 A 
BRANCH   7  14
ATOM     13  C   UNL     1       0.954  12.238  19.598  0.00  0.00    +0.000 C 
ATOM     14  C   UNL     1       0.092  10.951  19.589  0.00  0.00    +0.000 C 
ATOM     15  C   UNL     1      -0.627  10.883  20.953  0.00  0.00    +0.000 C 
ATOM     16  C   UNL     1      -0.960  11.119  18.474  0.00  0.00    +0.000 C 
ENDBRANCH   7  14
ENDBRANCH   1  10
BRANCH   4  17
ATOM     17  C   UNL     1       4.713   4.094  15.959  0.00  0.00    +0.000 C 
BRANCH  17  18
ATOM     18  S   UNL     1       6.505   4.141  15.728  0.00  0.00    +0.000 S 
BRANCH  18  19
ATOM     19  C   UNL     1       6.901   5.589  16.601  0.00  0.00    +0.000 A 
ATOM     20  N   UNL     1       6.404   6.771  16.241  0.00  0.00    +0.000 NA
ATOM     21  N   UNL     1       6.955   7.580  17.158  0.00  0.00    +0.000 N 
ATOM     22  C   UNL     1       7.781   6.884  17.996  0.00  0.00    +0.000 A 
ATOM     23  N   UNL     1       8.505   7.476  18.958  0.00  0.00    +0.000 N 
ATOM     24  N   UNL     1       7.729   5.610  17.699  0.00  0.00    +0.000 NA
ATOM     25  H   UNL     1       6.742   8.570  17.146  0.00  0.00    +0.000 HD
ATOM     26  H   UNL     1       8.672   8.478  18.951  0.00  0.00    +0.000 HD
ATOM     27  H   UNL     1       9.297   6.955  19.322  0.00  0.00    +0.000 HD
ENDBRANCH  18  19
ENDBRANCH  17  18
ENDBRANCH   4  17
TORSDOF 5
ENDMDL
MODEL 7
REMARK VINA RESULT:      -7.7      1.979      2.726
REMARK  Name = 
REMARK  8 active torsions:
REMARK  status: ('A' for Active; 'I' for Inactive)
REMARK    1  A    between atoms: C_1  and  C_2
REMARK    2  A    between atoms: C_2  and  C_3
REMARK    3  A    between atoms: C_2  and  C_4
REMARK    4  A    between atoms: C_2  and  C_5
REMARK    5  A    between atoms: C_8  and  C_9
REMARK    6  A    between atoms: C_12  and  C_14
REMARK    7  A    between atoms: C_14  and  S_15
REMARK    8  A    between atoms: S_15  and  C_16
REMARK                            x       y       z     vdW  Elec       q    Type
REMARK                         _______ _______ _______ _____ _____    ______ ____
ROOT
ATOM      1  C   UNL     1       2.527   5.587  20.178  0.00  0.00    +0.000 C 
ATOM      2  O   UNL     1       2.165   4.912  21.138  0.00  0.00    +0.000 OA
ATOM      3  N   UNL     1       3.410   5.141  19.211  0.00  0.00    +0.000 N 
ATOM      4  C   UNL     1       3.915   3.845  19.183  0.00  0.00    +0.000 C 
ATOM      5  O   UNL     1       3.675   2.961  20.004  0.00  0.00    +0.000 OA
ATOM      6  H   UNL     1       3.574   5.706  18.389  0.00  0.00    +0.000 HD
ENDROOT
BRANCH   1  10
ATOM      7  C   UNL     1       1.035   9.645  19.617  0.00  0.00    +0.000 A 
ATOM      8  C   UNL     1       1.778   8.956  18.649  0.00  0.00    +0.000 A 
ATOM      9  C   UNL     1       2.246   7.658  18.875  0.00  0.00    +0.000 A 
ATOM     10  C   UNL     1       1.987   6.985  20.076  0.00  0.00    +0.000 A 
ATOM     11  C   UNL     1       1.238   7.645  21.050  0.00  0.00    +0.000 A 
ATOM     12  C   UNL     1       0.775   8.959  20.822  0.00  0.00    +0.000 A 
BRANCH   7  14
ATOM     13  C   UNL     1       0.183  11.838  20.680  0.00  0.00    +0.000 C 
ATOM     14  C   UNL     1       0.521  11.077  19.374  0.00  0.00    +0.000 C 
ATOM     15  C   UNL     1      -0.769  11.043  18.527  0.00  0.00    +0.000 C 
ATOM     16  C   UNL     1       1.588  11.907  18.631  0.00  0.00    +0.000 C 
ENDBRANCH   7  14
ENDBRANCH   1  10
BRANCH   4  17
ATOM     17  C   UNL     1       4.863   3.569  18.032  0.00  0.00    +0.000 C 
BRANCH  17  18
ATOM     18  S   UNL     1       6.120   4.862  17.913  0.00  0.00    +0.000 S 
BRANCH  18  19
ATOM     19  C   UNL     1       6.518   4.765  16.226  0.00  0.00    +0.000 A 
ATOM     20  N   UNL     1       7.314   5.666  15.651  0.00  0.00    +0.000 NA
ATOM     21  N   UNL     1       7.347   5.221  14.386  0.00  0.00    +0.000 N 
ATOM     22  C   UNL     1       6.555   4.117  14.232  0.00  0.00    +0.000 A 
ATOM     23  N   UNL     1       6.362   3.522  13.045  0.00  0.00    +0.000 N 
ATOM     24  N   UNL     1       6.054   3.775  15.393  0.00  0.00    +0.000 NA
ATOM     25  H   UNL     1       7.903   5.711  13.696  0.00  0.00    +0.000 HD
ATOM     26  H   UNL     1       6.584   3.998  12.175  0.00  0.00    +0.000 HD
ATOM     27  H   UNL     1       5.549   2.920  12.960  0.00  0.00    +0.000 HD
ENDBRANCH  18  19
ENDBRANCH  17  18
ENDBRANCH   4  17
TORSDOF 5
ENDMDL
MODEL 8
REMARK VINA RESULT:      -7.7      1.062      1.759
REMARK  Name = 
REMARK  8 active torsions:
REMARK  status: ('A' for Active; 'I' for Inactive)
REMARK    1  A    between atoms: C_1  and  C_2
REMARK    2  A    between atoms: C_2  and  C_3
REMARK    3  A    between atoms: C_2  and  C_4
REMARK    4  A    between atoms: C_2  and  C_5
REMARK    5  A    between atoms: C_8  and  C_9
REMARK    6  A    between atoms: C_12  and  C_14
REMARK    7  A    between atoms: C_14  and  S_15
REMARK    8  A    between atoms: S_15  and  C_16
REMARK                            x       y       z     vdW  Elec       q    Type
REMARK                         _______ _______ _______ _____ _____    ______ ____
ROOT
ATOM      1  C   UNL     1       3.068   6.209  18.970  0.00  0.00    +0.000 C 
ATOM      2  O   UNL     1       3.100   5.431  19.920  0.00  0.00    +0.000 OA
ATOM      3  N   UNL     1       3.727   5.993  17.773  0.00  0.00    +0.000 N 
ATOM      4  C   UNL     1       4.428   4.825  17.493  0.00  0.00    +0.000 C 
ATOM      5  O   UNL     1       4.576   3.872  18.257  0.00  0.00    +0.000 OA
ATOM      6  H   UNL     1       3.563   6.618  16.996  0.00  0.00    +0.000 HD
ENDROOT
BRANCH   1  10
ATOM      7  C   UNL     1       0.773   9.833  19.751  0.00  0.00    +0.000 A 
ATOM      8  C   UNL     1       1.025   8.855  20.722  0.00  0.00    +0.000 A 
ATOM      9  C   UNL     1       1.757   7.702  20.426  0.00  0.00    +0.000 A 
ATOM     10  C   UNL     1       2.280   7.477  19.145  0.00  0.00    +0.000 A 
ATOM     11  C   UNL     1       2.055   8.442  18.165  0.00  0.00    +0.000 A 
ATOM     12  C   UNL     1       1.307   9.600  18.466  0.00  0.00    +0.000 A 
BRANCH   7  14
ATOM     13  C   UNL     1      -0.602  11.123  21.516  0.00  0.00    +0.000 C 
ATOM     14  C   UNL     1      -0.039  11.103  20.073  0.00  0.00    +0.000 C 
ATOM     15  C   UNL     1      -1.246  11.218  19.118  0.00  0.00    +0.000 C 
ATOM     16  C   UNL     1       0.847  12.356  19.916  0.00  0.00    +0.000 C 
ENDBRANCH   7  14
ENDBRANCH   1  10
BRANCH   4  17
ATOM     17  C   UNL     1       5.069   4.797  16.118  0.00  0.00    +0.000 C 
BRANCH  17  18
ATOM     18  S   UNL     1       6.829   4.406  16.240  0.00  0.00    +0.000 S 
BRANCH  18  19
ATOM     19  C   UNL     1       7.383   5.730  17.216  0.00  0.00    +0.000 A 
ATOM     20  N   UNL     1       7.737   5.552  18.488  0.00  0.00    +0.000 NA
ATOM     21  N   UNL     1       8.085   6.797  18.844  0.00  0.00    +0.000 N 
ATOM     22  C   UNL     1       7.895   7.675  17.813  0.00  0.00    +0.000 A 
ATOM     23  N   UNL     1       8.104   8.994  17.935  0.00  0.00    +0.000 N 
ATOM     24  N   UNL     1       7.497   7.019  16.751  0.00  0.00    +0.000 NA
ATOM     25  H   UNL     1       8.421   6.975  19.782  0.00  0.00    +0.000 HD
ATOM     26  H   UNL     1       8.167   9.435  18.848  0.00  0.00    +0.000 HD
ATOM     27  H   UNL     1       7.662   9.595  17.245  0.00  0.00    +0.000 HD
ENDBRANCH  18  19
ENDBRANCH  17  18
ENDBRANCH   4  17
TORSDOF 5
ENDMDL
MODEL 9
REMARK VINA RESULT:      -7.7      1.838      3.015
REMARK  Name = 
REMARK  8 active torsions:
REMARK  status: ('A' for Active; 'I' for Inactive)
REMARK    1  A    between atoms: C_1  and  C_2
REMARK    2  A    between atoms: C_2  and  C_3
REMARK    3  A    between atoms: C_2  and  C_4
REMARK    4  A    between atoms: C_2  and  C_5
REMARK    5  A    between atoms: C_8  and  C_9
REMARK    6  A    between atoms: C_12  and  C_14
REMARK    7  A    between atoms: C_14  and  S_15
REMARK    8  A    between atoms: S_15  and  C_16
REMARK                            x       y       z     vdW  Elec       q    Type
REMARK                         _______ _______ _______ _____ _____    ______ ____
ROOT
ATOM      1  C   UNL     1       3.493   5.860  19.318  0.00  0.00    +0.000 C 
ATOM      2  O   UNL     1       2.970   4.846  19.772  0.00  0.00    +0.000 OA
ATOM      3  N   UNL     1       4.830   5.950  18.975  0.00  0.00    +0.000 N 
ATOM      4  C   UNL     1       5.703   4.868  19.032  0.00  0.00    +0.000 C 
ATOM      5  O   UNL     1       5.419   3.733  19.410  0.00  0.00    +0.000 OA
ATOM      6  H   UNL     1       5.167   6.777  18.500  0.00  0.00    +0.000 HD
ENDROOT
BRANCH   1  10
ATOM      7  C   UNL     1       0.918   9.373  19.116  0.00  0.00    +0.000 A 
ATOM      8  C   UNL     1       1.098   8.614  20.281  0.00  0.00    +0.000 A 
ATOM      9  C   UNL     1       1.926   7.488  20.298  0.00  0.00    +0.000 A 
ATOM     10  C   UNL     1       2.619   7.072  19.154  0.00  0.00    +0.000 A 
ATOM     11  C   UNL     1       2.467   7.818  17.986  0.00  0.00    +0.000 A 
ATOM     12  C   UNL     1       1.622   8.948  17.970  0.00  0.00    +0.000 A 
BRANCH   7  14
ATOM     13  C   UNL     1       0.748  11.920  18.733  0.00  0.00    +0.000 C 
ATOM     14  C   UNL     1       0.002  10.611  19.091  0.00  0.00    +0.000 C 
ATOM     15  C   UNL     1      -0.640  10.826  20.478  0.00  0.00    +0.000 C 
ATOM     16  C   UNL     1      -1.116  10.427  18.044  0.00  0.00    +0.000 C 
ENDBRANCH   7  14
ENDBRANCH   1  10
BRANCH   4  17
ATOM     17  C   UNL     1       7.122   5.189  18.604  0.00  0.00    +0.000 C 
BRANCH  17  18
ATOM     18  S   UNL     1       7.131   6.434  17.295  0.00  0.00    +0.000 S 
BRANCH  18  19
ATOM     19  C   UNL     1       6.495   5.509  15.971  0.00  0.00    +0.000 A 
ATOM     20  N   UNL     1       5.192   5.248  15.873  0.00  0.00    +0.000 NA
ATOM     21  N   UNL     1       5.150   4.532  14.740  0.00  0.00    +0.000 N 
ATOM     22  C   UNL     1       6.404   4.352  14.224  0.00  0.00    +0.000 A 
ATOM     23  N   UNL     1       6.639   3.611  13.131  0.00  0.00    +0.000 N 
ATOM     24  N   UNL     1       7.273   5.002  14.957  0.00  0.00    +0.000 NA
ATOM     25  H   UNL     1       4.261   4.196  14.391  0.00  0.00    +0.000 HD
ATOM     26  H   UNL     1       5.950   2.951  12.783  0.00  0.00    +0.000 HD
ATOM     27  H   UNL     1       7.591   3.284  12.994  0.00  0.00    +0.000 HD
ENDBRANCH  18  19
ENDBRANCH  17  18
ENDBRANCH   4  17
TORSDOF 5
ENDMDL
