MODEL 1
REMARK VINA RESULT:      -8.0      0.000      0.000
REMARK  Name = 
REMARK  3 active torsions:
REMARK  status: ('A' for Active; 'I' for Inactive)
REMARK    1  A    between atoms: C_2  and  C_10
REMARK    2  A    between atoms: C_13  and  S_14
REMARK    3  A    between atoms: S_14  and  N_17
REMARK                            x       y       z     vdW  Elec       q    Type
REMARK                         _______ _______ _______ _____ _____    ______ ____
ROOT
ATOM      1  C   UNL     1       1.869   7.270  19.995  0.00  0.00    +0.000 A 
ATOM      2  C   UNL     1       1.829   6.065  20.712  0.00  0.00    +0.000 A 
ATOM      3  C   UNL     1       2.262   4.885  20.105  0.00  0.00    +0.000 A 
ATOM      4  C   UNL     1       2.715   4.898  18.778  0.00  0.00    +0.000 A 
ATOM      5  C   UNL     1       2.806   6.109  18.077  0.00  0.00    +0.000 A 
ATOM      6  C   UNL     1       2.374   7.287  18.685  0.00  0.00    +0.000 A 
ENDROOT
BRANCH   1   8
ATOM      7  O   UNL     1       1.362   8.662  21.821  0.00  0.00    +0.000 OA
ATOM      8  C   UNL     1       1.385   8.539  20.604  0.00  0.00    +0.000 C 
ATOM      9  N   UNL     1       0.927   9.465  19.682  0.00  0.00    +0.000 N 
ATOM     10  C   UNL     1       0.282  10.624  20.072  0.00  0.00    +0.000 A 
ATOM     11  C   UNL     1       0.922  11.558  20.864  0.00  0.00    +0.000 A 
ATOM     12  C   UNL     1       0.232  12.702  21.237  0.00  0.00    +0.000 A 
ATOM     13  C   UNL     1      -1.091  12.850  20.837  0.00  0.00    +0.000 A 
ATOM     14  C   UNL     1      -1.639  11.873  20.020  0.00  0.00    +0.000 A 
ATOM     15  N   UNL     1      -0.964  10.786  19.582  0.00  0.00    +0.000 NA
ATOM     16  H   UNL     1       0.536   9.071  18.831  0.00  0.00    +0.000 HD
ENDBRANCH   1   8
BRANCH   4  17
ATOM     17  S   UNL     1       3.296   3.376  18.038  0.00  0.00    +0.000 S 
ATOM     18  O   UNL     1       3.443   2.415  19.107  0.00  0.00    +0.000 OA
ATOM     19  O   UNL     1       2.437   3.106  16.898  0.00  0.00    +0.000 OA
BRANCH  17  20
ATOM     20  N   UNL     1       4.858   3.764  17.443  0.00  0.00    +0.000 NA
ATOM     21  C   UNL     1       4.922   4.166  16.015  0.00  0.00    +0.000 C 
ATOM     22  C   UNL     1       6.355   4.351  15.529  0.00  0.00    +0.000 C 
ATOM     23  C   UNL     1       7.143   5.262  16.456  0.00  0.00    +0.000 C 
ATOM     24  C   UNL     1       7.152   4.665  17.853  0.00  0.00    +0.000 C 
ATOM     25  C   UNL     1       5.737   4.488  18.392  0.00  0.00    +0.000 C 
ENDBRANCH  17  20
ENDBRANCH   4  17
TORSDOF 3
ENDMDL
MODEL 2
REMARK VINA RESULT:      -7.9      0.760      1.639
REMARK  Name = 
REMARK  3 active torsions:
REMARK  status: ('A' for Active; 'I' for Inactive)
REMARK    1  A    between atoms: C_2  and  C_10
REMARK    2  A    between atoms: C_13  and  S_14
REMARK    3  A    between atoms: S_14  and  N_17
REMARK                            x       y       z     vdW  Elec       q    Type
REMARK                         _______ _______ _______ _____ _____    ______ ____
ROOT
ATOM      1  C   UNL     1       1.821   7.368  20.080  0.00  0.00    +0.000 A 
ATOM      2  C   UNL     1       2.545   7.481  18.883  0.00  0.00    +0.000 A 
ATOM      3  C   UNL     1       3.268   6.386  18.407  0.00  0.00    +0.000 A 
ATOM      4  C   UNL     1       3.290   5.185  19.131  0.00  0.00    +0.000 A 
ATOM      5  C   UNL     1       2.525   5.052  20.299  0.00  0.00    +0.000 A 
ATOM      6  C   UNL     1       1.803   6.147  20.773  0.00  0.00    +0.000 A 
ENDROOT
BRANCH   1   8
ATOM      7  O   UNL     1       0.635   8.487  21.773  0.00  0.00    +0.000 OA
ATOM      8  C   UNL     1       1.066   8.527  20.629  0.00  0.00    +0.000 C 
ATOM      9  N   UNL     1       0.865   9.548  19.717  0.00  0.00    +0.000 N 
ATOM     10  C   UNL     1       0.038  10.621  19.995  0.00  0.00    +0.000 A 
ATOM     11  C   UNL     1       0.307  11.466  21.055  0.00  0.00    +0.000 A 
ATOM     12  C   UNL     1      -0.554  12.525  21.300  0.00  0.00    +0.000 A 
ATOM     13  C   UNL     1      -1.681  12.676  20.499  0.00  0.00    +0.000 A 
ATOM     14  C   UNL     1      -1.851  11.795  19.441  0.00  0.00    +0.000 A 
ATOM     15  N   UNL     1      -0.986  10.801  19.137  0.00  0.00    +0.000 NA
ATOM     16  H   UNL     1       0.807   9.257  18.745  0.00  0.00    +0.000 HD
ENDBRANCH   1   8
BRANCH   4  17
ATOM     17  S   UNL     1       4.198   3.788  18.478  0.00  0.00    +0.000 S 
ATOM     18  O   UNL     1       5.084   3.332  19.524  0.00  0.00    +0.000 OA
ATOM     19  O   UNL     1       3.222   2.895  17.877  0.00  0.00    +0.000 OA
BRANCH  17  20
ATOM     20  N   UNL     1       5.151   4.455  17.216  0.00  0.00    +0.000 NA
ATOM     21  C   UNL     1       6.579   4.695  17.545  0.00  0.00    +0.000 C 
ATOM     22  C   UNL     1       7.317   5.420  16.425  0.00  0.00    +0.000 C 
ATOM     23  C   UNL     1       7.106   4.735  15.086  0.00  0.00    +0.000 C 
ATOM     24  C   UNL     1       5.619   4.696  14.774  0.00  0.00    +0.000 C 
ATOM     25  C   UNL     1       4.842   3.954  15.855  0.00  0.00    +0.000 C 
ENDBRANCH  17  20
ENDBRANCH   4  17
TORSDOF 3
ENDMDL
MODEL 3
REMARK VINA RESULT:      -7.8      1.500      2.088
REMARK  Name = 
REMARK  3 active torsions:
REMARK  status: ('A' for Active; 'I' for Inactive)
REMARK    1  A    between atoms: C_2  and  C_10
REMARK    2  A    between atoms: C_13  and  S_14
REMARK    3  A    between atoms: S_14  and  N_17
REMARK                            x       y       z     vdW  Elec       q    Type
REMARK                         _______ _______ _______ _____ _____    ______ ____
ROOT
ATOM      1  C   UNL     1       1.490   8.737  19.484  0.00  0.00    +0.000 A 
ATOM      2  C   UNL     1       1.530   7.798  20.525  0.00  0.00    +0.000 A 
ATOM      3  C   UNL     1       2.068   6.531  20.292  0.00  0.00    +0.000 A 
ATOM      4  C   UNL     1       2.547   6.190  19.019  0.00  0.00    +0.000 A 
ATOM      5  C   UNL     1       2.557   7.144  17.991  0.00  0.00    +0.000 A 
ATOM      6  C   UNL     1       2.020   8.410  18.226  0.00  0.00    +0.000 A 
ENDROOT
BRANCH   1   8
ATOM      7  O   UNL     1       1.327  11.046  19.072  0.00  0.00    +0.000 OA
ATOM      8  C   UNL     1       0.894  10.085  19.693  0.00  0.00    +0.000 C 
ATOM      9  N   UNL     1      -0.089  10.119  20.667  0.00  0.00    +0.000 N 
ATOM     10  C   UNL     1      -0.628  11.310  21.117  0.00  0.00    +0.000 A 
ATOM     11  C   UNL     1      -1.294  12.158  20.252  0.00  0.00    +0.000 A 
ATOM     12  C   UNL     1      -1.812  13.345  20.747  0.00  0.00    +0.000 A 
ATOM     13  C   UNL     1      -1.606  13.662  22.086  0.00  0.00    +0.000 A 
ATOM     14  C   UNL     1      -0.951  12.736  22.882  0.00  0.00    +0.000 A 
ATOM     15  N   UNL     1      -0.503  11.539  22.440  0.00  0.00    +0.000 NA
ATOM     16  H   UNL     1       0.014   9.435  21.411  0.00  0.00    +0.000 HD
ENDBRANCH   1   8
BRANCH   4  17
ATOM     17  S   UNL     1       3.262   4.570  18.759  0.00  0.00    +0.000 S 
ATOM     18  O   UNL     1       3.371   3.943  20.056  0.00  0.00    +0.000 OA
ATOM     19  O   UNL     1       2.513   3.946  17.682  0.00  0.00    +0.000 OA
BRANCH  17  20
ATOM     20  N   UNL     1       4.845   4.894  18.183  0.00  0.00    +0.000 NA
ATOM     21  C   UNL     1       5.868   5.164  19.225  0.00  0.00    +0.000 C 
ATOM     22  C   UNL     1       7.207   5.585  18.628  0.00  0.00    +0.000 C 
ATOM     23  C   UNL     1       7.668   4.610  17.557  0.00  0.00    +0.000 C 
ATOM     24  C   UNL     1       6.620   4.541  16.460  0.00  0.00    +0.000 C 
ATOM     25  C   UNL     1       5.269   4.096  17.007  0.00  0.00    +0.000 C 
ENDBRANCH  17  20
ENDBRANCH   4  17
TORSDOF 3
ENDMDL
MODEL 4
REMARK VINA RESULT:      -7.8      3.356      8.720
REMARK  Name = 
REMARK  3 active torsions:
REMARK  status: ('A' for Active; 'I' for Inactive)
REMARK    1  A    between atoms: C_2  and  C_10
REMARK    2  A    between atoms: C_13  and  S_14
REMARK    3  A    between atoms: S_14  and  N_17
REMARK                            x       y       z     vdW  Elec       q    Type
REMARK                         _______ _______ _______ _____ _____    ______ ____
ROOT
ATOM      1  C   UNL     1       2.244   7.615  19.153  0.00  0.00    +0.000 A 
ATOM      2  C   UNL     1       2.187   8.488  18.057  0.00  0.00    +0.000 A 
ATOM      3  C   UNL     1       1.461   9.676  18.157  0.00  0.00    +0.000 A 
ATOM      4  C   UNL     1       0.773   9.987  19.339  0.00  0.00    +0.000 A 
ATOM      5  C   UNL     1       0.872   9.142  20.454  0.00  0.00    +0.000 A 
ATOM      6  C   UNL     1       1.599   7.956  20.353  0.00  0.00    +0.000 A 
ENDROOT
BRANCH   1   8
ATOM      7  O   UNL     1       4.178   6.325  18.798  0.00  0.00    +0.000 OA
ATOM      8  C   UNL     1       2.984   6.326  19.067  0.00  0.00    +0.000 C 
ATOM      9  N   UNL     1       2.187   5.209  19.243  0.00  0.00    +0.000 N 
ATOM     10  C   UNL     1       2.665   3.930  19.024  0.00  0.00    +0.000 A 
ATOM     11  C   UNL     1       3.723   3.434  19.763  0.00  0.00    +0.000 A 
ATOM     12  C   UNL     1       4.174   2.148  19.503  0.00  0.00    +0.000 A 
ATOM     13  C   UNL     1       3.576   1.419  18.481  0.00  0.00    +0.000 A 
ATOM     14  C   UNL     1       2.503   1.991  17.814  0.00  0.00    +0.000 A 
ATOM     15  N   UNL     1       1.998   3.212  18.099  0.00  0.00    +0.000 NA
ATOM     16  H   UNL     1       1.220   5.316  18.950  0.00  0.00    +0.000 HD
ENDBRANCH   1   8
BRANCH   4  17
ATOM     17  S   UNL     1      -0.121  11.533  19.449  0.00  0.00    +0.000 S 
ATOM     18  O   UNL     1      -0.209  11.872  20.850  0.00  0.00    +0.000 OA
ATOM     19  O   UNL     1       0.488  12.441  18.492  0.00  0.00    +0.000 OA
BRANCH  17  20
ATOM     20  N   UNL     1      -1.696  11.152  18.887  0.00  0.00    +0.000 NA
ATOM     21  C   UNL     1      -2.735  12.184  19.130  0.00  0.00    +0.000 C 
ATOM     22  C   UNL     1      -4.129  11.709  18.734  0.00  0.00    +0.000 C 
ATOM     23  C   UNL     1      -4.144  11.150  17.321  0.00  0.00    +0.000 C 
ATOM     24  C   UNL     1      -3.166   9.991  17.233  0.00  0.00    +0.000 C 
ATOM     25  C   UNL     1      -1.751  10.426  17.594  0.00  0.00    +0.000 C 
ENDBRANCH  17  20
ENDBRANCH   4  17
TORSDOF 3
ENDMDL
MODEL 5
REMARK VINA RESULT:      -7.8      0.795      1.349
REMARK  Name = 
REMARK  3 active torsions:
REMARK  status: ('A' for Active; 'I' for Inactive)
REMARK    1  A    between atoms: C_2  and  C_10
REMARK    2  A    between atoms: C_13  and  S_14
REMARK    3  A    between atoms: S_14  and  N_17
REMARK                            x       y       z     vdW  Elec       q    Type
REMARK                         _______ _______ _______ _____ _____    ______ ____
ROOT
ATOM      1  C   UNL     1       1.881   7.477  20.004  0.00  0.00    +0.000 A 
ATOM      2  C   UNL     1       1.899   6.276  20.729  0.00  0.00    +0.000 A 
ATOM      3  C   UNL     1       2.604   5.179  20.231  0.00  0.00    +0.000 A 
ATOM      4  C   UNL     1       3.274   5.268  19.002  0.00  0.00    +0.000 A 
ATOM      5  C   UNL     1       3.303   6.483  18.302  0.00  0.00    +0.000 A 
ATOM      6  C   UNL     1       2.599   7.578  18.801  0.00  0.00    +0.000 A 
ENDROOT
BRANCH   1   8
ATOM      7  O   UNL     1       0.756   8.708  21.661  0.00  0.00    +0.000 OA
ATOM      8  C   UNL     1       1.113   8.655  20.493  0.00  0.00    +0.000 C 
ATOM      9  N   UNL     1       0.812   9.577  19.505  0.00  0.00    +0.000 N 
ATOM     10  C   UNL     1      -0.041  10.640  19.737  0.00  0.00    +0.000 A 
ATOM     11  C   UNL     1       0.257  11.591  20.695  0.00  0.00    +0.000 A 
ATOM     12  C   UNL     1      -0.632  12.636  20.898  0.00  0.00    +0.000 A 
ATOM     13  C   UNL     1      -1.811  12.669  20.162  0.00  0.00    +0.000 A 
ATOM     14  C   UNL     1      -2.010  11.686  19.204  0.00  0.00    +0.000 A 
ATOM     15  N   UNL     1      -1.124  10.700  18.936  0.00  0.00    +0.000 NA
ATOM     16  H   UNL     1       0.706   9.193  18.571  0.00  0.00    +0.000 HD
ENDBRANCH   1   8
BRANCH   4  17
ATOM     17  S   UNL     1       4.198   3.856  18.407  0.00  0.00    +0.000 S 
ATOM     18  O   UNL     1       5.077   3.444  19.477  0.00  0.00    +0.000 OA
ATOM     19  O   UNL     1       3.235   2.935  17.829  0.00  0.00    +0.000 OA
BRANCH  17  20
ATOM     20  N   UNL     1       5.158   4.485  17.132  0.00  0.00    +0.000 NA
ATOM     21  C   UNL     1       6.592   4.700  17.451  0.00  0.00    +0.000 C 
ATOM     22  C   UNL     1       7.340   5.395  16.317  0.00  0.00    +0.000 C 
ATOM     23  C   UNL     1       7.108   4.695  14.989  0.00  0.00    +0.000 C 
ATOM     24  C   UNL     1       5.620   4.682  14.684  0.00  0.00    +0.000 C 
ATOM     25  C   UNL     1       4.833   3.971  15.780  0.00  0.00    +0.000 C 
ENDBRANCH  17  20
ENDBRANCH   4  17
TORSDOF 3
ENDMDL
MODEL 6
REMARK VINA RESULT:      -7.8      3.355      8.610
REMARK  Name = 
REMARK  3 active torsions:
REMARK  status: ('A' for Active; 'I' for Inactive)
REMARK    1  A    between atoms: C_2  and  C_10
REMARK    2  A    between atoms: C_13  and  S_14
REMARK    3  A    between atoms: S_14  and  N_17
REMARK                            x       y       z     vdW  Elec       q    Type
REMARK                         _______ _______ _______ _____ _____    ______ ____
ROOT
ATOM      1  C   UNL     1       2.329   7.732  18.925  0.00  0.00    +0.000 A 
ATOM      2  C   UNL     1       2.325   8.626  17.843  0.00  0.00    +0.000 A 
ATOM      3  C   UNL     1       1.622   9.827  17.942  0.00  0.00    +0.000 A 
ATOM      4  C   UNL     1       0.905  10.133  19.108  0.00  0.00    +0.000 A 
ATOM      5  C   UNL     1       0.951   9.267  20.211  0.00  0.00    +0.000 A 
ATOM      6  C   UNL     1       1.654   8.067  20.110  0.00  0.00    +0.000 A 
ENDROOT
BRANCH   1   8
ATOM      7  O   UNL     1       4.209   6.396  18.469  0.00  0.00    +0.000 OA
ATOM      8  C   UNL     1       3.043   6.429  18.838  0.00  0.00    +0.000 C 
ATOM      9  N   UNL     1       2.250   5.334  19.134  0.00  0.00    +0.000 N 
ATOM     10  C   UNL     1       2.692   4.039  18.937  0.00  0.00    +0.000 A 
ATOM     11  C   UNL     1       3.803   3.561  19.606  0.00  0.00    +0.000 A 
ATOM     12  C   UNL     1       4.214   2.257  19.371  0.00  0.00    +0.000 A 
ATOM     13  C   UNL     1       3.522   1.491  18.439  0.00  0.00    +0.000 A 
ATOM     14  C   UNL     1       2.403   2.048  17.838  0.00  0.00    +0.000 A 
ATOM     15  N   UNL     1       1.939   3.289  18.107  0.00  0.00    +0.000 NA
ATOM     16  H   UNL     1       1.263   5.443  18.919  0.00  0.00    +0.000 HD
ENDBRANCH   1   8
BRANCH   4  17
ATOM     17  S   UNL     1       0.042  11.696  19.219  0.00  0.00    +0.000 S 
ATOM     18  O   UNL     1      -0.244  11.924  20.616  0.00  0.00    +0.000 OA
ATOM     19  O   UNL     1       0.807  12.656  18.441  0.00  0.00    +0.000 OA
BRANCH  17  20
ATOM     20  N   UNL     1      -1.442  11.419  18.404  0.00  0.00    +0.000 NA
ATOM     21  C   UNL     1      -1.555  10.120  17.694  0.00  0.00    +0.000 C 
ATOM     22  C   UNL     1      -2.839  10.015  16.878  0.00  0.00    +0.000 C 
ATOM     23  C   UNL     1      -4.059  10.360  17.715  0.00  0.00    +0.000 C 
ATOM     24  C   UNL     1      -3.911  11.774  18.252  0.00  0.00    +0.000 C 
ATOM     25  C   UNL     1      -2.652  11.919  19.100  0.00  0.00    +0.000 C 
ENDBRANCH  17  20
ENDBRANCH   4  17
TORSDOF 3
ENDMDL
MODEL 7
REMARK VINA RESULT:      -7.8      1.596      2.363
REMARK  Name = 
REMARK  3 active torsions:
REMARK  status: ('A' for Active; 'I' for Inactive)
REMARK    1  A    between atoms: C_2  and  C_10
REMARK    2  A    between atoms: C_13  and  S_14
REMARK    3  A    between atoms: S_14  and  N_17
REMARK                            x       y       z     vdW  Elec       q    Type
REMARK                         _______ _______ _______ _____ _____    ______ ____
ROOT
ATOM      1  C   UNL     1       2.137   7.815  19.156  0.00  0.00    +0.000 A 
ATOM      2  C   UNL     1       2.952   7.806  18.014  0.00  0.00    +0.000 A 
ATOM      3  C   UNL     1       3.845   6.753  17.811  0.00  0.00    +0.000 A 
ATOM      4  C   UNL     1       3.945   5.719  18.752  0.00  0.00    +0.000 A 
ATOM      5  C   UNL     1       3.094   5.697  19.867  0.00  0.00    +0.000 A 
ATOM      6  C   UNL     1       2.202   6.749  20.069  0.00  0.00    +0.000 A 
ENDROOT
BRANCH   1   8
ATOM      7  O   UNL     1       0.955   9.277  20.568  0.00  0.00    +0.000 OA
ATOM      8  C   UNL     1       1.197   8.939  19.417  0.00  0.00    +0.000 C 
ATOM      9  N   UNL     1       0.619   9.463  18.274  0.00  0.00    +0.000 N 
ATOM     10  C   UNL     1      -0.405  10.390  18.335  0.00  0.00    +0.000 A 
ATOM     11  C   UNL     1      -0.214  11.618  18.940  0.00  0.00    +0.000 A 
ATOM     12  C   UNL     1      -1.272  12.513  18.984  0.00  0.00    +0.000 A 
ATOM     13  C   UNL     1      -2.500  12.129  18.457  0.00  0.00    +0.000 A 
ATOM     14  C   UNL     1      -2.588  10.888  17.845  0.00  0.00    +0.000 A 
ATOM     15  N   UNL     1      -1.551  10.029  17.724  0.00  0.00    +0.000 NA
ATOM     16  H   UNL     1       0.502   8.807  17.508  0.00  0.00    +0.000 HD
ENDBRANCH   1   8
BRANCH   4  17
ATOM     17  S   UNL     1       5.074   4.365  18.446  0.00  0.00    +0.000 S 
ATOM     18  O   UNL     1       6.200   4.545  19.332  0.00  0.00    +0.000 OA
ATOM     19  O   UNL     1       4.286   3.145  18.471  0.00  0.00    +0.000 OA
BRANCH  17  20
ATOM     20  N   UNL     1       5.609   4.615  16.836  0.00  0.00    +0.000 NA
ATOM     21  C   UNL     1       7.080   4.652  16.643  0.00  0.00    +0.000 C 
ATOM     22  C   UNL     1       7.470   5.024  15.216  0.00  0.00    +0.000 C 
ATOM     23  C   UNL     1       6.743   4.159  14.200  0.00  0.00    +0.000 C 
ATOM     24  C   UNL     1       5.244   4.329  14.380  0.00  0.00    +0.000 C 
ATOM     25  C   UNL     1       4.804   3.942  15.788  0.00  0.00    +0.000 C 
ENDBRANCH  17  20
ENDBRANCH   4  17
TORSDOF 3
ENDMDL
MODEL 8
REMARK VINA RESULT:      -7.7      1.506      2.334
REMARK  Name = 
REMARK  3 active torsions:
REMARK  status: ('A' for Active; 'I' for Inactive)
REMARK    1  A    between atoms: C_2  and  C_10
REMARK    2  A    between atoms: C_13  and  S_14
REMARK    3  A    between atoms: S_14  and  N_17
REMARK                            x       y       z     vdW  Elec       q    Type
REMARK                         _______ _______ _______ _____ _____    ______ ____
ROOT
ATOM      1  C   UNL     1       1.450   8.833  19.427  0.00  0.00    +0.000 A 
ATOM      2  C   UNL     1       1.963   8.487  18.167  0.00  0.00    +0.000 A 
ATOM      3  C   UNL     1       2.514   7.219  17.971  0.00  0.00    +0.000 A 
ATOM      4  C   UNL     1       2.576   6.303  19.032  0.00  0.00    +0.000 A 
ATOM      5  C   UNL     1       2.016   6.628  20.276  0.00  0.00    +0.000 A 
ATOM      6  C   UNL     1       1.465   7.894  20.471  0.00  0.00    +0.000 A 
ENDROOT
BRANCH   1   8
ATOM      7  O   UNL     1       1.407  11.170  19.168  0.00  0.00    +0.000 OA
ATOM      8  C   UNL     1       0.885  10.188  19.676  0.00  0.00    +0.000 C 
ATOM      9  N   UNL     1      -0.185  10.195  20.555  0.00  0.00    +0.000 N 
ATOM     10  C   UNL     1      -0.723  11.374  21.038  0.00  0.00    +0.000 A 
ATOM     11  C   UNL     1      -1.273  12.306  20.178  0.00  0.00    +0.000 A 
ATOM     12  C   UNL     1      -1.794  13.477  20.707  0.00  0.00    +0.000 A 
ATOM     13  C   UNL     1      -1.706  13.693  22.078  0.00  0.00    +0.000 A 
ATOM     14  C   UNL     1      -1.162  12.688  22.863  0.00  0.00    +0.000 A 
ATOM     15  N   UNL     1      -0.716  11.507  22.379  0.00  0.00    +0.000 NA
ATOM     16  H   UNL     1      -0.177   9.458  21.254  0.00  0.00    +0.000 HD
ENDBRANCH   1   8
BRANCH   4  17
ATOM     17  S   UNL     1       3.257   4.675  18.740  0.00  0.00    +0.000 S 
ATOM     18  O   UNL     1       3.335   4.013  20.021  0.00  0.00    +0.000 OA
ATOM     19  O   UNL     1       2.507   4.095  17.639  0.00  0.00    +0.000 OA
BRANCH  17  20
ATOM     20  N   UNL     1       4.854   4.976  18.190  0.00  0.00    +0.000 NA
ATOM     21  C   UNL     1       5.867   5.210  19.250  0.00  0.00    +0.000 C 
ATOM     22  C   UNL     1       7.222   5.613  18.678  0.00  0.00    +0.000 C 
ATOM     23  C   UNL     1       7.679   4.645  17.599  0.00  0.00    +0.000 C 
ATOM     24  C   UNL     1       6.646   4.612  16.487  0.00  0.00    +0.000 C 
ATOM     25  C   UNL     1       5.278   4.186  17.008  0.00  0.00    +0.000 C 
ENDBRANCH  17  20
ENDBRANCH   4  17
TORSDOF 3
ENDMDL
MODEL 9
REMARK VINA RESULT:      -7.7      3.350      8.652
REMARK  Name = 
REMARK  3 active torsions:
REMARK  status: ('A' for Active; 'I' for Inactive)
REMARK    1  A    between atoms: C_2  and  C_10
REMARK    2  A    between atoms: C_13  and  S_14
REMARK    3  A    between atoms: S_14  and  N_17
REMARK                            x       y       z     vdW  Elec       q    Type
REMARK                         _______ _______ _______ _____ _____    ______ ____
ROOT
ATOM      1  C   UNL     1       2.220   7.574  19.255  0.00  0.00    +0.000 A 
ATOM      2  C   UNL     1       1.564   7.958  20.435  0.00  0.00    +0.000 A 
ATOM      3  C   UNL     1       0.898   9.183  20.486  0.00  0.00    +0.000 A 
ATOM      4  C   UNL     1       0.901  10.038  19.374  0.00  0.00    +0.000 A 
ATOM      5  C   UNL     1       1.510   9.633  18.177  0.00  0.00    +0.000 A 
ATOM      6  C   UNL     1       2.175   8.408  18.126  0.00  0.00    +0.000 A 
ENDROOT
BRANCH   1   8
ATOM      7  O   UNL     1       4.177   6.294  19.008  0.00  0.00    +0.000 OA
ATOM      8  C   UNL     1       2.966   6.288  19.179  0.00  0.00    +0.000 C 
ATOM      9  N   UNL     1       2.157   5.166  19.245  0.00  0.00    +0.000 N 
ATOM     10  C   UNL     1       2.652   3.896  19.015  0.00  0.00    +0.000 A 
ATOM     11  C   UNL     1       3.647   3.368  19.817  0.00  0.00    +0.000 A 
ATOM     12  C   UNL     1       4.118   2.093  19.545  0.00  0.00    +0.000 A 
ATOM     13  C   UNL     1       3.606   1.406  18.449  0.00  0.00    +0.000 A 
ATOM     14  C   UNL     1       2.590   2.006  17.720  0.00  0.00    +0.000 A 
ATOM     15  N   UNL     1       2.063   3.217  18.011  0.00  0.00    +0.000 NA
ATOM     16  H   UNL     1       1.217   5.287  18.878  0.00  0.00    +0.000 HD
ENDBRANCH   1   8
BRANCH   4  17
ATOM     17  S   UNL     1       0.009  11.587  19.459  0.00  0.00    +0.000 S 
ATOM     18  O   UNL     1      -0.019  11.983  20.848  0.00  0.00    +0.000 OA
ATOM     19  O   UNL     1       0.575  12.455  18.441  0.00  0.00    +0.000 OA
BRANCH  17  20
ATOM     20  N   UNL     1      -1.588  11.182  18.981  0.00  0.00    +0.000 NA
ATOM     21  C   UNL     1      -2.605  12.249  19.162  0.00  0.00    +0.000 C 
ATOM     22  C   UNL     1      -4.017  11.762  18.852  0.00  0.00    +0.000 C 
ATOM     23  C   UNL     1      -4.083  11.080  17.496  0.00  0.00    +0.000 C 
ATOM     24  C   UNL     1      -3.124   9.902  17.482  0.00  0.00    +0.000 C 
ATOM     25  C   UNL     1      -1.692  10.346  17.761  0.00  0.00    +0.000 C 
ENDBRANCH  17  20
ENDBRANCH   4  17
TORSDOF 3
ENDMDL
