MODEL 1
REMARK VINA RESULT:      -7.0      0.000      0.000
REMARK  Name = 
REMARK  13 active torsions:
REMARK  status: ('A' for Active; 'I' for Inactive)
REMARK    1  A    between atoms: C_1  and  C_2
REMARK    2  A    between atoms: C_2  and  O_3
REMARK    3  A    between atoms: O_3  and  C_4
REMARK    4  A    between atoms: C_4  and  C_6
REMARK    5  A    between atoms: C_6  and  C_7
REMARK    6  A    between atoms: C_8  and  C_9
REMARK    7  A    between atoms: C_12  and  C_13
REMARK    8  A    between atoms: C_13  and  C_14
REMARK    9  A    between atoms: N_20  and  C_21
REMARK   10  A    between atoms: C_21  and  C_22
REMARK   11  A    between atoms: C_22  and  C_23
REMARK   12  A    between atoms: C_22  and  C_24
REMARK   13  A    between atoms: C_22  and  C_25
REMARK                            x       y       z     vdW  Elec       q    Type
REMARK                         _______ _______ _______ _____ _____    ______ ____
ROOT
ATOM      1  C   UNL     1       3.921   6.271  17.504  0.00  0.00    +0.000 A 
ATOM      2  C   UNL     1       3.586   7.591  17.280  0.00  0.00    +0.000 A 
ATOM      3  C   UNL     1       2.792   8.023  18.350  0.00  0.00    +0.000 A 
ATOM      4  C   UNL     1       2.639   6.966  19.232  0.00  0.00    +0.000 A 
ATOM      5  N   UNL     1       3.332   5.874  18.701  0.00  0.00    +0.000 N 
ENDROOT
BRANCH   1   8
ATOM      6  C   UNL     1       6.056   5.125  17.057  0.00  0.00    +0.000 C 
ATOM      7  C   UNL     1       6.743   4.049  16.255  0.00  0.00    +0.000 C 
ATOM      8  C   UNL     1       4.786   5.450  16.740  0.00  0.00    +0.000 C 
BRANCH   6   9
ATOM      9  C   UNL     1       6.855   5.821  18.114  0.00  0.00    +0.000 C 
ATOM     10  O   UNL     1       6.641   5.748  19.317  0.00  0.00    +0.000 OA
BRANCH   9  11
ATOM     11  O   UNL     1       7.739   6.676  17.534  0.00  0.00    +0.000 OA
BRANCH  11  13
ATOM     12  C   UNL     1       8.349   8.952  18.122  0.00  0.00    +0.000 C 
ATOM     13  C   UNL     1       7.334   8.052  17.450  0.00  0.00    +0.000 C 
ENDBRANCH  11  13
ENDBRANCH   9  11
ENDBRANCH   6   9
ENDBRANCH   1   8
BRANCH   4  14
ATOM     14  C   UNL     1       1.822   6.987  20.494  0.00  0.00    +0.000 C 
BRANCH  14  15
ATOM     15  C   UNL     1       1.184   8.321  20.833  0.00  0.00    +0.000 A 
ATOM     16  C   UNL     1       0.437   9.080  19.926  0.00  0.00    +0.000 A 
ATOM     17  C   UNL     1      -0.017  10.349  20.276  0.00  0.00    +0.000 A 
ATOM     18  C   UNL     1       0.279  10.824  21.541  0.00  0.00    +0.000 A 
ATOM     19  N   UNL     1       0.973  10.123  22.459  0.00  0.00    +0.000 NA
ATOM     20  C   UNL     1       1.411   8.895  22.083  0.00  0.00    +0.000 A 
ENDBRANCH  14  15
ENDBRANCH   4  14
BRANCH   5  21
ATOM     21  C   UNL     1       3.233   4.493  19.172  0.00  0.00    +0.000 C 
BRANCH  21  22
ATOM     22  C   UNL     1       2.077   3.586  18.651  0.00  0.00    +0.000 C 
ATOM     23  C   UNL     1       2.576   2.224  18.152  0.00  0.00    +0.000 C 
ATOM     24  C   UNL     1       1.106   3.345  19.831  0.00  0.00    +0.000 C 
ATOM     25  C   UNL     1       1.282   4.247  17.514  0.00  0.00    +0.000 C 
ENDBRANCH  21  22
ENDBRANCH   5  21
TORSDOF 8
ENDMDL
MODEL 2
REMARK VINA RESULT:      -7.0      2.924      6.567
REMARK  Name = 
REMARK  13 active torsions:
REMARK  status: ('A' for Active; 'I' for Inactive)
REMARK    1  A    between atoms: C_1  and  C_2
REMARK    2  A    between atoms: C_2  and  O_3
REMARK    3  A    between atoms: O_3  and  C_4
REMARK    4  A    between atoms: C_4  and  C_6
REMARK    5  A    between atoms: C_6  and  C_7
REMARK    6  A    between atoms: C_8  and  C_9
REMARK    7  A    between atoms: C_12  and  C_13
REMARK    8  A    between atoms: C_13  and  C_14
REMARK    9  A    between atoms: N_20  and  C_21
REMARK   10  A    between atoms: C_21  and  C_22
REMARK   11  A    between atoms: C_22  and  C_23
REMARK   12  A    between atoms: C_22  and  C_24
REMARK   13  A    between atoms: C_22  and  C_25
REMARK                            x       y       z     vdW  Elec       q    Type
REMARK                         _______ _______ _______ _____ _____    ______ ____
ROOT
ATOM      1  C   UNL     1       1.911   7.481  19.921  0.00  0.00    +0.000 A 
ATOM      2  C   UNL     1       2.086   8.274  18.804  0.00  0.00    +0.000 A 
ATOM      3  C   UNL     1       2.697   7.495  17.812  0.00  0.00    +0.000 A 
ATOM      4  C   UNL     1       2.896   6.223  18.321  0.00  0.00    +0.000 A 
ATOM      5  N   UNL     1       2.417   6.216  19.635  0.00  0.00    +0.000 N 
ENDROOT
BRANCH   1   8
ATOM      6  C   UNL     1       0.424   8.860  21.319  0.00  0.00    +0.000 C 
ATOM      7  C   UNL     1      -0.378   8.919  22.595  0.00  0.00    +0.000 C 
ATOM      8  C   UNL     1       1.250   7.811  21.129  0.00  0.00    +0.000 C 
BRANCH   6   9
ATOM      9  C   UNL     1       0.307  10.012  20.372  0.00  0.00    +0.000 C 
ATOM     10  O   UNL     1       1.070  10.970  20.336  0.00  0.00    +0.000 OA
BRANCH   9  11
ATOM     11  O   UNL     1      -0.859   9.923  19.679  0.00  0.00    +0.000 OA
BRANCH  11  13
ATOM     12  C   UNL     1      -2.153  10.083  17.629  0.00  0.00    +0.000 C 
ATOM     13  C   UNL     1      -0.788  10.213  18.273  0.00  0.00    +0.000 C 
ENDBRANCH  11  13
ENDBRANCH   9  11
ENDBRANCH   6   9
ENDBRANCH   1   8
BRANCH   4  14
ATOM     14  C   UNL     1       3.566   5.085  17.601  0.00  0.00    +0.000 C 
BRANCH  14  15
ATOM     15  C   UNL     1       5.080   5.060  17.691  0.00  0.00    +0.000 A 
ATOM     16  C   UNL     1       5.920   4.781  16.608  0.00  0.00    +0.000 A 
ATOM     17  C   UNL     1       7.295   4.660  16.796  0.00  0.00    +0.000 A 
ATOM     18  C   UNL     1       7.799   4.837  18.072  0.00  0.00    +0.000 A 
ATOM     19  N   UNL     1       7.034   5.131  19.143  0.00  0.00    +0.000 NA
ATOM     20  C   UNL     1       5.699   5.230  18.929  0.00  0.00    +0.000 A 
ENDBRANCH  14  15
ENDBRANCH   4  14
BRANCH   5  21
ATOM     21  C   UNL     1       2.652   5.162  20.620  0.00  0.00    +0.000 C 
BRANCH  21  22
ATOM     22  C   UNL     1       1.998   3.762  20.419  0.00  0.00    +0.000 C 
ATOM     23  C   UNL     1       2.948   2.758  19.753  0.00  0.00    +0.000 C 
ATOM     24  C   UNL     1       1.619   3.219  21.817  0.00  0.00    +0.000 C 
ATOM     25  C   UNL     1       0.714   3.832  19.576  0.00  0.00    +0.000 C 
ENDBRANCH  21  22
ENDBRANCH   5  21
TORSDOF 8
ENDMDL
MODEL 3
REMARK VINA RESULT:      -6.9      2.104      4.462
REMARK  Name = 
REMARK  13 active torsions:
REMARK  status: ('A' for Active; 'I' for Inactive)
REMARK    1  A    between atoms: C_1  and  C_2
REMARK    2  A    between atoms: C_2  and  O_3
REMARK    3  A    between atoms: O_3  and  C_4
REMARK    4  A    between atoms: C_4  and  C_6
REMARK    5  A    between atoms: C_6  and  C_7
REMARK    6  A    between atoms: C_8  and  C_9
REMARK    7  A    between atoms: C_12  and  C_13
REMARK    8  A    between atoms: C_13  and  C_14
REMARK    9  A    between atoms: N_20  and  C_21
REMARK   10  A    between atoms: C_21  and  C_22
REMARK   11  A    between atoms: C_22  and  C_23
REMARK   12  A    between atoms: C_22  and  C_24
REMARK   13  A    between atoms: C_22  and  C_25
REMARK                            x       y       z     vdW  Elec       q    Type
REMARK                         _______ _______ _______ _____ _____    ______ ____
ROOT
ATOM      1  C   UNL     1       2.973   4.161  17.777  0.00  0.00    +0.000 A 
ATOM      2  C   UNL     1       1.621   4.429  17.695  0.00  0.00    +0.000 A 
ATOM      3  C   UNL     1       1.451   5.819  17.758  0.00  0.00    +0.000 A 
ATOM      4  C   UNL     1       2.700   6.404  17.879  0.00  0.00    +0.000 A 
ATOM      5  N   UNL     1       3.646   5.374  17.901  0.00  0.00    +0.000 N 
ENDROOT
BRANCH   1   8
ATOM      6  C   UNL     1       3.859   2.042  18.668  0.00  0.00    +0.000 C 
ATOM      7  C   UNL     1       4.339   0.655  18.322  0.00  0.00    +0.000 C 
ATOM      8  C   UNL     1       3.621   2.907  17.661  0.00  0.00    +0.000 C 
BRANCH   6   9
ATOM      9  C   UNL     1       3.746   2.397  20.117  0.00  0.00    +0.000 C 
ATOM     10  O   UNL     1       4.682   2.421  20.907  0.00  0.00    +0.000 OA
BRANCH   9  11
ATOM     11  O   UNL     1       2.437   2.521  20.461  0.00  0.00    +0.000 OA
BRANCH  11  13
ATOM     12  C   UNL     1       2.071   4.800  21.219  0.00  0.00    +0.000 C 
ATOM     13  C   UNL     1       2.155   3.339  21.609  0.00  0.00    +0.000 C 
ENDBRANCH  11  13
ENDBRANCH   9  11
ENDBRANCH   6   9
ENDBRANCH   1   8
BRANCH   4  14
ATOM     14  C   UNL     1       2.970   7.876  18.023  0.00  0.00    +0.000 C 
BRANCH  14  15
ATOM     15  C   UNL     1       1.904   8.662  18.762  0.00  0.00    +0.000 A 
ATOM     16  C   UNL     1       1.604   8.485  20.117  0.00  0.00    +0.000 A 
ATOM     17  C   UNL     1       0.532   9.160  20.696  0.00  0.00    +0.000 A 
ATOM     18  C   UNL     1      -0.209  10.015  19.900  0.00  0.00    +0.000 A 
ATOM     19  N   UNL     1       0.053  10.238  18.597  0.00  0.00    +0.000 NA
ATOM     20  C   UNL     1       1.096   9.557  18.061  0.00  0.00    +0.000 A 
ENDBRANCH  14  15
ENDBRANCH   4  14
BRANCH   5  21
ATOM     21  C   UNL     1       5.054   5.519  18.264  0.00  0.00    +0.000 C 
BRANCH  21  22
ATOM     22  C   UNL     1       6.115   5.756  17.147  0.00  0.00    +0.000 C 
ATOM     23  C   UNL     1       6.939   7.030  17.377  0.00  0.00    +0.000 C 
ATOM     24  C   UNL     1       7.078   4.546  17.156  0.00  0.00    +0.000 C 
ATOM     25  C   UNL     1       5.482   5.845  15.749  0.00  0.00    +0.000 C 
ENDBRANCH  21  22
ENDBRANCH   5  21
TORSDOF 8
ENDMDL
MODEL 4
REMARK VINA RESULT:      -6.8      2.858      6.513
REMARK  Name = 
REMARK  13 active torsions:
REMARK  status: ('A' for Active; 'I' for Inactive)
REMARK    1  A    between atoms: C_1  and  C_2
REMARK    2  A    between atoms: C_2  and  O_3
REMARK    3  A    between atoms: O_3  and  C_4
REMARK    4  A    between atoms: C_4  and  C_6
REMARK    5  A    between atoms: C_6  and  C_7
REMARK    6  A    between atoms: C_8  and  C_9
REMARK    7  A    between atoms: C_12  and  C_13
REMARK    8  A    between atoms: C_13  and  C_14
REMARK    9  A    between atoms: N_20  and  C_21
REMARK   10  A    between atoms: C_21  and  C_22
REMARK   11  A    between atoms: C_22  and  C_23
REMARK   12  A    between atoms: C_22  and  C_24
REMARK   13  A    between atoms: C_22  and  C_25
REMARK                            x       y       z     vdW  Elec       q    Type
REMARK                         _______ _______ _______ _____ _____    ______ ____
ROOT
ATOM      1  C   UNL     1       1.788   7.791  19.866  0.00  0.00    +0.000 A 
ATOM      2  C   UNL     1       1.803   8.674  18.805  0.00  0.00    +0.000 A 
ATOM      3  C   UNL     1       2.588   8.115  17.788  0.00  0.00    +0.000 A 
ATOM      4  C   UNL     1       3.055   6.887  18.226  0.00  0.00    +0.000 A 
ATOM      5  N   UNL     1       2.566   6.690  19.521  0.00  0.00    +0.000 N 
ENDROOT
BRANCH   1   8
ATOM      6  C   UNL     1       0.325   8.954  21.471  0.00  0.00    +0.000 C 
ATOM      7  C   UNL     1      -0.589   8.794  22.660  0.00  0.00    +0.000 C 
ATOM      8  C   UNL     1       1.049   7.890  21.071  0.00  0.00    +0.000 C 
BRANCH   6   9
ATOM      9  C   UNL     1       0.427  10.313  20.852  0.00  0.00    +0.000 C 
ATOM     10  O   UNL     1       1.356  11.093  21.023  0.00  0.00    +0.000 OA
BRANCH   9  11
ATOM     11  O   UNL     1      -0.735  10.618  20.216  0.00  0.00    +0.000 OA
BRANCH  11  13
ATOM     12  C   UNL     1      -1.344  10.326  17.883  0.00  0.00    +0.000 C 
ATOM     13  C   UNL     1      -0.612  11.178  18.898  0.00  0.00    +0.000 C 
ENDBRANCH  11  13
ENDBRANCH   9  11
ENDBRANCH   6   9
ENDBRANCH   1   8
BRANCH   4  14
ATOM     14  C   UNL     1       3.972   5.973  17.461  0.00  0.00    +0.000 C 
BRANCH  14  15
ATOM     15  C   UNL     1       5.452   6.155  17.740  0.00  0.00    +0.000 A 
ATOM     16  C   UNL     1       6.149   5.457  18.731  0.00  0.00    +0.000 A 
ATOM     17  C   UNL     1       7.480   5.765  19.005  0.00  0.00    +0.000 A 
ATOM     18  C   UNL     1       8.087   6.762  18.264  0.00  0.00    +0.000 A 
ATOM     19  N   UNL     1       7.466   7.446  17.282  0.00  0.00    +0.000 NA
ATOM     20  C   UNL     1       6.168   7.131  17.048  0.00  0.00    +0.000 A 
ENDBRANCH  14  15
ENDBRANCH   4  14
BRANCH   5  21
ATOM     21  C   UNL     1       3.011   5.652  20.449  0.00  0.00    +0.000 C 
BRANCH  21  22
ATOM     22  C   UNL     1       2.458   4.202  20.302  0.00  0.00    +0.000 C 
ATOM     23  C   UNL     1       2.017   3.600  21.643  0.00  0.00    +0.000 C 
ATOM     24  C   UNL     1       1.226   4.266  19.369  0.00  0.00    +0.000 C 
ATOM     25  C   UNL     1       3.482   3.247  19.667  0.00  0.00    +0.000 C 
ENDBRANCH  21  22
ENDBRANCH   5  21
TORSDOF 8
ENDMDL
MODEL 5
REMARK VINA RESULT:      -6.8      0.673      1.307
REMARK  Name = 
REMARK  13 active torsions:
REMARK  status: ('A' for Active; 'I' for Inactive)
REMARK    1  A    between atoms: C_1  and  C_2
REMARK    2  A    between atoms: C_2  and  O_3
REMARK    3  A    between atoms: O_3  and  C_4
REMARK    4  A    between atoms: C_4  and  C_6
REMARK    5  A    between atoms: C_6  and  C_7
REMARK    6  A    between atoms: C_8  and  C_9
REMARK    7  A    between atoms: C_12  and  C_13
REMARK    8  A    between atoms: C_13  and  C_14
REMARK    9  A    between atoms: N_20  and  C_21
REMARK   10  A    between atoms: C_21  and  C_22
REMARK   11  A    between atoms: C_22  and  C_23
REMARK   12  A    between atoms: C_22  and  C_24
REMARK   13  A    between atoms: C_22  and  C_25
REMARK                            x       y       z     vdW  Elec       q    Type
REMARK                         _______ _______ _______ _____ _____    ______ ____
ROOT
ATOM      1  C   UNL     1       4.102   6.190  17.347  0.00  0.00    +0.000 A 
ATOM      2  C   UNL     1       3.725   7.493  17.088  0.00  0.00    +0.000 A 
ATOM      3  C   UNL     1       2.920   7.930  18.148  0.00  0.00    +0.000 A 
ATOM      4  C   UNL     1       2.803   6.893  19.059  0.00  0.00    +0.000 A 
ATOM      5  N   UNL     1       3.529   5.809  18.557  0.00  0.00    +0.000 N 
ENDROOT
BRANCH   1   8
ATOM      6  C   UNL     1       6.300   5.189  16.864  0.00  0.00    +0.000 C 
ATOM      7  C   UNL     1       7.032   4.103  16.116  0.00  0.00    +0.000 C 
ATOM      8  C   UNL     1       4.990   5.376  16.603  0.00  0.00    +0.000 C 
BRANCH   6   9
ATOM      9  C   UNL     1       7.095   6.044  17.801  0.00  0.00    +0.000 C 
ATOM     10  O   UNL     1       7.078   5.949  19.022  0.00  0.00    +0.000 OA
BRANCH   9  11
ATOM     11  O   UNL     1       7.699   7.046  17.109  0.00  0.00    +0.000 OA
BRANCH  11  13
ATOM     12  C   UNL     1       8.452   9.079  18.205  0.00  0.00    +0.000 C 
ATOM     13  C   UNL     1       7.324   8.386  17.471  0.00  0.00    +0.000 C 
ENDBRANCH  11  13
ENDBRANCH   9  11
ENDBRANCH   6   9
ENDBRANCH   1   8
BRANCH   4  14
ATOM     14  C   UNL     1       1.988   6.923  20.323  0.00  0.00    +0.000 C 
BRANCH  14  15
ATOM     15  C   UNL     1       1.391   8.271  20.679  0.00  0.00    +0.000 A 
ATOM     16  C   UNL     1       1.079   8.664  21.985  0.00  0.00    +0.000 A 
ATOM     17  C   UNL     1       0.424   9.870  22.220  0.00  0.00    +0.000 A 
ATOM     18  C   UNL     1       0.109  10.667  21.133  0.00  0.00    +0.000 A 
ATOM     19  N   UNL     1       0.410  10.345  19.860  0.00  0.00    +0.000 NA
ATOM     20  C   UNL     1       1.037   9.158  19.664  0.00  0.00    +0.000 A 
ENDBRANCH  14  15
ENDBRANCH   4  14
BRANCH   5  21
ATOM     21  C   UNL     1       3.474   4.439  19.065  0.00  0.00    +0.000 C 
BRANCH  21  22
ATOM     22  C   UNL     1       2.236   3.549  18.742  0.00  0.00    +0.000 C 
ATOM     23  C   UNL     1       1.392   4.109  17.590  0.00  0.00    +0.000 C 
ATOM     24  C   UNL     1       2.762   2.155  18.325  0.00  0.00    +0.000 C 
ATOM     25  C   UNL     1       1.316   3.362  19.959  0.00  0.00    +0.000 C 
ENDBRANCH  21  22
ENDBRANCH   5  21
TORSDOF 8
ENDMDL
MODEL 6
REMARK VINA RESULT:      -6.7      2.854      6.639
REMARK  Name = 
REMARK  13 active torsions:
REMARK  status: ('A' for Active; 'I' for Inactive)
REMARK    1  A    between atoms: C_1  and  C_2
REMARK    2  A    between atoms: C_2  and  O_3
REMARK    3  A    between atoms: O_3  and  C_4
REMARK    4  A    between atoms: C_4  and  C_6
REMARK    5  A    between atoms: C_6  and  C_7
REMARK    6  A    between atoms: C_8  and  C_9
REMARK    7  A    between atoms: C_12  and  C_13
REMARK    8  A    between atoms: C_13  and  C_14
REMARK    9  A    between atoms: N_20  and  C_21
REMARK   10  A    between atoms: C_21  and  C_22
REMARK   11  A    between atoms: C_22  and  C_23
REMARK   12  A    between atoms: C_22  and  C_24
REMARK   13  A    between atoms: C_22  and  C_25
REMARK                            x       y       z     vdW  Elec       q    Type
REMARK                         _______ _______ _______ _____ _____    ______ ____
ROOT
ATOM      1  C   UNL     1       2.216   7.184  19.644  0.00  0.00    +0.000 A 
ATOM      2  C   UNL     1       2.422   7.895  18.478  0.00  0.00    +0.000 A 
ATOM      3  C   UNL     1       2.957   7.018  17.525  0.00  0.00    +0.000 A 
ATOM      4  C   UNL     1       3.078   5.767  18.107  0.00  0.00    +0.000 A 
ATOM      5  N   UNL     1       2.628   5.872  19.426  0.00  0.00    +0.000 N 
ENDROOT
BRANCH   1   8
ATOM      6  C   UNL     1       0.790   8.699  20.963  0.00  0.00    +0.000 C 
ATOM      7  C   UNL     1       0.042   8.884  22.259  0.00  0.00    +0.000 C 
ATOM      8  C   UNL     1       1.607   7.632  20.841  0.00  0.00    +0.000 C 
BRANCH   6   9
ATOM      9  C   UNL     1       0.638   9.757  19.915  0.00  0.00    +0.000 C 
ATOM     10  O   UNL     1       1.412  10.691  19.745  0.00  0.00    +0.000 OA
BRANCH   9  11
ATOM     11  O   UNL     1      -0.567   9.625  19.300  0.00  0.00    +0.000 OA
BRANCH  11  13
ATOM     12  C   UNL     1      -2.049   9.948  17.403  0.00  0.00    +0.000 C 
ATOM     13  C   UNL     1      -0.691  10.237  18.005  0.00  0.00    +0.000 C 
ENDBRANCH  11  13
ENDBRANCH   9  11
ENDBRANCH   6   9
ENDBRANCH   1   8
BRANCH   4  14
ATOM     14  C   UNL     1       3.651   4.544  17.446  0.00  0.00    +0.000 C 
BRANCH  14  15
ATOM     15  C   UNL     1       4.944   4.763  16.683  0.00  0.00    +0.000 A 
ATOM     16  C   UNL     1       5.060   4.636  15.295  0.00  0.00    +0.000 A 
ATOM     17  C   UNL     1       6.305   4.737  14.680  0.00  0.00    +0.000 A 
ATOM     18  C   UNL     1       7.411   4.979  15.476  0.00  0.00    +0.000 A 
ATOM     19  N   UNL     1       7.348   5.133  16.813  0.00  0.00    +0.000 NA
ATOM     20  C   UNL     1       6.123   5.018  17.383  0.00  0.00    +0.000 A 
ENDBRANCH  14  15
ENDBRANCH   4  14
BRANCH   5  21
ATOM     21  C   UNL     1       2.810   4.866  20.471  0.00  0.00    +0.000 C 
BRANCH  21  22
ATOM     22  C   UNL     1       2.012   3.529  20.396  0.00  0.00    +0.000 C 
ATOM     23  C   UNL     1       2.789   2.417  19.678  0.00  0.00    +0.000 C 
ATOM     24  C   UNL     1       1.736   3.070  21.847  0.00  0.00    +0.000 C 
ATOM     25  C   UNL     1       0.657   3.695  19.689  0.00  0.00    +0.000 C 
ENDBRANCH  21  22
ENDBRANCH   5  21
TORSDOF 8
ENDMDL
MODEL 7
REMARK VINA RESULT:      -6.7      2.856      6.682
REMARK  Name = 
REMARK  13 active torsions:
REMARK  status: ('A' for Active; 'I' for Inactive)
REMARK    1  A    between atoms: C_1  and  C_2
REMARK    2  A    between atoms: C_2  and  O_3
REMARK    3  A    between atoms: O_3  and  C_4
REMARK    4  A    between atoms: C_4  and  C_6
REMARK    5  A    between atoms: C_6  and  C_7
REMARK    6  A    between atoms: C_8  and  C_9
REMARK    7  A    between atoms: C_12  and  C_13
REMARK    8  A    between atoms: C_13  and  C_14
REMARK    9  A    between atoms: N_20  and  C_21
REMARK   10  A    between atoms: C_21  and  C_22
REMARK   11  A    between atoms: C_22  and  C_23
REMARK   12  A    between atoms: C_22  and  C_24
REMARK   13  A    between atoms: C_22  and  C_25
REMARK                            x       y       z     vdW  Elec       q    Type
REMARK                         _______ _______ _______ _____ _____    ______ ____
ROOT
ATOM      1  C   UNL     1       1.948   7.417  19.808  0.00  0.00    +0.000 A 
ATOM      2  C   UNL     1       2.135   8.240  18.715  0.00  0.00    +0.000 A 
ATOM      3  C   UNL     1       2.813   7.506  17.733  0.00  0.00    +0.000 A 
ATOM      4  C   UNL     1       3.042   6.232  18.224  0.00  0.00    +0.000 A 
ATOM      5  N   UNL     1       2.513   6.179  19.517  0.00  0.00    +0.000 N 
ENDROOT
BRANCH   1   8
ATOM      6  C   UNL     1       0.432   8.764  21.207  0.00  0.00    +0.000 C 
ATOM      7  C   UNL     1      -0.442   8.774  22.436  0.00  0.00    +0.000 C 
ATOM      8  C   UNL     1       1.229   7.696  20.996  0.00  0.00    +0.000 C 
BRANCH   6   9
ATOM      9  C   UNL     1       0.414   9.978  20.332  0.00  0.00    +0.000 C 
ATOM     10  O   UNL     1       1.208  10.908  20.409  0.00  0.00    +0.000 OA
BRANCH   9  11
ATOM     11  O   UNL     1      -0.706   9.975  19.563  0.00  0.00    +0.000 OA
BRANCH  11  13
ATOM     12  C   UNL     1      -1.526  11.653  18.010  0.00  0.00    +0.000 C 
ATOM     13  C   UNL     1      -1.410  11.224  19.457  0.00  0.00    +0.000 C 
ENDBRANCH  11  13
ENDBRANCH   9  11
ENDBRANCH   6   9
ENDBRANCH   1   8
BRANCH   4  14
ATOM     14  C   UNL     1       3.782   5.136  17.508  0.00  0.00    +0.000 C 
BRANCH  14  15
ATOM     15  C   UNL     1       5.263   5.039  17.822  0.00  0.00    +0.000 A 
ATOM     16  C   UNL     1       5.839   5.499  19.011  0.00  0.00    +0.000 A 
ATOM     17  C   UNL     1       7.222   5.483  19.176  0.00  0.00    +0.000 A 
ATOM     18  C   UNL     1       7.999   4.989  18.144  0.00  0.00    +0.000 A 
ATOM     19  N   UNL     1       7.491   4.512  16.990  0.00  0.00    +0.000 NA
ATOM     20  C   UNL     1       6.142   4.552  16.856  0.00  0.00    +0.000 A 
ENDBRANCH  14  15
ENDBRANCH   4  14
BRANCH   5  21
ATOM     21  C   UNL     1       2.751   5.114  20.490  0.00  0.00    +0.000 C 
BRANCH  21  22
ATOM     22  C   UNL     1       2.056   3.732  20.301  0.00  0.00    +0.000 C 
ATOM     23  C   UNL     1       0.915   3.780  19.277  0.00  0.00    +0.000 C 
ATOM     24  C   UNL     1       3.127   2.739  19.790  0.00  0.00    +0.000 C 
ATOM     25  C   UNL     1       1.490   3.177  21.618  0.00  0.00    +0.000 C 
ENDBRANCH  21  22
ENDBRANCH   5  21
TORSDOF 8
ENDMDL
MODEL 8
REMARK VINA RESULT:      -6.7      2.852      6.478
REMARK  Name = 
REMARK  13 active torsions:
REMARK  status: ('A' for Active; 'I' for Inactive)
REMARK    1  A    between atoms: C_1  and  C_2
REMARK    2  A    between atoms: C_2  and  O_3
REMARK    3  A    between atoms: O_3  and  C_4
REMARK    4  A    between atoms: C_4  and  C_6
REMARK    5  A    between atoms: C_6  and  C_7
REMARK    6  A    between atoms: C_8  and  C_9
REMARK    7  A    between atoms: C_12  and  C_13
REMARK    8  A    between atoms: C_13  and  C_14
REMARK    9  A    between atoms: N_20  and  C_21
REMARK   10  A    between atoms: C_21  and  C_22
REMARK   11  A    between atoms: C_22  and  C_23
REMARK   12  A    between atoms: C_22  and  C_24
REMARK   13  A    between atoms: C_22  and  C_25
REMARK                            x       y       z     vdW  Elec       q    Type
REMARK                         _______ _______ _______ _____ _____    ______ ____
ROOT
ATOM      1  C   UNL     1       1.792   7.821  19.812  0.00  0.00    +0.000 A 
ATOM      2  C   UNL     1       1.823   8.720  18.765  0.00  0.00    +0.000 A 
ATOM      3  C   UNL     1       2.620   8.174  17.749  0.00  0.00    +0.000 A 
ATOM      4  C   UNL     1       3.078   6.938  18.174  0.00  0.00    +0.000 A 
ATOM      5  N   UNL     1       2.571   6.722  19.460  0.00  0.00    +0.000 N 
ENDROOT
BRANCH   1   8
ATOM      6  C   UNL     1       0.350   8.980  21.439  0.00  0.00    +0.000 C 
ATOM      7  C   UNL     1      -0.588   8.811  22.607  0.00  0.00    +0.000 C 
ATOM      8  C   UNL     1       1.038   7.903  21.008  0.00  0.00    +0.000 C 
BRANCH   6   9
ATOM      9  C   UNL     1       0.518  10.356  20.875  0.00  0.00    +0.000 C 
ATOM     10  O   UNL     1       1.370  11.161  21.232  0.00  0.00    +0.000 OA
BRANCH   9  11
ATOM     11  O   UNL     1      -0.515  10.641  20.039  0.00  0.00    +0.000 OA
BRANCH  11  13
ATOM     12  C   UNL     1      -0.456  12.539  18.525  0.00  0.00    +0.000 C 
ATOM     13  C   UNL     1      -0.854  12.030  19.894  0.00  0.00    +0.000 C 
ENDBRANCH  11  13
ENDBRANCH   9  11
ENDBRANCH   6   9
ENDBRANCH   1   8
BRANCH   4  14
ATOM     14  C   UNL     1       4.002   6.033  17.407  0.00  0.00    +0.000 C 
BRANCH  14  15
ATOM     15  C   UNL     1       5.479   6.208  17.706  0.00  0.00    +0.000 A 
ATOM     16  C   UNL     1       6.161   5.501  18.702  0.00  0.00    +0.000 A 
ATOM     17  C   UNL     1       7.489   5.802  18.995  0.00  0.00    +0.000 A 
ATOM     18  C   UNL     1       8.109   6.802  18.268  0.00  0.00    +0.000 A 
ATOM     19  N   UNL     1       7.503   7.495  17.284  0.00  0.00    +0.000 NA
ATOM     20  C   UNL     1       6.207   7.186  17.031  0.00  0.00    +0.000 A 
ENDBRANCH  14  15
ENDBRANCH   4  14
BRANCH   5  21
ATOM     21  C   UNL     1       3.001   5.669  20.378  0.00  0.00    +0.000 C 
BRANCH  21  22
ATOM     22  C   UNL     1       2.482   4.213  20.173  0.00  0.00    +0.000 C 
ATOM     23  C   UNL     1       3.576   3.263  19.667  0.00  0.00    +0.000 C 
ATOM     24  C   UNL     1       1.987   3.698  21.545  0.00  0.00    +0.000 C 
ATOM     25  C   UNL     1       1.302   4.146  19.190  0.00  0.00    +0.000 C 
ENDBRANCH  21  22
ENDBRANCH   5  21
TORSDOF 8
ENDMDL
MODEL 9
REMARK VINA RESULT:      -6.7      1.122      1.696
REMARK  Name = 
REMARK  13 active torsions:
REMARK  status: ('A' for Active; 'I' for Inactive)
REMARK    1  A    between atoms: C_1  and  C_2
REMARK    2  A    between atoms: C_2  and  O_3
REMARK    3  A    between atoms: O_3  and  C_4
REMARK    4  A    between atoms: C_4  and  C_6
REMARK    5  A    between atoms: C_6  and  C_7
REMARK    6  A    between atoms: C_8  and  C_9
REMARK    7  A    between atoms: C_12  and  C_13
REMARK    8  A    between atoms: C_13  and  C_14
REMARK    9  A    between atoms: N_20  and  C_21
REMARK   10  A    between atoms: C_21  and  C_22
REMARK   11  A    between atoms: C_22  and  C_23
REMARK   12  A    between atoms: C_22  and  C_24
REMARK   13  A    between atoms: C_22  and  C_25
REMARK                            x       y       z     vdW  Elec       q    Type
REMARK                         _______ _______ _______ _____ _____    ______ ____
ROOT
ATOM      1  C   UNL     1       4.198   5.987  16.912  0.00  0.00    +0.000 A 
ATOM      2  C   UNL     1       4.405   7.337  17.114  0.00  0.00    +0.000 A 
ATOM      3  C   UNL     1       3.620   7.737  18.204  0.00  0.00    +0.000 A 
ATOM      4  C   UNL     1       2.931   6.631  18.672  0.00  0.00    +0.000 A 
ATOM      5  N   UNL     1       3.282   5.545  17.863  0.00  0.00    +0.000 N 
ENDROOT
BRANCH   1   8
ATOM      6  C   UNL     1       6.058   4.562  16.152  0.00  0.00    +0.000 C 
ATOM      7  C   UNL     1       6.485   3.495  15.176  0.00  0.00    +0.000 C 
ATOM      8  C   UNL     1       4.848   5.134  15.987  0.00  0.00    +0.000 C 
BRANCH   6   9
ATOM      9  C   UNL     1       7.039   4.974  17.205  0.00  0.00    +0.000 C 
ATOM     10  O   UNL     1       7.271   4.346  18.231  0.00  0.00    +0.000 OA
BRANCH   9  11
ATOM     11  O   UNL     1       7.503   6.223  16.938  0.00  0.00    +0.000 OA
BRANCH  11  13
ATOM     12  C   UNL     1       7.906   8.501  17.681  0.00  0.00    +0.000 C 
ATOM     13  C   UNL     1       7.819   7.042  18.077  0.00  0.00    +0.000 C 
ENDBRANCH  11  13
ENDBRANCH   9  11
ENDBRANCH   6   9
ENDBRANCH   1   8
BRANCH   4  14
ATOM     14  C   UNL     1       1.941   6.628  19.804  0.00  0.00    +0.000 C 
BRANCH  14  15
ATOM     15  C   UNL     1       1.535   7.997  20.315  0.00  0.00    +0.000 A 
ATOM     16  C   UNL     1       1.395   8.311  21.671  0.00  0.00    +0.000 A 
ATOM     17  C   UNL     1       0.904   9.556  22.058  0.00  0.00    +0.000 A 
ATOM     18  C   UNL     1       0.578  10.467  21.070  0.00  0.00    +0.000 A 
ATOM     19  N   UNL     1       0.718  10.221  19.752  0.00  0.00    +0.000 NA
ATOM     20  C   UNL     1       1.187   8.997  19.408  0.00  0.00    +0.000 A 
ENDBRANCH  14  15
ENDBRANCH   4  14
BRANCH   5  21
ATOM     21  C   UNL     1       2.608   4.248  17.841  0.00  0.00    +0.000 C 
BRANCH  21  22
ATOM     22  C   UNL     1       3.055   3.133  18.833  0.00  0.00    +0.000 C 
ATOM     23  C   UNL     1       1.990   2.824  19.893  0.00  0.00    +0.000 C 
ATOM     24  C   UNL     1       3.306   1.849  18.008  0.00  0.00    +0.000 C 
ATOM     25  C   UNL     1       4.362   3.488  19.562  0.00  0.00    +0.000 C 
ENDBRANCH  21  22
ENDBRANCH   5  21
TORSDOF 8
ENDMDL
