MODEL 1
REMARK VINA RESULT:      -8.9      0.000      0.000
REMARK  Name = 
REMARK  7 active torsions:
REMARK  status: ('A' for Active; 'I' for Inactive)
REMARK    1  A    between atoms: C_1  and  C_2
REMARK    2  A    between atoms: C_6  and  C_7
REMARK    3  A    between atoms: C_9  and  C_10
REMARK    4  A    between atoms: C_10  and  N_11
REMARK    5  A    between atoms: N_11  and  C_12
REMARK    6  A    between atoms: C_16  and  C_17
REMARK    7  A    between atoms: C_21  and  C_22
REMARK                            x       y       z     vdW  Elec       q    Type
REMARK                         _______ _______ _______ _____ _____    ______ ____
ROOT
ATOM      1  C   UNL     1       3.829   5.194  18.087  0.00  0.00    +0.000 A 
ATOM      2  N   UNL     1       4.994   4.744  17.552  0.00  0.00    +0.000 N 
ATOM      3  C   UNL     1       5.681   5.860  17.180  0.00  0.00    +0.000 A 
ATOM      4  N   UNL     1       4.986   6.983  17.440  0.00  0.00    +0.000 NA
ATOM      5  C   UNL     1       3.840   6.559  18.009  0.00  0.00    +0.000 A 
ATOM      6  H   UNL     1       5.321   3.755  17.465  0.00  0.00    +0.000 HD
ENDROOT
BRANCH   5   7
ATOM      7  C   UNL     1       2.791   7.456  18.480  0.00  0.00    +0.000 A 
ATOM      8  C   UNL     1       2.190   8.407  17.623  0.00  0.00    +0.000 A 
ATOM      9  C   UNL     1       1.206   9.268  18.096  0.00  0.00    +0.000 A 
ATOM     10  C   UNL     1       0.879   9.171  19.442  0.00  0.00    +0.000 A 
ATOM     11  N   UNL     1       0.018   9.939  20.124  0.00  0.00    +0.000 NA
ATOM     12  C   UNL     1       0.102   9.431  21.380  0.00  0.00    +0.000 A 
ATOM     13  N   UNL     1       0.968   8.393  21.457  0.00  0.00    +0.000 NA
ATOM     14  N   UNL     1       1.444   8.256  20.235  0.00  0.00    +0.000 N 
ATOM     15  C   UNL     1       2.382   7.380  19.815  0.00  0.00    +0.000 A 
ENDBRANCH   5   7
BRANCH   1  21
ATOM     16  C   UNL     1       1.890   2.762  21.990  0.00  0.00    +0.000 C 
ATOM     17  C   UNL     1       1.717   3.295  20.584  0.00  0.00    +0.000 A 
ATOM     18  C   UNL     1       0.642   2.893  19.800  0.00  0.00    +0.000 A 
ATOM     19  C   UNL     1       0.590   3.307  18.503  0.00  0.00    +0.000 A 
ATOM     20  C   UNL     1       1.652   4.023  17.898  0.00  0.00    +0.000 A 
ATOM     21  C   UNL     1       2.718   4.393  18.677  0.00  0.00    +0.000 A 
ATOM     22  N   UNL     1       2.707   4.035  20.008  0.00  0.00    +0.000 NA
ENDBRANCH   1  21
BRANCH   3  23
ATOM     23  C   UNL     1       7.089   5.895  16.590  0.00  0.00    +0.000 C 
BRANCH  23  24
ATOM     24  N   UNL     1       7.394   4.720  15.776  0.00  0.00    +0.000 N 
ATOM     25  H   UNL     1       7.645   3.836  16.241  0.00  0.00    +0.000 HD
BRANCH  24  26
ATOM     26  C   UNL     1       7.267   4.704  14.346  0.00  0.00    +0.000 A 
ATOM     27  C   UNL     1       8.128   5.452  13.528  0.00  0.00    +0.000 A 
ATOM     28  C   UNL     1       8.008   5.407  12.135  0.00  0.00    +0.000 A 
ATOM     29  C   UNL     1       7.002   4.644  11.529  0.00  0.00    +0.000 A 
ATOM     30  C   UNL     1       6.109   3.918  12.337  0.00  0.00    +0.000 A 
ATOM     31  C   UNL     1       6.260   3.933  13.728  0.00  0.00    +0.000 A 
BRANCH  30  32
ATOM     32  C   UNL     1       4.977   3.221  11.775  0.00  0.00    +0.000 C 
ATOM     33  N   UNL     1       4.084   2.675  11.282  0.00  0.00    +0.000 NA
ENDBRANCH  30  32
ENDBRANCH  24  26
ENDBRANCH  23  24
ENDBRANCH   3  23
TORSDOF 6
ENDMDL
MODEL 2
REMARK VINA RESULT:      -8.9      2.008      8.294
REMARK  Name = 
REMARK  7 active torsions:
REMARK  status: ('A' for Active; 'I' for Inactive)
REMARK    1  A    between atoms: C_1  and  C_2
REMARK    2  A    between atoms: C_6  and  C_7
REMARK    3  A    between atoms: C_9  and  C_10
REMARK    4  A    between atoms: C_10  and  N_11
REMARK    5  A    between atoms: N_11  and  C_12
REMARK    6  A    between atoms: C_16  and  C_17
REMARK    7  A    between atoms: C_21  and  C_22
REMARK                            x       y       z     vdW  Elec       q    Type
REMARK                         _______ _______ _______ _____ _____    ______ ____
ROOT
ATOM      1  C   UNL     1       3.818   7.131  17.594  0.00  0.00    +0.000 A 
ATOM      2  N   UNL     1       3.724   8.455  17.296  0.00  0.00    +0.000 N 
ATOM      3  C   UNL     1       2.532   8.861  17.816  0.00  0.00    +0.000 A 
ATOM      4  N   UNL     1       1.872   7.847  18.404  0.00  0.00    +0.000 NA
ATOM      5  C   UNL     1       2.682   6.778  18.266  0.00  0.00    +0.000 A 
ATOM      6  H   UNL     1       4.424   9.053  16.802  0.00  0.00    +0.000 HD
ENDROOT
BRANCH   5   7
ATOM      7  C   UNL     1       2.368   5.454  18.788  0.00  0.00    +0.000 A 
ATOM      8  C   UNL     1       1.893   4.420  17.948  0.00  0.00    +0.000 A 
ATOM      9  C   UNL     1       1.579   3.169  18.468  0.00  0.00    +0.000 A 
ATOM     10  C   UNL     1       1.718   3.005  19.840  0.00  0.00    +0.000 A 
ATOM     11  N   UNL     1       1.409   1.918  20.561  0.00  0.00    +0.000 NA
ATOM     12  C   UNL     1       1.715   2.307  21.825  0.00  0.00    +0.000 A 
ATOM     13  N   UNL     1       2.198   3.572  21.869  0.00  0.00    +0.000 NA
ATOM     14  N   UNL     1       2.182   3.986  20.618  0.00  0.00    +0.000 N 
ATOM     15  C   UNL     1       2.529   5.207  20.156  0.00  0.00    +0.000 A 
ENDBRANCH   5   7
BRANCH   1  21
ATOM     16  C   UNL     1       6.084   4.063  14.375  0.00  0.00    +0.000 C 
ATOM     17  C   UNL     1       6.104   4.784  15.706  0.00  0.00    +0.000 A 
ATOM     18  C   UNL     1       7.034   4.446  16.681  0.00  0.00    +0.000 A 
ATOM     19  C   UNL     1       6.941   5.040  17.905  0.00  0.00    +0.000 A 
ATOM     20  C   UNL     1       5.862   5.890  18.248  0.00  0.00    +0.000 A 
ATOM     21  C   UNL     1       4.938   6.197  17.282  0.00  0.00    +0.000 A 
ATOM     22  N   UNL     1       5.102   5.650  16.028  0.00  0.00    +0.000 NA
ENDBRANCH   1  21
BRANCH   3  23
ATOM     23  C   UNL     1       1.989  10.289  17.810  0.00  0.00    +0.000 C 
BRANCH  23  24
ATOM     24  N   UNL     1       0.533  10.344  17.912  0.00  0.00    +0.000 N 
ATOM     25  H   UNL     1      -0.041   9.961  17.147  0.00  0.00    +0.000 HD
BRANCH  24  26
ATOM     26  C   UNL     1      -0.154  10.823  19.078  0.00  0.00    +0.000 A 
ATOM     27  C   UNL     1      -1.078  11.876  19.001  0.00  0.00    +0.000 A 
ATOM     28  C   UNL     1      -1.758  12.316  20.141  0.00  0.00    +0.000 A 
ATOM     29  C   UNL     1      -1.501  11.740  21.392  0.00  0.00    +0.000 A 
ATOM     30  C   UNL     1      -0.550  10.709  21.492  0.00  0.00    +0.000 A 
ATOM     31  C   UNL     1       0.095  10.244  20.340  0.00  0.00    +0.000 A 
BRANCH  30  32
ATOM     32  C   UNL     1      -0.153  10.169  22.769  0.00  0.00    +0.000 C 
ATOM     33  N   UNL     1       0.148   9.695  23.781  0.00  0.00    +0.000 NA
ENDBRANCH  30  32
ENDBRANCH  24  26
ENDBRANCH  23  24
ENDBRANCH   3  23
TORSDOF 6
ENDMDL
MODEL 3
REMARK VINA RESULT:      -8.8      2.634      8.249
REMARK  Name = 
REMARK  7 active torsions:
REMARK  status: ('A' for Active; 'I' for Inactive)
REMARK    1  A    between atoms: C_1  and  C_2
REMARK    2  A    between atoms: C_6  and  C_7
REMARK    3  A    between atoms: C_9  and  C_10
REMARK    4  A    between atoms: C_10  and  N_11
REMARK    5  A    between atoms: N_11  and  C_12
REMARK    6  A    between atoms: C_16  and  C_17
REMARK    7  A    between atoms: C_21  and  C_22
REMARK                            x       y       z     vdW  Elec       q    Type
REMARK                         _______ _______ _______ _____ _____    ______ ____
ROOT
ATOM      1  C   UNL     1       3.755   7.215  17.646  0.00  0.00    +0.000 A 
ATOM      2  N   UNL     1       3.633   8.535  17.341  0.00  0.00    +0.000 N 
ATOM      3  C   UNL     1       2.410   8.907  17.813  0.00  0.00    +0.000 A 
ATOM      4  N   UNL     1       1.758   7.874  18.378  0.00  0.00    +0.000 NA
ATOM      5  C   UNL     1       2.604   6.830  18.275  0.00  0.00    +0.000 A 
ATOM      6  H   UNL     1       4.334   9.153  16.872  0.00  0.00    +0.000 HD
ENDROOT
BRANCH   5   7
ATOM      7  C   UNL     1       2.309   5.498  18.788  0.00  0.00    +0.000 A 
ATOM      8  C   UNL     1       1.828   4.469  17.946  0.00  0.00    +0.000 A 
ATOM      9  C   UNL     1       1.533   3.210  18.458  0.00  0.00    +0.000 A 
ATOM     10  C   UNL     1       1.697   3.033  19.825  0.00  0.00    +0.000 A 
ATOM     11  N   UNL     1       1.409   1.936  20.541  0.00  0.00    +0.000 NA
ATOM     12  C   UNL     1       1.734   2.315  21.803  0.00  0.00    +0.000 A 
ATOM     13  N   UNL     1       2.208   3.583  21.852  0.00  0.00    +0.000 NA
ATOM     14  N   UNL     1       2.167   4.010  20.606  0.00  0.00    +0.000 N 
ATOM     15  C   UNL     1       2.496   5.238  20.150  0.00  0.00    +0.000 A 
ENDBRANCH   5   7
BRANCH   1  21
ATOM     16  C   UNL     1       8.160   5.350  19.068  0.00  0.00    +0.000 C 
ATOM     17  C   UNL     1       6.998   5.325  18.098  0.00  0.00    +0.000 A 
ATOM     18  C   UNL     1       7.089   4.625  16.901  0.00  0.00    +0.000 A 
ATOM     19  C   UNL     1       6.065   4.726  16.007  0.00  0.00    +0.000 A 
ATOM     20  C   UNL     1       4.979   5.612  16.205  0.00  0.00    +0.000 A 
ATOM     21  C   UNL     1       4.913   6.314  17.381  0.00  0.00    +0.000 A 
ATOM     22  N   UNL     1       5.919   6.131  18.305  0.00  0.00    +0.000 NA
ENDBRANCH   1  21
BRANCH   3  23
ATOM     23  C   UNL     1       1.826  10.318  17.782  0.00  0.00    +0.000 C 
BRANCH  23  24
ATOM     24  N   UNL     1       0.375  10.337  17.954  0.00  0.00    +0.000 N 
ATOM     25  H   UNL     1      -0.224   9.912  17.232  0.00  0.00    +0.000 HD
BRANCH  24  26
ATOM     26  C   UNL     1      -0.267  10.837  19.137  0.00  0.00    +0.000 A 
ATOM     27  C   UNL     1      -1.145  11.930  19.085  0.00  0.00    +0.000 A 
ATOM     28  C   UNL     1      -1.782  12.391  20.242  0.00  0.00    +0.000 A 
ATOM     29  C   UNL     1      -1.527  11.795  21.483  0.00  0.00    +0.000 A 
ATOM     30  C   UNL     1      -0.622  10.721  21.557  0.00  0.00    +0.000 A 
ATOM     31  C   UNL     1      -0.020  10.237  20.390  0.00  0.00    +0.000 A 
BRANCH  30  32
ATOM     32  C   UNL     1      -0.224  10.154  22.823  0.00  0.00    +0.000 C 
ATOM     33  N   UNL     1       0.139   9.707  23.826  0.00  0.00    +0.000 NA
ENDBRANCH  30  32
ENDBRANCH  24  26
ENDBRANCH  23  24
ENDBRANCH   3  23
TORSDOF 6
ENDMDL
MODEL 4
REMARK VINA RESULT:      -8.8      2.526      7.836
REMARK  Name = 
REMARK  7 active torsions:
REMARK  status: ('A' for Active; 'I' for Inactive)
REMARK    1  A    between atoms: C_1  and  C_2
REMARK    2  A    between atoms: C_6  and  C_7
REMARK    3  A    between atoms: C_9  and  C_10
REMARK    4  A    between atoms: C_10  and  N_11
REMARK    5  A    between atoms: N_11  and  C_12
REMARK    6  A    between atoms: C_16  and  C_17
REMARK    7  A    between atoms: C_21  and  C_22
REMARK                            x       y       z     vdW  Elec       q    Type
REMARK                         _______ _______ _______ _____ _____    ______ ____
ROOT
ATOM      1  C   UNL     1       2.220   6.455  18.683  0.00  0.00    +0.000 A 
ATOM      2  N   UNL     1       1.358   7.466  18.970  0.00  0.00    +0.000 N 
ATOM      3  C   UNL     1       1.964   8.601  18.521  0.00  0.00    +0.000 A 
ATOM      4  N   UNL     1       3.173   8.344  17.988  0.00  0.00    +0.000 NA
ATOM      5  C   UNL     1       3.320   7.008  18.087  0.00  0.00    +0.000 A 
ATOM      6  H   UNL     1       0.413   7.399  19.412  0.00  0.00    +0.000 HD
ENDROOT
BRANCH   5   7
ATOM      7  C   UNL     1       4.489   6.285  17.602  0.00  0.00    +0.000 A 
ATOM      8  C   UNL     1       5.381   5.639  18.489  0.00  0.00    +0.000 A 
ATOM      9  C   UNL     1       6.503   4.972  18.008  0.00  0.00    +0.000 A 
ATOM     10  C   UNL     1       6.717   5.008  16.637  0.00  0.00    +0.000 A 
ATOM     11  N   UNL     1       7.760   4.500  15.966  0.00  0.00    +0.000 NA
ATOM     12  C   UNL     1       7.475   4.835  14.682  0.00  0.00    +0.000 A 
ATOM     13  N   UNL     1       6.305   5.509  14.575  0.00  0.00    +0.000 NA
ATOM     14  N   UNL     1       5.856   5.610  15.810  0.00  0.00    +0.000 N 
ATOM     15  C   UNL     1       4.739   6.243  16.226  0.00  0.00    +0.000 A 
ENDBRANCH   5   7
BRANCH   1  21
ATOM     16  C   UNL     1       1.911   2.658  21.906  0.00  0.00    +0.000 C 
ATOM     17  C   UNL     1       1.790   3.157  20.482  0.00  0.00    +0.000 A 
ATOM     18  C   UNL     1       1.704   2.263  19.422  0.00  0.00    +0.000 A 
ATOM     19  C   UNL     1       1.714   2.756  18.151  0.00  0.00    +0.000 A 
ATOM     20  C   UNL     1       1.934   4.128  17.878  0.00  0.00    +0.000 A 
ATOM     21  C   UNL     1       2.042   4.996  18.934  0.00  0.00    +0.000 A 
ATOM     22  N   UNL     1       1.943   4.484  20.210  0.00  0.00    +0.000 NA
ENDBRANCH   1  21
BRANCH   3  23
ATOM     23  C   UNL     1       1.369  10.008  18.544  0.00  0.00    +0.000 C 
BRANCH  23  24
ATOM     24  N   UNL     1       0.089  10.073  19.247  0.00  0.00    +0.000 N 
ATOM     25  H   UNL     1       0.049   9.824  20.246  0.00  0.00    +0.000 HD
BRANCH  24  26
ATOM     26  C   UNL     1      -1.115  10.563  18.638  0.00  0.00    +0.000 A 
ATOM     27  C   UNL     1      -2.043  11.325  19.363  0.00  0.00    +0.000 A 
ATOM     28  C   UNL     1      -3.200  11.816  18.750  0.00  0.00    +0.000 A 
ATOM     29  C   UNL     1      -3.475  11.526  17.408  0.00  0.00    +0.000 A 
ATOM     30  C   UNL     1      -2.572  10.733  16.677  0.00  0.00    +0.000 A 
ATOM     31  C   UNL     1      -1.395  10.279  17.284  0.00  0.00    +0.000 A 
BRANCH  30  32
ATOM     32  C   UNL     1      -2.867  10.296  15.334  0.00  0.00    +0.000 C 
ATOM     33  N   UNL     1      -3.142   9.970  14.259  0.00  0.00    +0.000 NA
ENDBRANCH  30  32
ENDBRANCH  24  26
ENDBRANCH  23  24
ENDBRANCH   3  23
TORSDOF 6
ENDMDL
MODEL 5
REMARK VINA RESULT:      -8.6      2.676      7.935
REMARK  Name = 
REMARK  7 active torsions:
REMARK  status: ('A' for Active; 'I' for Inactive)
REMARK    1  A    between atoms: C_1  and  C_2
REMARK    2  A    between atoms: C_6  and  C_7
REMARK    3  A    between atoms: C_9  and  C_10
REMARK    4  A    between atoms: C_10  and  N_11
REMARK    5  A    between atoms: N_11  and  C_12
REMARK    6  A    between atoms: C_16  and  C_17
REMARK    7  A    between atoms: C_21  and  C_22
REMARK                            x       y       z     vdW  Elec       q    Type
REMARK                         _______ _______ _______ _____ _____    ______ ____
ROOT
ATOM      1  C   UNL     1       2.409   6.649  19.036  0.00  0.00    +0.000 A 
ATOM      2  N   UNL     1       1.505   7.643  19.247  0.00  0.00    +0.000 N 
ATOM      3  C   UNL     1       1.949   8.701  18.513  0.00  0.00    +0.000 A 
ATOM      4  N   UNL     1       3.098   8.418  17.873  0.00  0.00    +0.000 NA
ATOM      5  C   UNL     1       3.373   7.139  18.199  0.00  0.00    +0.000 A 
ATOM      6  H   UNL     1       0.634   7.606  19.823  0.00  0.00    +0.000 HD
ENDROOT
BRANCH   5   7
ATOM      7  C   UNL     1       4.529   6.407  17.698  0.00  0.00    +0.000 A 
ATOM      8  C   UNL     1       5.500   5.868  18.573  0.00  0.00    +0.000 A 
ATOM      9  C   UNL     1       6.608   5.191  18.075  0.00  0.00    +0.000 A 
ATOM     10  C   UNL     1       6.727   5.109  16.694  0.00  0.00    +0.000 A 
ATOM     11  N   UNL     1       7.739   4.570  15.998  0.00  0.00    +0.000 NA
ATOM     12  C   UNL     1       7.356   4.781  14.713  0.00  0.00    +0.000 A 
ATOM     13  N   UNL     1       6.160   5.410  14.630  0.00  0.00    +0.000 NA
ATOM     14  N   UNL     1       5.793   5.610  15.881  0.00  0.00    +0.000 N 
ATOM     15  C   UNL     1       4.686   6.249  16.317  0.00  0.00    +0.000 A 
ENDBRANCH   5   7
BRANCH   1  21
ATOM     16  C   UNL     1       2.823   1.734  18.276  0.00  0.00    +0.000 C 
ATOM     17  C   UNL     1       2.686   2.884  19.251  0.00  0.00    +0.000 A 
ATOM     18  C   UNL     1       2.366   2.650  20.583  0.00  0.00    +0.000 A 
ATOM     19  C   UNL     1       2.139   3.720  21.396  0.00  0.00    +0.000 A 
ATOM     20  C   UNL     1       2.097   5.046  20.901  0.00  0.00    +0.000 A 
ATOM     21  C   UNL     1       2.391   5.260  19.579  0.00  0.00    +0.000 A 
ATOM     22  N   UNL     1       2.701   4.169  18.796  0.00  0.00    +0.000 NA
ENDBRANCH   1  21
BRANCH   3  23
ATOM     23  C   UNL     1       1.241  10.046  18.356  0.00  0.00    +0.000 C 
BRANCH  23  24
ATOM     24  N   UNL     1      -0.023  10.112  19.086  0.00  0.00    +0.000 N 
ATOM     25  H   UNL     1      -0.038   9.884  20.090  0.00  0.00    +0.000 HD
BRANCH  24  26
ATOM     26  C   UNL     1      -1.245  10.579  18.494  0.00  0.00    +0.000 A 
ATOM     27  C   UNL     1      -2.183  11.311  19.237  0.00  0.00    +0.000 A 
ATOM     28  C   UNL     1      -3.359  11.780  18.641  0.00  0.00    +0.000 A 
ATOM     29  C   UNL     1      -3.641  11.495  17.299  0.00  0.00    +0.000 A 
ATOM     30  C   UNL     1      -2.728  10.731  16.551  0.00  0.00    +0.000 A 
ATOM     31  C   UNL     1      -1.534  10.301  17.141  0.00  0.00    +0.000 A 
BRANCH  30  32
ATOM     32  C   UNL     1      -3.026  10.299  15.207  0.00  0.00    +0.000 C 
ATOM     33  N   UNL     1      -3.254   9.995  14.115  0.00  0.00    +0.000 NA
ENDBRANCH  30  32
ENDBRANCH  24  26
ENDBRANCH  23  24
ENDBRANCH   3  23
TORSDOF 6
ENDMDL
MODEL 6
REMARK VINA RESULT:      -8.6      2.464      7.876
REMARK  Name = 
REMARK  7 active torsions:
REMARK  status: ('A' for Active; 'I' for Inactive)
REMARK    1  A    between atoms: C_1  and  C_2
REMARK    2  A    between atoms: C_6  and  C_7
REMARK    3  A    between atoms: C_9  and  C_10
REMARK    4  A    between atoms: C_10  and  N_11
REMARK    5  A    between atoms: N_11  and  C_12
REMARK    6  A    between atoms: C_16  and  C_17
REMARK    7  A    between atoms: C_21  and  C_22
REMARK                            x       y       z     vdW  Elec       q    Type
REMARK                         _______ _______ _______ _____ _____    ______ ____
ROOT
ATOM      1  C   UNL     1       3.747   7.180  17.639  0.00  0.00    +0.000 A 
ATOM      2  N   UNL     1       3.602   8.507  17.383  0.00  0.00    +0.000 N 
ATOM      3  C   UNL     1       2.424   8.865  17.968  0.00  0.00    +0.000 A 
ATOM      4  N   UNL     1       1.821   7.816  18.557  0.00  0.00    +0.000 NA
ATOM      5  C   UNL     1       2.653   6.775  18.354  0.00  0.00    +0.000 A 
ATOM      6  H   UNL     1       4.260   9.138  16.873  0.00  0.00    +0.000 HD
ENDROOT
BRANCH   5   7
ATOM      7  C   UNL     1       2.402   5.429  18.852  0.00  0.00    +0.000 A 
ATOM      8  C   UNL     1       2.020   4.378  17.987  0.00  0.00    +0.000 A 
ATOM      9  C   UNL     1       1.764   3.105  18.485  0.00  0.00    +0.000 A 
ATOM     10  C   UNL     1       1.863   2.935  19.859  0.00  0.00    +0.000 A 
ATOM     11  N   UNL     1       1.595   1.824  20.560  0.00  0.00    +0.000 NA
ATOM     12  C   UNL     1       1.833   2.218  21.837  0.00  0.00    +0.000 A 
ATOM     13  N   UNL     1       2.237   3.508  21.909  0.00  0.00    +0.000 NA
ATOM     14  N   UNL     1       2.240   3.934  20.662  0.00  0.00    +0.000 N 
ATOM     15  C   UNL     1       2.528   5.178  20.223  0.00  0.00    +0.000 A 
ENDBRANCH   5   7
BRANCH   1  21
ATOM     16  C   UNL     1       5.907   4.204  14.265  0.00  0.00    +0.000 C 
ATOM     17  C   UNL     1       5.988   4.922  15.595  0.00  0.00    +0.000 A 
ATOM     18  C   UNL     1       6.990   4.614  16.507  0.00  0.00    +0.000 A 
ATOM     19  C   UNL     1       6.956   5.201  17.736  0.00  0.00    +0.000 A 
ATOM     20  C   UNL     1       5.871   6.010  18.153  0.00  0.00    +0.000 A 
ATOM     21  C   UNL     1       4.877   6.287  17.251  0.00  0.00    +0.000 A 
ATOM     22  N   UNL     1       4.978   5.750  15.986  0.00  0.00    +0.000 NA
ENDBRANCH   1  21
BRANCH   3  23
ATOM     23  C   UNL     1       1.841  10.276  18.027  0.00  0.00    +0.000 C 
BRANCH  23  24
ATOM     24  N   UNL     1       0.768  10.407  19.009  0.00  0.00    +0.000 N 
ATOM     25  H   UNL     1       0.982  10.288  20.009  0.00  0.00    +0.000 HD
BRANCH  24  26
ATOM     26  C   UNL     1      -0.570  10.794  18.660  0.00  0.00    +0.000 A 
ATOM     27  C   UNL     1      -1.367  11.543  19.539  0.00  0.00    +0.000 A 
ATOM     28  C   UNL     1      -2.660  11.934  19.176  0.00  0.00    +0.000 A 
ATOM     29  C   UNL     1      -3.200  11.552  17.941  0.00  0.00    +0.000 A 
ATOM     30  C   UNL     1      -2.427  10.771  17.064  0.00  0.00    +0.000 A 
ATOM     31  C   UNL     1      -1.119  10.419  17.415  0.00  0.00    +0.000 A 
BRANCH  30  32
ATOM     32  C   UNL     1      -2.977  10.242  15.839  0.00  0.00    +0.000 C 
ATOM     33  N   UNL     1      -3.414   9.861  14.838  0.00  0.00    +0.000 NA
ENDBRANCH  30  32
ENDBRANCH  24  26
ENDBRANCH  23  24
ENDBRANCH   3  23
TORSDOF 6
ENDMDL
MODEL 7
REMARK VINA RESULT:      -8.6      2.675      7.876
REMARK  Name = 
REMARK  7 active torsions:
REMARK  status: ('A' for Active; 'I' for Inactive)
REMARK    1  A    between atoms: C_1  and  C_2
REMARK    2  A    between atoms: C_6  and  C_7
REMARK    3  A    between atoms: C_9  and  C_10
REMARK    4  A    between atoms: C_10  and  N_11
REMARK    5  A    between atoms: N_11  and  C_12
REMARK    6  A    between atoms: C_16  and  C_17
REMARK    7  A    between atoms: C_21  and  C_22
REMARK                            x       y       z     vdW  Elec       q    Type
REMARK                         _______ _______ _______ _____ _____    ______ ____
ROOT
ATOM      1  C   UNL     1       3.528   7.526  17.727  0.00  0.00    +0.000 A 
ATOM      2  N   UNL     1       3.299   8.850  17.521  0.00  0.00    +0.000 N 
ATOM      3  C   UNL     1       2.093   9.107  18.099  0.00  0.00    +0.000 A 
ATOM      4  N   UNL     1       1.551   7.999  18.636  0.00  0.00    +0.000 NA
ATOM      5  C   UNL     1       2.452   7.023  18.406  0.00  0.00    +0.000 A 
ATOM      6  H   UNL     1       3.923   9.543  17.048  0.00  0.00    +0.000 HD
ENDROOT
BRANCH   5   7
ATOM      7  C   UNL     1       2.282   5.645  18.847  0.00  0.00    +0.000 A 
ATOM      8  C   UNL     1       1.980   4.607  17.935  0.00  0.00    +0.000 A 
ATOM      9  C   UNL     1       1.801   3.301  18.378  0.00  0.00    +0.000 A 
ATOM     10  C   UNL     1       1.894   3.082  19.746  0.00  0.00    +0.000 A 
ATOM     11  N   UNL     1       1.690   1.928  20.398  0.00  0.00    +0.000 NA
ATOM     12  C   UNL     1       1.886   2.284  21.693  0.00  0.00    +0.000 A 
ATOM     13  N   UNL     1       2.205   3.594  21.822  0.00  0.00    +0.000 NA
ATOM     14  N   UNL     1       2.196   4.070  20.593  0.00  0.00    +0.000 N 
ATOM     15  C   UNL     1       2.408   5.346  20.208  0.00  0.00    +0.000 A 
ENDBRANCH   5   7
BRANCH   1  21
ATOM     16  C   UNL     1       7.916   5.463  18.906  0.00  0.00    +0.000 C 
ATOM     17  C   UNL     1       6.798   5.635  17.901  0.00  0.00    +0.000 A 
ATOM     18  C   UNL     1       6.958   5.221  16.585  0.00  0.00    +0.000 A 
ATOM     19  C   UNL     1       5.970   5.501  15.688  0.00  0.00    +0.000 A 
ATOM     20  C   UNL     1       4.853   6.303  16.026  0.00  0.00    +0.000 A 
ATOM     21  C   UNL     1       4.719   6.725  17.324  0.00  0.00    +0.000 A 
ATOM     22  N   UNL     1       5.689   6.357  18.231  0.00  0.00    +0.000 NA
ENDBRANCH   1  21
BRANCH   3  23
ATOM     23  C   UNL     1       1.418  10.474  18.203  0.00  0.00    +0.000 C 
BRANCH  23  24
ATOM     24  N   UNL     1       0.202  10.448  19.013  0.00  0.00    +0.000 N 
ATOM     25  H   UNL     1       0.269  10.228  20.017  0.00  0.00    +0.000 HD
BRANCH  24  26
ATOM     26  C   UNL     1      -1.088  10.811  18.499  0.00  0.00    +0.000 A 
ATOM     27  C   UNL     1      -2.034  11.470  19.300  0.00  0.00    +0.000 A 
ATOM     28  C   UNL     1      -3.279  11.839  18.779  0.00  0.00    +0.000 A 
ATOM     29  C   UNL     1      -3.621  11.525  17.458  0.00  0.00    +0.000 A 
ATOM     30  C   UNL     1      -2.698  10.833  16.654  0.00  0.00    +0.000 A 
ATOM     31  C   UNL     1      -1.439  10.503  17.167  0.00  0.00    +0.000 A 
BRANCH  30  32
ATOM     32  C   UNL     1      -3.045  10.371  15.332  0.00  0.00    +0.000 C 
ATOM     33  N   UNL     1      -3.279   9.988  14.266  0.00  0.00    +0.000 NA
ENDBRANCH  30  32
ENDBRANCH  24  26
ENDBRANCH  23  24
ENDBRANCH   3  23
TORSDOF 6
ENDMDL
MODEL 8
REMARK VINA RESULT:      -8.5      2.707      7.745
REMARK  Name = 
REMARK  7 active torsions:
REMARK  status: ('A' for Active; 'I' for Inactive)
REMARK    1  A    between atoms: C_1  and  C_2
REMARK    2  A    between atoms: C_6  and  C_7
REMARK    3  A    between atoms: C_9  and  C_10
REMARK    4  A    between atoms: C_10  and  N_11
REMARK    5  A    between atoms: N_11  and  C_12
REMARK    6  A    between atoms: C_16  and  C_17
REMARK    7  A    between atoms: C_21  and  C_22
REMARK                            x       y       z     vdW  Elec       q    Type
REMARK                         _______ _______ _______ _____ _____    ______ ____
ROOT
ATOM      1  C   UNL     1       2.162   6.720  18.535  0.00  0.00    +0.000 A 
ATOM      2  N   UNL     1       1.258   7.701  18.796  0.00  0.00    +0.000 N 
ATOM      3  C   UNL     1       1.827   8.852  18.341  0.00  0.00    +0.000 A 
ATOM      4  N   UNL     1       3.052   8.634  17.829  0.00  0.00    +0.000 NA
ATOM      5  C   UNL     1       3.248   7.306  17.947  0.00  0.00    +0.000 A 
ATOM      6  H   UNL     1       0.311   7.603  19.227  0.00  0.00    +0.000 HD
ENDROOT
BRANCH   5   7
ATOM      7  C   UNL     1       4.451   6.622  17.488  0.00  0.00    +0.000 A 
ATOM      8  C   UNL     1       4.717   6.435  16.112  0.00  0.00    +0.000 A 
ATOM      9  C   UNL     1       5.860   5.762  15.694  0.00  0.00    +0.000 A 
ATOM     10  C   UNL     1       6.691   5.257  16.685  0.00  0.00    +0.000 A 
ATOM     11  N   UNL     1       7.798   4.521  16.516  0.00  0.00    +0.000 NA
ATOM     12  C   UNL     1       8.192   4.286  17.794  0.00  0.00    +0.000 A 
ATOM     13  N   UNL     1       7.366   4.862  18.699  0.00  0.00    +0.000 NA
ATOM     14  N   UNL     1       6.434   5.455  17.981  0.00  0.00    +0.000 N 
ATOM     15  C   UNL     1       5.355   6.128  18.435  0.00  0.00    +0.000 A 
ENDBRANCH   5   7
BRANCH   1  21
ATOM     16  C   UNL     1       2.158   2.934  21.786  0.00  0.00    +0.000 C 
ATOM     17  C   UNL     1       1.931   3.422  20.372  0.00  0.00    +0.000 A 
ATOM     18  C   UNL     1       1.795   2.521  19.323  0.00  0.00    +0.000 A 
ATOM     19  C   UNL     1       1.710   3.007  18.053  0.00  0.00    +0.000 A 
ATOM     20  C   UNL     1       1.879   4.382  17.760  0.00  0.00    +0.000 A 
ATOM     21  C   UNL     1       2.035   5.258  18.803  0.00  0.00    +0.000 A 
ATOM     22  N   UNL     1       2.034   4.751  20.085  0.00  0.00    +0.000 NA
ENDBRANCH   1  21
BRANCH   3  23
ATOM     23  C   UNL     1       1.179  10.235  18.337  0.00  0.00    +0.000 C 
BRANCH  23  24
ATOM     24  N   UNL     1      -0.095  10.269  19.053  0.00  0.00    +0.000 N 
ATOM     25  H   UNL     1      -0.112  10.066  20.062  0.00  0.00    +0.000 HD
BRANCH  24  26
ATOM     26  C   UNL     1      -1.329  10.667  18.436  0.00  0.00    +0.000 A 
ATOM     27  C   UNL     1      -2.323  11.342  19.161  0.00  0.00    +0.000 A 
ATOM     28  C   UNL     1      -3.510  11.746  18.541  0.00  0.00    +0.000 A 
ATOM     29  C   UNL     1      -3.747  11.452  17.193  0.00  0.00    +0.000 A 
ATOM     30  C   UNL     1      -2.776  10.743  16.462  0.00  0.00    +0.000 A 
ATOM     31  C   UNL     1      -1.572  10.379  17.077  0.00  0.00    +0.000 A 
BRANCH  30  32
ATOM     32  C   UNL     1      -3.021  10.301  15.111  0.00  0.00    +0.000 C 
ATOM     33  N   UNL     1      -3.171   9.943  14.021  0.00  0.00    +0.000 NA
ENDBRANCH  30  32
ENDBRANCH  24  26
ENDBRANCH  23  24
ENDBRANCH   3  23
TORSDOF 6
ENDMDL
MODEL 9
REMARK VINA RESULT:      -8.5      1.958      8.419
REMARK  Name = 
REMARK  7 active torsions:
REMARK  status: ('A' for Active; 'I' for Inactive)
REMARK    1  A    between atoms: C_1  and  C_2
REMARK    2  A    between atoms: C_6  and  C_7
REMARK    3  A    between atoms: C_9  and  C_10
REMARK    4  A    between atoms: C_10  and  N_11
REMARK    5  A    between atoms: N_11  and  C_12
REMARK    6  A    between atoms: C_16  and  C_17
REMARK    7  A    between atoms: C_21  and  C_22
REMARK                            x       y       z     vdW  Elec       q    Type
REMARK                         _______ _______ _______ _____ _____    ______ ____
ROOT
ATOM      1  C   UNL     1       2.280   6.841  18.351  0.00  0.00    +0.000 A 
ATOM      2  N   UNL     1       1.459   7.910  18.531  0.00  0.00    +0.000 N 
ATOM      3  C   UNL     1       2.126   8.975  18.004  0.00  0.00    +0.000 A 
ATOM      4  N   UNL     1       3.332   8.620  17.523  0.00  0.00    +0.000 NA
ATOM      5  C   UNL     1       3.416   7.292  17.738  0.00  0.00    +0.000 A 
ATOM      6  H   UNL     1       0.504   7.922  18.955  0.00  0.00    +0.000 HD
ENDROOT
BRANCH   5   7
ATOM      7  C   UNL     1       4.560   6.480  17.343  0.00  0.00    +0.000 A 
ATOM      8  C   UNL     1       5.368   5.824  18.301  0.00  0.00    +0.000 A 
ATOM      9  C   UNL     1       6.468   5.070  17.906  0.00  0.00    +0.000 A 
ATOM     10  C   UNL     1       6.748   5.030  16.547  0.00  0.00    +0.000 A 
ATOM     11  N   UNL     1       7.789   4.431  15.951  0.00  0.00    +0.000 NA
ATOM     12  C   UNL     1       7.586   4.722  14.641  0.00  0.00    +0.000 A 
ATOM     13  N   UNL     1       6.466   5.458  14.447  0.00  0.00    +0.000 NA
ATOM     14  N   UNL     1       5.966   5.643  15.653  0.00  0.00    +0.000 N 
ATOM     15  C   UNL     1       4.872   6.360  15.985  0.00  0.00    +0.000 A 
ENDBRANCH   5   7
BRANCH   1  21
ATOM     16  C   UNL     1       2.112   3.272  21.835  0.00  0.00    +0.000 C 
ATOM     17  C   UNL     1       1.846   3.697  20.407  0.00  0.00    +0.000 A 
ATOM     18  C   UNL     1       1.559   2.754  19.428  0.00  0.00    +0.000 A 
ATOM     19  C   UNL     1       1.442   3.170  18.136  0.00  0.00    +0.000 A 
ATOM     20  C   UNL     1       1.725   4.502  17.746  0.00  0.00    +0.000 A 
ATOM     21  C   UNL     1       2.029   5.417  18.720  0.00  0.00    +0.000 A 
ATOM     22  N   UNL     1       2.059   4.990  20.030  0.00  0.00    +0.000 NA
ENDBRANCH   1  21
BRANCH   3  23
ATOM     23  C   UNL     1       1.596  10.403  17.894  0.00  0.00    +0.000 C 
BRANCH  23  24
ATOM     24  N   UNL     1       0.153  10.492  18.110  0.00  0.00    +0.000 N 
ATOM     25  H   UNL     1      -0.488  10.147  17.382  0.00  0.00    +0.000 HD
BRANCH  24  26
ATOM     26  C   UNL     1      -0.427  10.953  19.340  0.00  0.00    +0.000 A 
ATOM     27  C   UNL     1      -1.291  12.059  19.371  0.00  0.00    +0.000 A 
ATOM     28  C   UNL     1      -1.868  12.482  20.573  0.00  0.00    +0.000 A 
ATOM     29  C   UNL     1      -1.566  11.833  21.776  0.00  0.00    +0.000 A 
ATOM     30  C   UNL     1      -0.674  10.747  21.768  0.00  0.00    +0.000 A 
ATOM     31  C   UNL     1      -0.132  10.301  20.556  0.00  0.00    +0.000 A 
BRANCH  30  32
ATOM     32  C   UNL     1      -0.228  10.125  22.991  0.00  0.00    +0.000 C 
ATOM     33  N   UNL     1       0.166   9.609  23.948  0.00  0.00    +0.000 NA
ENDBRANCH  30  32
ENDBRANCH  24  26
ENDBRANCH  23  24
ENDBRANCH   3  23
TORSDOF 6
ENDMDL
