MODEL 1
REMARK VINA RESULT:      -8.0      0.000      0.000
REMARK  Name = 
REMARK  8 active torsions:
REMARK  status: ('A' for Active; 'I' for Inactive)
REMARK    1  A    between atoms: C_1  and  C_2
REMARK    2  A    between atoms: C_2  and  C_3
REMARK    3  A    between atoms: N_5  and  C_6
REMARK    4  A    between atoms: C_9  and  C_10
REMARK    5  A    between atoms: N_12  and  N_13
REMARK    6  A    between atoms: C_14  and  C_15
REMARK    7  A    between atoms: C_17  and  N_18
REMARK    8  A    between atoms: C_23  and  O_24
REMARK                            x       y       z     vdW  Elec       q    Type
REMARK                         _______ _______ _______ _____ _____    ______ ____
ROOT
ATOM      1  C   UNL     1       7.648   7.074  17.891  0.00  0.00    +0.000 C 
ATOM      2  O   UNL     1       7.981   6.589  18.967  0.00  0.00    +0.000 OA
ATOM      3  N   UNL     1       7.827   8.402  17.511  0.00  0.00    +0.000 N 
ATOM      4  H   UNL     1       7.633   8.707  16.565  0.00  0.00    +0.000 HD
ENDROOT
BRANCH   1   8
ATOM      5  C   UNL     1       5.893   4.524  14.884  0.00  0.00    +0.000 A 
ATOM      6  C   UNL     1       5.395   5.811  15.108  0.00  0.00    +0.000 A 
ATOM      7  C   UNL     1       5.944   6.641  16.088  0.00  0.00    +0.000 A 
ATOM      8  C   UNL     1       7.015   6.194  16.865  0.00  0.00    +0.000 A 
ATOM      9  C   UNL     1       7.479   4.882  16.694  0.00  0.00    +0.000 A 
ATOM     10  C   UNL     1       6.916   4.049  15.713  0.00  0.00    +0.000 A 
BRANCH   5  13
ATOM     11  C   UNL     1       5.964   3.549  12.603  0.00  0.00    +0.000 C 
ATOM     12  O   UNL     1       7.015   4.073  12.236  0.00  0.00    +0.000 OA
ATOM     13  N   UNL     1       5.393   3.687  13.860  0.00  0.00    +0.000 N 
ATOM     14  H   UNL     1       4.649   3.046  14.109  0.00  0.00    +0.000 HD
BRANCH  11  16
ATOM     15  C   UNL     1       3.911   3.342  11.186  0.00  0.00    +0.000 C 
ATOM     16  C   UNL     1       5.176   2.645  11.673  0.00  0.00    +0.000 C 
ENDBRANCH  11  16
ENDBRANCH   5  13
ENDBRANCH   1   8
BRANCH   3  17
ATOM     17  N   UNL     1       8.357   9.298  18.394  0.00  0.00    +0.000 NA
ATOM     18  C   UNL     1       8.960  10.322  17.875  0.00  0.00    +0.000 C 
BRANCH  18  19
ATOM     19  C   UNL     1       9.568  11.365  18.733  0.00  0.00    +0.000 A 
ATOM     20  C   UNL     1      10.103  12.519  18.144  0.00  0.00    +0.000 A 
ATOM     21  C   UNL     1      10.697  13.492  18.956  0.00  0.00    +0.000 A 
ATOM     22  C   UNL     1      10.746  13.329  20.349  0.00  0.00    +0.000 A 
ATOM     23  C   UNL     1      10.205  12.180  20.931  0.00  0.00    +0.000 A 
ATOM     24  C   UNL     1       9.622  11.200  20.124  0.00  0.00    +0.000 A 
BRANCH  21  25
ATOM     25  N   UNL     1      11.293  14.688  18.346  0.00  0.00    +0.000 N 
ATOM     26  O   UNL     1      12.333  15.136  18.844  0.00  0.00    +0.000 OA
ATOM     27  O   UNL     1      10.712  15.181  17.368  0.00  0.00    +0.000 OA
ENDBRANCH  21  25
BRANCH  24  28
ATOM     28  O   UNL     1       9.108  10.071  20.700  0.00  0.00    +0.000 OA
ATOM     29  H   UNL     1       9.023   9.374  20.026  0.00  0.00    +0.000 HD
ENDBRANCH  24  28
ENDBRANCH  18  19
ENDBRANCH   3  17
TORSDOF 7
ENDMDL
MODEL 2
REMARK VINA RESULT:      -8.0      6.402      7.650
REMARK  Name = 
REMARK  8 active torsions:
REMARK  status: ('A' for Active; 'I' for Inactive)
REMARK    1  A    between atoms: C_1  and  C_2
REMARK    2  A    between atoms: C_2  and  C_3
REMARK    3  A    between atoms: N_5  and  C_6
REMARK    4  A    between atoms: C_9  and  C_10
REMARK    5  A    between atoms: N_12  and  N_13
REMARK    6  A    between atoms: C_14  and  C_15
REMARK    7  A    between atoms: C_17  and  N_18
REMARK    8  A    between atoms: C_23  and  O_24
REMARK                            x       y       z     vdW  Elec       q    Type
REMARK                         _______ _______ _______ _____ _____    ______ ____
ROOT
ATOM      1  C   UNL     1       3.924   6.144  18.116  0.00  0.00    +0.000 C 
ATOM      2  O   UNL     1       4.093   5.749  19.265  0.00  0.00    +0.000 OA
ATOM      3  N   UNL     1       3.126   7.221  17.739  0.00  0.00    +0.000 N 
ATOM      4  H   UNL     1       3.123   7.563  16.785  0.00  0.00    +0.000 HD
ENDROOT
BRANCH   1   8
ATOM      5  C   UNL     1       5.925   4.178  14.837  0.00  0.00    +0.000 A 
ATOM      6  C   UNL     1       5.412   3.438  15.907  0.00  0.00    +0.000 A 
ATOM      7  C   UNL     1       4.775   4.064  16.981  0.00  0.00    +0.000 A 
ATOM      8  C   UNL     1       4.635   5.453  17.001  0.00  0.00    +0.000 A 
ATOM      9  C   UNL     1       5.205   6.208  15.966  0.00  0.00    +0.000 A 
ATOM     10  C   UNL     1       5.853   5.574  14.893  0.00  0.00    +0.000 A 
BRANCH   5  13
ATOM     11  C   UNL     1       5.868   3.299  12.517  0.00  0.00    +0.000 C 
ATOM     12  O   UNL     1       4.712   3.626  12.248  0.00  0.00    +0.000 OA
ATOM     13  N   UNL     1       6.523   3.565  13.711  0.00  0.00    +0.000 N 
ATOM     14  H   UNL     1       7.527   3.435  13.734  0.00  0.00    +0.000 HD
BRANCH  11  16
ATOM     15  C   UNL     1       6.163   1.174  11.229  0.00  0.00    +0.000 C 
ATOM     16  C   UNL     1       6.726   2.563  11.504  0.00  0.00    +0.000 C 
ENDBRANCH  11  16
ENDBRANCH   5  13
ENDBRANCH   1   8
BRANCH   3  17
ATOM     17  N   UNL     1       2.398   7.892  18.679  0.00  0.00    +0.000 NA
ATOM     18  C   UNL     1       1.531   8.745  18.228  0.00  0.00    +0.000 C 
BRANCH  18  19
ATOM     19  C   UNL     1       0.679   9.527  19.152  0.00  0.00    +0.000 A 
ATOM     20  C   UNL     1       0.919   9.467  20.532  0.00  0.00    +0.000 A 
ATOM     21  C   UNL     1       0.097  10.190  21.404  0.00  0.00    +0.000 A 
ATOM     22  C   UNL     1      -0.949  10.983  20.909  0.00  0.00    +0.000 A 
ATOM     23  C   UNL     1      -1.180  11.044  19.532  0.00  0.00    +0.000 A 
ATOM     24  C   UNL     1      -0.370  10.315  18.658  0.00  0.00    +0.000 A 
BRANCH  21  25
ATOM     25  N   UNL     1       0.317  10.106  22.854  0.00  0.00    +0.000 N 
ATOM     26  O   UNL     1      -0.568  10.539  23.602  0.00  0.00    +0.000 OA
ATOM     27  O   UNL     1       1.384   9.607  23.242  0.00  0.00    +0.000 OA
ENDBRANCH  21  25
BRANCH  24  28
ATOM     28  O   UNL     1      -0.611  10.368  17.314  0.00  0.00    +0.000 OA
ATOM     29  H   UNL     1      -1.389   9.821  17.102  0.00  0.00    +0.000 HD
ENDBRANCH  24  28
ENDBRANCH  18  19
ENDBRANCH   3  17
TORSDOF 7
ENDMDL
MODEL 3
REMARK VINA RESULT:      -7.9      1.650      2.415
REMARK  Name = 
REMARK  8 active torsions:
REMARK  status: ('A' for Active; 'I' for Inactive)
REMARK    1  A    between atoms: C_1  and  C_2
REMARK    2  A    between atoms: C_2  and  C_3
REMARK    3  A    between atoms: N_5  and  C_6
REMARK    4  A    between atoms: C_9  and  C_10
REMARK    5  A    between atoms: N_12  and  N_13
REMARK    6  A    between atoms: C_14  and  C_15
REMARK    7  A    between atoms: C_17  and  N_18
REMARK    8  A    between atoms: C_23  and  O_24
REMARK                            x       y       z     vdW  Elec       q    Type
REMARK                         _______ _______ _______ _____ _____    ______ ____
ROOT
ATOM      1  C   UNL     1       7.561   6.998  17.867  0.00  0.00    +0.000 C 
ATOM      2  O   UNL     1       7.920   6.529  18.942  0.00  0.00    +0.000 OA
ATOM      3  N   UNL     1       7.655   8.336  17.496  0.00  0.00    +0.000 N 
ATOM      4  H   UNL     1       7.447   8.634  16.550  0.00  0.00    +0.000 HD
ENDROOT
BRANCH   1   8
ATOM      5  C   UNL     1       5.994   4.355  14.837  0.00  0.00    +0.000 A 
ATOM      6  C   UNL     1       5.425   5.614  15.050  0.00  0.00    +0.000 A 
ATOM      7  C   UNL     1       5.913   6.473  16.037  0.00  0.00    +0.000 A 
ATOM      8  C   UNL     1       6.993   6.085  16.832  0.00  0.00    +0.000 A 
ATOM      9  C   UNL     1       7.528   4.799  16.671  0.00  0.00    +0.000 A 
ATOM     10  C   UNL     1       7.027   3.936  15.683  0.00  0.00    +0.000 A 
BRANCH   5  13
ATOM     11  C   UNL     1       6.109   3.435  12.535  0.00  0.00    +0.000 C 
ATOM     12  O   UNL     1       7.095   4.067  12.157  0.00  0.00    +0.000 OA
ATOM     13  N   UNL     1       5.556   3.492  13.806  0.00  0.00    +0.000 N 
ATOM     14  H   UNL     1       4.885   2.776  14.058  0.00  0.00    +0.000 HD
BRANCH  11  16
ATOM     15  C   UNL     1       6.332   1.360  11.152  0.00  0.00    +0.000 C 
ATOM     16  C   UNL     1       5.394   2.474  11.603  0.00  0.00    +0.000 C 
ENDBRANCH  11  16
ENDBRANCH   5  13
ENDBRANCH   1   8
BRANCH   3  17
ATOM     17  N   UNL     1       8.121   9.260  18.387  0.00  0.00    +0.000 NA
ATOM     18  C   UNL     1       9.166   9.933  18.018  0.00  0.00    +0.000 C 
BRANCH  18  19
ATOM     19  C   UNL     1       9.757  10.968  18.897  0.00  0.00    +0.000 A 
ATOM     20  C   UNL     1       9.185  11.217  20.153  0.00  0.00    +0.000 A 
ATOM     21  C   UNL     1       9.733  12.211  20.972  0.00  0.00    +0.000 A 
ATOM     22  C   UNL     1      10.853  12.945  20.554  0.00  0.00    +0.000 A 
ATOM     23  C   UNL     1      11.422  12.689  19.304  0.00  0.00    +0.000 A 
ATOM     24  C   UNL     1      10.872  11.706  18.478  0.00  0.00    +0.000 A 
BRANCH  21  25
ATOM     25  N   UNL     1       9.119  12.504  22.274  0.00  0.00    +0.000 N 
ATOM     26  O   UNL     1       9.274  13.637  22.747  0.00  0.00    +0.000 OA
ATOM     27  O   UNL     1       8.485  11.593  22.825  0.00  0.00    +0.000 OA
ENDBRANCH  21  25
BRANCH  24  28
ATOM     28  O   UNL     1      11.426  11.471  17.250  0.00  0.00    +0.000 OA
ATOM     29  H   UNL     1      11.656  10.528  17.173  0.00  0.00    +0.000 HD
ENDBRANCH  24  28
ENDBRANCH  18  19
ENDBRANCH   3  17
TORSDOF 7
ENDMDL
MODEL 4
REMARK VINA RESULT:      -7.8      8.358     10.616
REMARK  Name = 
REMARK  8 active torsions:
REMARK  status: ('A' for Active; 'I' for Inactive)
REMARK    1  A    between atoms: C_1  and  C_2
REMARK    2  A    between atoms: C_2  and  C_3
REMARK    3  A    between atoms: N_5  and  C_6
REMARK    4  A    between atoms: C_9  and  C_10
REMARK    5  A    between atoms: N_12  and  N_13
REMARK    6  A    between atoms: C_14  and  C_15
REMARK    7  A    between atoms: C_17  and  N_18
REMARK    8  A    between atoms: C_23  and  O_24
REMARK                            x       y       z     vdW  Elec       q    Type
REMARK                         _______ _______ _______ _____ _____    ______ ____
ROOT
ATOM      1  C   UNL     1       0.424   9.695  18.567  0.00  0.00    +0.000 C 
ATOM      2  O   UNL     1       0.737   9.573  19.747  0.00  0.00    +0.000 OA
ATOM      3  N   UNL     1       1.177   9.259  17.481  0.00  0.00    +0.000 N 
ATOM      4  H   UNL     1       0.805   9.289  16.539  0.00  0.00    +0.000 HD
ENDROOT
BRANCH   1   8
ATOM      5  C   UNL     1      -3.374  11.530  17.657  0.00  0.00    +0.000 A 
ATOM      6  C   UNL     1      -2.848  10.531  16.832  0.00  0.00    +0.000 A 
ATOM      7  C   UNL     1      -1.613   9.940  17.108  0.00  0.00    +0.000 A 
ATOM      8  C   UNL     1      -0.879  10.338  18.226  0.00  0.00    +0.000 A 
ATOM      9  C   UNL     1      -1.367  11.385  19.022  0.00  0.00    +0.000 A 
ATOM     10  C   UNL     1      -2.605  11.983  18.734  0.00  0.00    +0.000 A 
BRANCH   5  13
ATOM     11  C   UNL     1      -5.819  11.693  18.052  0.00  0.00    +0.000 C 
ATOM     12  O   UNL     1      -5.899  10.833  18.930  0.00  0.00    +0.000 OA
ATOM     13  N   UNL     1      -4.648  12.103  17.432  0.00  0.00    +0.000 N 
ATOM     14  H   UNL     1      -4.681  12.956  16.885  0.00  0.00    +0.000 HD
BRANCH  11  16
ATOM     15  C   UNL     1      -7.722  13.177  18.716  0.00  0.00    +0.000 C 
ATOM     16  C   UNL     1      -7.054  12.429  17.568  0.00  0.00    +0.000 C 
ENDBRANCH  11  16
ENDBRANCH   5  13
ENDBRANCH   1   8
BRANCH   3  17
ATOM     17  N   UNL     1       2.405   8.697  17.684  0.00  0.00    +0.000 NA
ATOM     18  C   UNL     1       2.416   7.423  17.928  0.00  0.00    +0.000 C 
BRANCH  18  19
ATOM     19  C   UNL     1       3.689   6.702  18.158  0.00  0.00    +0.000 A 
ATOM     20  C   UNL     1       4.812   7.016  17.380  0.00  0.00    +0.000 A 
ATOM     21  C   UNL     1       6.006   6.317  17.584  0.00  0.00    +0.000 A 
ATOM     22  C   UNL     1       6.092   5.319  18.567  0.00  0.00    +0.000 A 
ATOM     23  C   UNL     1       4.971   5.014  19.344  0.00  0.00    +0.000 A 
ATOM     24  C   UNL     1       3.773   5.702  19.136  0.00  0.00    +0.000 A 
BRANCH  21  25
ATOM     25  N   UNL     1       7.178   6.613  16.750  0.00  0.00    +0.000 N 
ATOM     26  O   UNL     1       7.781   7.675  16.952  0.00  0.00    +0.000 OA
ATOM     27  O   UNL     1       7.492   5.781  15.887  0.00  0.00    +0.000 OA
ENDBRANCH  21  25
BRANCH  24  28
ATOM     28  O   UNL     1       2.677   5.387  19.890  0.00  0.00    +0.000 OA
ATOM     29  H   UNL     1       2.023   6.105  19.826  0.00  0.00    +0.000 HD
ENDBRANCH  24  28
ENDBRANCH  18  19
ENDBRANCH   3  17
TORSDOF 7
ENDMDL
MODEL 5
REMARK VINA RESULT:      -7.8      8.144     11.488
REMARK  Name = 
REMARK  8 active torsions:
REMARK  status: ('A' for Active; 'I' for Inactive)
REMARK    1  A    between atoms: C_1  and  C_2
REMARK    2  A    between atoms: C_2  and  C_3
REMARK    3  A    between atoms: N_5  and  C_6
REMARK    4  A    between atoms: C_9  and  C_10
REMARK    5  A    between atoms: N_12  and  N_13
REMARK    6  A    between atoms: C_14  and  C_15
REMARK    7  A    between atoms: C_17  and  N_18
REMARK    8  A    between atoms: C_23  and  O_24
REMARK                            x       y       z     vdW  Elec       q    Type
REMARK                         _______ _______ _______ _____ _____    ______ ____
ROOT
ATOM      1  C   UNL     1       1.097   9.573  19.302  0.00  0.00    +0.000 C 
ATOM      2  O   UNL     1       1.263  10.111  18.212  0.00  0.00    +0.000 OA
ATOM      3  N   UNL     1       1.560   8.310  19.660  0.00  0.00    +0.000 N 
ATOM      4  H   UNL     1       1.488   7.975  20.613  0.00  0.00    +0.000 HD
ENDROOT
BRANCH   1   8
ATOM      5  C   UNL     1      -1.086  11.654  22.388  0.00  0.00    +0.000 A 
ATOM      6  C   UNL     1      -0.741  12.301  21.198  0.00  0.00    +0.000 A 
ATOM      7  C   UNL     1      -0.022  11.644  20.198  0.00  0.00    +0.000 A 
ATOM      8  C   UNL     1       0.364  10.313  20.371  0.00  0.00    +0.000 A 
ATOM      9  C   UNL     1       0.081   9.676  21.588  0.00  0.00    +0.000 A 
ATOM     10  C   UNL     1      -0.635  10.346  22.594  0.00  0.00    +0.000 A 
BRANCH   5  13
ATOM     11  C   UNL     1      -3.220  12.548  23.285  0.00  0.00    +0.000 C 
ATOM     12  O   UNL     1      -3.943  12.216  22.346  0.00  0.00    +0.000 OA
ATOM     13  N   UNL     1      -1.863  12.279  23.391  0.00  0.00    +0.000 N 
ATOM     14  H   UNL     1      -1.428  12.415  24.295  0.00  0.00    +0.000 HD
BRANCH  11  16
ATOM     15  C   UNL     1      -2.983  14.564  24.750  0.00  0.00    +0.000 C 
ATOM     16  C   UNL     1      -3.786  13.297  24.477  0.00  0.00    +0.000 C 
ENDBRANCH  11  16
ENDBRANCH   5  13
ENDBRANCH   1   8
BRANCH   3  17
ATOM     17  N   UNL     1       2.206   7.534  18.739  0.00  0.00    +0.000 NA
ATOM     18  C   UNL     1       2.961   6.594  19.215  0.00  0.00    +0.000 C 
BRANCH  18  19
ATOM     19  C   UNL     1       3.705   5.685  18.314  0.00  0.00    +0.000 A 
ATOM     20  C   UNL     1       5.068   5.911  18.074  0.00  0.00    +0.000 A 
ATOM     21  C   UNL     1       5.762   5.063  17.204  0.00  0.00    +0.000 A 
ATOM     22  C   UNL     1       5.113   3.984  16.587  0.00  0.00    +0.000 A 
ATOM     23  C   UNL     1       3.756   3.759  16.834  0.00  0.00    +0.000 A 
ATOM     24  C   UNL     1       3.055   4.610  17.692  0.00  0.00    +0.000 A 
BRANCH  21  25
ATOM     25  N   UNL     1       7.181   5.313  16.918  0.00  0.00    +0.000 N 
ATOM     26  O   UNL     1       7.990   4.408  17.158  0.00  0.00    +0.000 OA
ATOM     27  O   UNL     1       7.485   6.424  16.457  0.00  0.00    +0.000 OA
ENDBRANCH  21  25
BRANCH  24  28
ATOM     28  O   UNL     1       1.724   4.392  17.917  0.00  0.00    +0.000 OA
ATOM     29  H   UNL     1       1.370   3.806  17.225  0.00  0.00    +0.000 HD
ENDBRANCH  24  28
ENDBRANCH  18  19
ENDBRANCH   3  17
TORSDOF 7
ENDMDL
MODEL 6
REMARK VINA RESULT:      -7.7      6.461      7.459
REMARK  Name = 
REMARK  8 active torsions:
REMARK  status: ('A' for Active; 'I' for Inactive)
REMARK    1  A    between atoms: C_1  and  C_2
REMARK    2  A    between atoms: C_2  and  C_3
REMARK    3  A    between atoms: N_5  and  C_6
REMARK    4  A    between atoms: C_9  and  C_10
REMARK    5  A    between atoms: N_12  and  N_13
REMARK    6  A    between atoms: C_14  and  C_15
REMARK    7  A    between atoms: C_17  and  N_18
REMARK    8  A    between atoms: C_23  and  O_24
REMARK                            x       y       z     vdW  Elec       q    Type
REMARK                         _______ _______ _______ _____ _____    ______ ____
ROOT
ATOM      1  C   UNL     1       3.938   5.911  18.245  0.00  0.00    +0.000 C 
ATOM      2  O   UNL     1       4.258   5.586  19.384  0.00  0.00    +0.000 OA
ATOM      3  N   UNL     1       2.942   6.825  17.913  0.00  0.00    +0.000 N 
ATOM      4  H   UNL     1       2.809   7.132  16.957  0.00  0.00    +0.000 HD
ENDROOT
BRANCH   1   8
ATOM      5  C   UNL     1       5.999   4.219  14.852  0.00  0.00    +0.000 A 
ATOM      6  C   UNL     1       5.556   3.403  15.898  0.00  0.00    +0.000 A 
ATOM      7  C   UNL     1       4.902   3.940  17.008  0.00  0.00    +0.000 A 
ATOM      8  C   UNL     1       4.671   5.315  17.089  0.00  0.00    +0.000 A 
ATOM      9  C   UNL     1       5.169   6.148  16.078  0.00  0.00    +0.000 A 
ATOM     10  C   UNL     1       5.836   5.604  14.968  0.00  0.00    +0.000 A 
BRANCH   5  13
ATOM     11  C   UNL     1       5.935   3.331  12.535  0.00  0.00    +0.000 C 
ATOM     12  O   UNL     1       4.731   3.486  12.335  0.00  0.00    +0.000 OA
ATOM     13  N   UNL     1       6.612   3.693  13.691  0.00  0.00    +0.000 N 
ATOM     14  H   UNL     1       7.625   3.711  13.655  0.00  0.00    +0.000 HD
BRANCH  11  16
ATOM     15  C   UNL     1       6.393   1.298  11.148  0.00  0.00    +0.000 C 
ATOM     16  C   UNL     1       6.831   2.722  11.472  0.00  0.00    +0.000 C 
ENDBRANCH  11  16
ENDBRANCH   5  13
ENDBRANCH   1   8
BRANCH   3  17
ATOM     17  N   UNL     1       2.183   7.394  18.896  0.00  0.00    +0.000 NA
ATOM     18  C   UNL     1       1.851   8.634  18.715  0.00  0.00    +0.000 C 
BRANCH  18  19
ATOM     19  C   UNL     1       1.024   9.355  19.709  0.00  0.00    +0.000 A 
ATOM     20  C   UNL     1       0.174  10.385  19.284  0.00  0.00    +0.000 A 
ATOM     21  C   UNL     1      -0.590  11.079  20.229  0.00  0.00    +0.000 A 
ATOM     22  C   UNL     1      -0.523  10.743  21.589  0.00  0.00    +0.000 A 
ATOM     23  C   UNL     1       0.321   9.711  22.007  0.00  0.00    +0.000 A 
ATOM     24  C   UNL     1       1.095   9.022  21.069  0.00  0.00    +0.000 A 
BRANCH  21  25
ATOM     25  N   UNL     1      -1.456  12.184  19.798  0.00  0.00    +0.000 N 
ATOM     26  O   UNL     1      -1.010  12.980  18.963  0.00  0.00    +0.000 OA
ATOM     27  O   UNL     1      -2.586  12.256  20.305  0.00  0.00    +0.000 OA
ENDBRANCH  21  25
BRANCH  24  28
ATOM     28  O   UNL     1       1.929   8.024  21.487  0.00  0.00    +0.000 OA
ATOM     29  H   UNL     1       2.104   7.416  20.746  0.00  0.00    +0.000 HD
ENDBRANCH  24  28
ENDBRANCH  18  19
ENDBRANCH   3  17
TORSDOF 7
ENDMDL
MODEL 7
REMARK VINA RESULT:      -7.6      8.165     11.585
REMARK  Name = 
REMARK  8 active torsions:
REMARK  status: ('A' for Active; 'I' for Inactive)
REMARK    1  A    between atoms: C_1  and  C_2
REMARK    2  A    between atoms: C_2  and  C_3
REMARK    3  A    between atoms: N_5  and  C_6
REMARK    4  A    between atoms: C_9  and  C_10
REMARK    5  A    between atoms: N_12  and  N_13
REMARK    6  A    between atoms: C_14  and  C_15
REMARK    7  A    between atoms: C_17  and  N_18
REMARK    8  A    between atoms: C_23  and  O_24
REMARK                            x       y       z     vdW  Elec       q    Type
REMARK                         _______ _______ _______ _____ _____    ______ ____
ROOT
ATOM      1  C   UNL     1       1.106   9.573  19.418  0.00  0.00    +0.000 C 
ATOM      2  O   UNL     1       1.343  10.156  18.365  0.00  0.00    +0.000 OA
ATOM      3  N   UNL     1       1.531   8.288  19.745  0.00  0.00    +0.000 N 
ATOM      4  H   UNL     1       1.398   7.912  20.676  0.00  0.00    +0.000 HD
ENDROOT
BRANCH   1   8
ATOM      5  C   UNL     1      -1.120  11.670  22.462  0.00  0.00    +0.000 A 
ATOM      6  C   UNL     1      -0.515  10.440  22.739  0.00  0.00    +0.000 A 
ATOM      7  C   UNL     1       0.196   9.745  21.759  0.00  0.00    +0.000 A 
ATOM      8  C   UNL     1       0.318  10.275  20.473  0.00  0.00    +0.000 A 
ATOM      9  C   UNL     1      -0.340  11.474  20.167  0.00  0.00    +0.000 A 
ATOM     10  C   UNL     1      -1.061  12.165  21.155  0.00  0.00    +0.000 A 
BRANCH   5  13
ATOM     11  C   UNL     1      -3.162  12.658  23.468  0.00  0.00    +0.000 C 
ATOM     12  O   UNL     1      -3.977  12.190  22.672  0.00  0.00    +0.000 OA
ATOM     13  N   UNL     1      -1.795  12.421  23.453  0.00  0.00    +0.000 N 
ATOM     14  H   UNL     1      -1.264  12.686  24.274  0.00  0.00    +0.000 HD
BRANCH  11  16
ATOM     15  C   UNL     1      -2.673  14.754  24.745  0.00  0.00    +0.000 C 
ATOM     16  C   UNL     1      -3.610  13.560  24.603  0.00  0.00    +0.000 C 
ENDBRANCH  11  16
ENDBRANCH   5  13
ENDBRANCH   1   8
BRANCH   3  17
ATOM     17  N   UNL     1       2.221   7.545  18.830  0.00  0.00    +0.000 NA
ATOM     18  C   UNL     1       2.858   6.515  19.295  0.00  0.00    +0.000 C 
BRANCH  18  19
ATOM     19  C   UNL     1       3.635   5.630  18.398  0.00  0.00    +0.000 A 
ATOM     20  C   UNL     1       5.002   5.871  18.203  0.00  0.00    +0.000 A 
ATOM     21  C   UNL     1       5.729   5.046  17.337  0.00  0.00    +0.000 A 
ATOM     22  C   UNL     1       5.106   3.976  16.679  0.00  0.00    +0.000 A 
ATOM     23  C   UNL     1       3.744   3.736  16.881  0.00  0.00    +0.000 A 
ATOM     24  C   UNL     1       3.012   4.564  17.736  0.00  0.00    +0.000 A 
BRANCH  21  25
ATOM     25  N   UNL     1       7.153   5.313  17.099  0.00  0.00    +0.000 N 
ATOM     26  O   UNL     1       7.461   6.379  16.552  0.00  0.00    +0.000 OA
ATOM     27  O   UNL     1       7.965   4.446  17.456  0.00  0.00    +0.000 OA
ENDBRANCH  21  25
BRANCH  24  28
ATOM     28  O   UNL     1       1.677   4.332  17.917  0.00  0.00    +0.000 OA
ATOM     29  H   UNL     1       1.176   5.142  17.714  0.00  0.00    +0.000 HD
ENDBRANCH  24  28
ENDBRANCH  18  19
ENDBRANCH   3  17
TORSDOF 7
ENDMDL
MODEL 8
REMARK VINA RESULT:      -7.6      8.126     10.624
REMARK  Name = 
REMARK  8 active torsions:
REMARK  status: ('A' for Active; 'I' for Inactive)
REMARK    1  A    between atoms: C_1  and  C_2
REMARK    2  A    between atoms: C_2  and  C_3
REMARK    3  A    between atoms: N_5  and  C_6
REMARK    4  A    between atoms: C_9  and  C_10
REMARK    5  A    between atoms: N_12  and  N_13
REMARK    6  A    between atoms: C_14  and  C_15
REMARK    7  A    between atoms: C_17  and  N_18
REMARK    8  A    between atoms: C_23  and  O_24
REMARK                            x       y       z     vdW  Elec       q    Type
REMARK                         _______ _______ _______ _____ _____    ______ ____
ROOT
ATOM      1  C   UNL     1       0.831   9.697  18.145  0.00  0.00    +0.000 C 
ATOM      2  O   UNL     1       1.731  10.225  17.500  0.00  0.00    +0.000 OA
ATOM      3  N   UNL     1       0.973   8.590  18.977  0.00  0.00    +0.000 N 
ATOM      4  H   UNL     1       0.213   8.277  19.569  0.00  0.00    +0.000 HD
ENDROOT
BRANCH   1   8
ATOM      5  C   UNL     1      -3.128  11.393  17.871  0.00  0.00    +0.000 A 
ATOM      6  C   UNL     1      -2.223  11.844  18.837  0.00  0.00    +0.000 A 
ATOM      7  C   UNL     1      -0.944  11.293  18.945  0.00  0.00    +0.000 A 
ATOM      8  C   UNL     1      -0.543  10.275  18.078  0.00  0.00    +0.000 A 
ATOM      9  C   UNL     1      -1.465   9.770  17.150  0.00  0.00    +0.000 A 
ATOM     10  C   UNL     1      -2.753  10.322  17.052  0.00  0.00    +0.000 A 
BRANCH   5  13
ATOM     11  C   UNL     1      -5.601  11.373  18.076  0.00  0.00    +0.000 C 
ATOM     12  O   UNL     1      -5.706  10.298  18.666  0.00  0.00    +0.000 OA
ATOM     13  N   UNL     1      -4.406  11.973  17.703  0.00  0.00    +0.000 N 
ATOM     14  H   UNL     1      -4.439  12.944  17.417  0.00  0.00    +0.000 HD
BRANCH  11  16
ATOM     15  C   UNL     1      -6.430  13.538  17.132  0.00  0.00    +0.000 C 
ATOM     16  C   UNL     1      -6.829  12.184  17.709  0.00  0.00    +0.000 C 
ENDBRANCH  11  16
ENDBRANCH   5  13
ENDBRANCH   1   8
BRANCH   3  17
ATOM     17  N   UNL     1       2.181   7.960  19.074  0.00  0.00    +0.000 NA
ATOM     18  C   UNL     1       2.404   7.017  18.212  0.00  0.00    +0.000 C 
BRANCH  18  19
ATOM     19  C   UNL     1       3.681   6.268  18.214  0.00  0.00    +0.000 A 
ATOM     20  C   UNL     1       4.511   6.313  17.086  0.00  0.00    +0.000 A 
ATOM     21  C   UNL     1       5.707   5.586  17.083  0.00  0.00    +0.000 A 
ATOM     22  C   UNL     1       6.086   4.829  18.202  0.00  0.00    +0.000 A 
ATOM     23  C   UNL     1       5.258   4.792  19.326  0.00  0.00    +0.000 A 
ATOM     24  C   UNL     1       4.058   5.507  19.330  0.00  0.00    +0.000 A 
BRANCH  21  25
ATOM     25  N   UNL     1       6.566   5.598  15.892  0.00  0.00    +0.000 N 
ATOM     26  O   UNL     1       6.188   4.966  14.897  0.00  0.00    +0.000 OA
ATOM     27  O   UNL     1       7.625   6.239  15.957  0.00  0.00    +0.000 OA
ENDBRANCH  21  25
BRANCH  24  28
ATOM     28  O   UNL     1       3.246   5.454  20.428  0.00  0.00    +0.000 OA
ATOM     29  H   UNL     1       3.616   6.016  21.133  0.00  0.00    +0.000 HD
ENDBRANCH  24  28
ENDBRANCH  18  19
ENDBRANCH   3  17
TORSDOF 7
ENDMDL
MODEL 9
REMARK VINA RESULT:      -7.5      6.409      7.368
REMARK  Name = 
REMARK  8 active torsions:
REMARK  status: ('A' for Active; 'I' for Inactive)
REMARK    1  A    between atoms: C_1  and  C_2
REMARK    2  A    between atoms: C_2  and  C_3
REMARK    3  A    between atoms: N_5  and  C_6
REMARK    4  A    between atoms: C_9  and  C_10
REMARK    5  A    between atoms: N_12  and  N_13
REMARK    6  A    between atoms: C_14  and  C_15
REMARK    7  A    between atoms: C_17  and  N_18
REMARK    8  A    between atoms: C_23  and  O_24
REMARK                            x       y       z     vdW  Elec       q    Type
REMARK                         _______ _______ _______ _____ _____    ______ ____
ROOT
ATOM      1  C   UNL     1       4.108   5.993  18.199  0.00  0.00    +0.000 C 
ATOM      2  O   UNL     1       4.420   5.546  19.298  0.00  0.00    +0.000 OA
ATOM      3  N   UNL     1       3.235   7.053  17.974  0.00  0.00    +0.000 N 
ATOM      4  H   UNL     1       3.112   7.444  17.048  0.00  0.00    +0.000 HD
ENDROOT
BRANCH   1   8
ATOM      5  C   UNL     1       5.921   4.220  14.707  0.00  0.00    +0.000 A 
ATOM      6  C   UNL     1       5.718   5.601  14.783  0.00  0.00    +0.000 A 
ATOM      7  C   UNL     1       5.119   6.185  15.901  0.00  0.00    +0.000 A 
ATOM      8  C   UNL     1       4.714   5.391  16.975  0.00  0.00    +0.000 A 
ATOM      9  C   UNL     1       4.853   3.999  16.881  0.00  0.00    +0.000 A 
ATOM     10  C   UNL     1       5.447   3.416  15.750  0.00  0.00    +0.000 A 
BRANCH   5  13
ATOM     11  C   UNL     1       5.961   3.258  12.420  0.00  0.00    +0.000 C 
ATOM     12  O   UNL     1       4.789   3.491  12.126  0.00  0.00    +0.000 OA
ATOM     13  N   UNL     1       6.577   3.611  13.612  0.00  0.00    +0.000 N 
ATOM     14  H   UNL     1       7.588   3.554  13.652  0.00  0.00    +0.000 HD
BRANCH  11  16
ATOM     15  C   UNL     1       6.352   1.159  11.113  0.00  0.00    +0.000 C 
ATOM     16  C   UNL     1       6.884   2.549  11.446  0.00  0.00    +0.000 C 
ENDBRANCH  11  16
ENDBRANCH   5  13
ENDBRANCH   1   8
BRANCH   3  17
ATOM     17  N   UNL     1       2.595   7.645  19.025  0.00  0.00    +0.000 NA
ATOM     18  C   UNL     1       1.731   8.563  18.724  0.00  0.00    +0.000 C 
BRANCH  18  19
ATOM     19  C   UNL     1       0.969   9.270  19.779  0.00  0.00    +0.000 A 
ATOM     20  C   UNL     1       0.231  10.415  19.450  0.00  0.00    +0.000 A 
ATOM     21  C   UNL     1      -0.469  11.093  20.454  0.00  0.00    +0.000 A 
ATOM     22  C   UNL     1      -0.451  10.628  21.777  0.00  0.00    +0.000 A 
ATOM     23  C   UNL     1       0.281   9.482  22.099  0.00  0.00    +0.000 A 
ATOM     24  C   UNL     1       0.992   8.809  21.103  0.00  0.00    +0.000 A 
BRANCH  21  25
ATOM     25  N   UNL     1      -1.216  12.315  20.126  0.00  0.00    +0.000 N 
ATOM     26  O   UNL     1      -2.449  12.240  20.059  0.00  0.00    +0.000 OA
ATOM     27  O   UNL     1      -0.562  13.350  19.930  0.00  0.00    +0.000 OA
ENDBRANCH  21  25
BRANCH  24  28
ATOM     28  O   UNL     1       1.718   7.697  21.428  0.00  0.00    +0.000 OA
ATOM     29  H   UNL     1       2.042   7.272  20.614  0.00  0.00    +0.000 HD
ENDBRANCH  24  28
ENDBRANCH  18  19
ENDBRANCH   3  17
TORSDOF 7
ENDMDL
