MODEL 1
REMARK VINA RESULT:      -7.8      0.000      0.000
REMARK  Name = 
REMARK  5 active torsions:
REMARK  status: ('A' for Active; 'I' for Inactive)
REMARK    1  A    between atoms: C_1  and  C_2
REMARK    2  A    between atoms: N_5  and  C_6
REMARK    3  A    between atoms: C_6  and  C_7
REMARK    4  A    between atoms: N_11  and  C_12
REMARK    5  A    between atoms: C_12  and  C_13
REMARK                            x       y       z     vdW  Elec       q    Type
REMARK                         _______ _______ _______ _____ _____    ______ ____
ROOT
ATOM      1  C   UNL     1       5.865   6.638  17.577  0.00  0.00    +0.000 C 
ATOM      2  C   UNL     1       7.268   7.221  17.383  0.00  0.00    +0.000 C 
ATOM      3  C   UNL     1       8.031   6.848  18.628  0.00  0.00    +0.000 C 
ATOM      4  C   UNL     1       7.361   5.596  19.147  0.00  0.00    +0.000 C 
ATOM      5  N   UNL     1       6.026   5.506  18.536  0.00  0.00    +0.000 NA
ENDROOT
BRANCH   1   6
ATOM      6  C   UNL     1       5.130   6.518  16.214  0.00  0.00    +0.000 C 
BRANCH   6  11
ATOM      7  C   UNL     1       6.045   3.199  12.551  0.00  0.00    +0.000 C 
ATOM      8  C   UNL     1       6.202   4.151  13.676  0.00  0.00    +0.000 A 
ATOM      9  C   UNL     1       7.381   4.834  14.100  0.00  0.00    +0.000 A 
ATOM     10  N   UNL     1       7.140   5.666  15.108  0.00  0.00    +0.000 NA
ATOM     11  N   UNL     1       5.818   5.579  15.313  0.00  0.00    +0.000 N 
ATOM     12  C   UNL     1       5.232   4.595  14.548  0.00  0.00    +0.000 A 
ENDBRANCH   6  11
ENDBRANCH   1   6
BRANCH   5  13
ATOM     13  C   UNL     1       5.753   4.144  18.069  0.00  0.00    +0.000 C 
BRANCH  13  14
ATOM     14  C   UNL     1       4.570   3.490  18.772  0.00  0.00    +0.000 A 
ATOM     15  C   UNL     1       4.513   2.579  19.830  0.00  0.00    +0.000 A 
ATOM     16  N   UNL     1       3.244   2.711  20.322  0.00  0.00    +0.000 N 
ATOM     17  C   UNL     1       2.615   2.451  21.520  0.00  0.00    +0.000 A 
ATOM     18  C   UNL     1       1.458   3.125  21.624  0.00  0.00    +0.000 A 
ATOM     19  S   UNL     1       1.037   4.007  20.147  0.00  0.00    +0.000 S 
ATOM     20  C   UNL     1       2.561   3.516  19.465  0.00  0.00    +0.000 A 
ATOM     21  N   UNL     1       3.294   3.988  18.497  0.00  0.00    +0.000 NA
ENDBRANCH  13  14
ENDBRANCH   5  13
TORSDOF 4
ENDMDL
MODEL 2
REMARK VINA RESULT:      -7.7      2.440      4.107
REMARK  Name = 
REMARK  5 active torsions:
REMARK  status: ('A' for Active; 'I' for Inactive)
REMARK    1  A    between atoms: C_1  and  C_2
REMARK    2  A    between atoms: N_5  and  C_6
REMARK    3  A    between atoms: C_6  and  C_7
REMARK    4  A    between atoms: N_11  and  C_12
REMARK    5  A    between atoms: C_12  and  C_13
REMARK                            x       y       z     vdW  Elec       q    Type
REMARK                         _______ _______ _______ _____ _____    ______ ____
ROOT
ATOM      1  C   UNL     1       5.391   6.636  17.935  0.00  0.00    +0.000 C 
ATOM      2  C   UNL     1       6.583   7.346  17.287  0.00  0.00    +0.000 C 
ATOM      3  C   UNL     1       7.806   6.685  17.868  0.00  0.00    +0.000 C 
ATOM      4  C   UNL     1       7.361   5.294  18.257  0.00  0.00    +0.000 C 
ATOM      5  N   UNL     1       5.893   5.290  18.340  0.00  0.00    +0.000 NA
ENDROOT
BRANCH   1   6
ATOM      6  C   UNL     1       4.100   6.861  17.100  0.00  0.00    +0.000 C 
BRANCH   6  11
ATOM      7  C   UNL     1       1.220   8.191  21.000  0.00  0.00    +0.000 C 
ATOM      8  C   UNL     1       1.808   8.071  19.644  0.00  0.00    +0.000 A 
ATOM      9  C   UNL     1       1.682   8.969  18.542  0.00  0.00    +0.000 A 
ATOM     10  N   UNL     1       2.402   8.578  17.496  0.00  0.00    +0.000 NA
ATOM     11  N   UNL     1       3.036   7.472  17.912  0.00  0.00    +0.000 N 
ATOM     12  C   UNL     1       2.620   7.069  19.161  0.00  0.00    +0.000 A 
ENDBRANCH   6  11
ENDBRANCH   1   6
BRANCH   5  13
ATOM     13  C   UNL     1       5.333   4.104  17.687  0.00  0.00    +0.000 C 
BRANCH  13  14
ATOM     14  C   UNL     1       4.324   3.357  18.551  0.00  0.00    +0.000 A 
ATOM     15  C   UNL     1       4.471   2.682  19.766  0.00  0.00    +0.000 A 
ATOM     16  N   UNL     1       3.204   2.626  20.277  0.00  0.00    +0.000 N 
ATOM     17  C   UNL     1       2.647   2.474  21.528  0.00  0.00    +0.000 A 
ATOM     18  C   UNL     1       1.369   2.885  21.550  0.00  0.00    +0.000 A 
ATOM     19  S   UNL     1       0.763   3.346  19.950  0.00  0.00    +0.000 S 
ATOM     20  C   UNL     1       2.359   3.076  19.311  0.00  0.00    +0.000 A 
ATOM     21  N   UNL     1       2.970   3.499  18.240  0.00  0.00    +0.000 NA
ENDBRANCH  13  14
ENDBRANCH   5  13
TORSDOF 4
ENDMDL
MODEL 3
REMARK VINA RESULT:      -7.7      3.374      5.310
REMARK  Name = 
REMARK  5 active torsions:
REMARK  status: ('A' for Active; 'I' for Inactive)
REMARK    1  A    between atoms: C_1  and  C_2
REMARK    2  A    between atoms: N_5  and  C_6
REMARK    3  A    between atoms: C_6  and  C_7
REMARK    4  A    between atoms: N_11  and  C_12
REMARK    5  A    between atoms: C_12  and  C_13
REMARK                            x       y       z     vdW  Elec       q    Type
REMARK                         _______ _______ _______ _____ _____    ______ ____
ROOT
ATOM      1  C   UNL     1       3.997   3.870  18.042  0.00  0.00    +0.000 C 
ATOM      2  C   UNL     1       3.114   2.680  17.655  0.00  0.00    +0.000 C 
ATOM      3  C   UNL     1       1.818   2.887  18.394  0.00  0.00    +0.000 C 
ATOM      4  C   UNL     1       1.716   4.379  18.612  0.00  0.00    +0.000 C 
ATOM      5  N   UNL     1       3.057   4.959  18.440  0.00  0.00    +0.000 NA
ENDROOT
BRANCH   1   6
ATOM      6  C   UNL     1       5.147   4.055  17.014  0.00  0.00    +0.000 C 
BRANCH   6  11
ATOM      7  C   UNL     1       8.024   8.085  17.880  0.00  0.00    +0.000 C 
ATOM      8  C   UNL     1       7.426   6.729  17.930  0.00  0.00    +0.000 A 
ATOM      9  C   UNL     1       7.515   5.762  18.975  0.00  0.00    +0.000 A 
ATOM     10  N   UNL     1       6.797   4.675  18.711  0.00  0.00    +0.000 NA
ATOM     11  N   UNL     1       6.200   4.938  17.539  0.00  0.00    +0.000 N 
ATOM     12  C   UNL     1       6.640   6.117  16.980  0.00  0.00    +0.000 A 
ENDBRANCH   6  11
ENDBRANCH   1   6
BRANCH   5  13
ATOM     13  C   UNL     1       3.003   6.176  17.626  0.00  0.00    +0.000 C 
BRANCH  13  14
ATOM     14  C   UNL     1       2.541   7.403  18.403  0.00  0.00    +0.000 A 
ATOM     15  C   UNL     1       2.024   8.628  17.972  0.00  0.00    +0.000 A 
ATOM     16  N   UNL     1       1.375   9.125  19.068  0.00  0.00    +0.000 N 
ATOM     17  C   UNL     1       0.365  10.034  19.291  0.00  0.00    +0.000 A 
ATOM     18  C   UNL     1      -0.181   9.875  20.508  0.00  0.00    +0.000 A 
ATOM     19  S   UNL     1       0.658   8.660  21.487  0.00  0.00    +0.000 S 
ATOM     20  C   UNL     1       1.672   8.312  20.116  0.00  0.00    +0.000 A 
ATOM     21  N   UNL     1       2.395   7.279  19.787  0.00  0.00    +0.000 NA
ENDBRANCH  13  14
ENDBRANCH   5  13
TORSDOF 4
ENDMDL
MODEL 4
REMARK VINA RESULT:      -7.7      3.010      5.454
REMARK  Name = 
REMARK  5 active torsions:
REMARK  status: ('A' for Active; 'I' for Inactive)
REMARK    1  A    between atoms: C_1  and  C_2
REMARK    2  A    between atoms: N_5  and  C_6
REMARK    3  A    between atoms: C_6  and  C_7
REMARK    4  A    between atoms: N_11  and  C_12
REMARK    5  A    between atoms: C_12  and  C_13
REMARK                            x       y       z     vdW  Elec       q    Type
REMARK                         _______ _______ _______ _____ _____    ______ ____
ROOT
ATOM      1  C   UNL     1       4.823   4.154  16.718  0.00  0.00    +0.000 C 
ATOM      2  C   UNL     1       6.023   3.805  15.833  0.00  0.00    +0.000 C 
ATOM      3  C   UNL     1       6.009   4.821  14.721  0.00  0.00    +0.000 C 
ATOM      4  C   UNL     1       5.310   6.033  15.296  0.00  0.00    +0.000 C 
ATOM      5  N   UNL     1       4.555   5.604  16.483  0.00  0.00    +0.000 NA
ENDROOT
BRANCH   1   6
ATOM      6  C   UNL     1       4.981   3.522  18.128  0.00  0.00    +0.000 C 
BRANCH   6  11
ATOM      7  C   UNL     1       1.262   2.789  21.430  0.00  0.00    +0.000 C 
ATOM      8  C   UNL     1       2.047   2.905  20.178  0.00  0.00    +0.000 A 
ATOM      9  C   UNL     1       1.568   3.072  18.845  0.00  0.00    +0.000 A 
ATOM     10  N   UNL     1       2.559   3.207  17.971  0.00  0.00    +0.000 NA
ATOM     11  N   UNL     1       3.675   3.184  18.715  0.00  0.00    +0.000 N 
ATOM     12  C   UNL     1       3.417   2.892  20.036  0.00  0.00    +0.000 A 
ENDBRANCH   6  11
ENDBRANCH   1   6
BRANCH   5  13
ATOM     13  C   UNL     1       4.741   6.543  17.592  0.00  0.00    +0.000 C 
BRANCH  13  14
ATOM     14  C   UNL     1       3.431   6.992  18.230  0.00  0.00    +0.000 A 
ATOM     15  C   UNL     1       2.827   6.645  19.441  0.00  0.00    +0.000 A 
ATOM     16  N   UNL     1       1.954   7.667  19.689  0.00  0.00    +0.000 N 
ATOM     17  C   UNL     1       1.334   8.191  20.801  0.00  0.00    +0.000 A 
ATOM     18  C   UNL     1       0.886   9.437  20.574  0.00  0.00    +0.000 A 
ATOM     19  S   UNL     1       1.096   9.950  18.891  0.00  0.00    +0.000 S 
ATOM     20  C   UNL     1       1.928   8.453  18.579  0.00  0.00    +0.000 A 
ATOM     21  N   UNL     1       2.770   8.081  17.657  0.00  0.00    +0.000 NA
ENDBRANCH  13  14
ENDBRANCH   5  13
TORSDOF 4
ENDMDL
MODEL 5
REMARK VINA RESULT:      -7.6      3.145      6.494
REMARK  Name = 
REMARK  5 active torsions:
REMARK  status: ('A' for Active; 'I' for Inactive)
REMARK    1  A    between atoms: C_1  and  C_2
REMARK    2  A    between atoms: N_5  and  C_6
REMARK    3  A    between atoms: C_6  and  C_7
REMARK    4  A    between atoms: N_11  and  C_12
REMARK    5  A    between atoms: C_12  and  C_13
REMARK                            x       y       z     vdW  Elec       q    Type
REMARK                         _______ _______ _______ _____ _____    ______ ____
ROOT
ATOM      1  C   UNL     1       2.000   4.469  19.226  0.00  0.00    +0.000 C 
ATOM      2  C   UNL     1       0.852   3.763  19.954  0.00  0.00    +0.000 C 
ATOM      3  C   UNL     1       0.558   2.532  19.136  0.00  0.00    +0.000 C 
ATOM      4  C   UNL     1       1.852   2.205  18.427  0.00  0.00    +0.000 C 
ATOM      5  N   UNL     1       2.701   3.406  18.448  0.00  0.00    +0.000 NA
ENDROOT
BRANCH   1   6
ATOM      6  C   UNL     1       2.722   5.462  20.178  0.00  0.00    +0.000 C 
BRANCH   6  11
ATOM      7  C   UNL     1       1.438   9.738  17.870  0.00  0.00    +0.000 C 
ATOM      8  C   UNL     1       1.700   8.702  18.898  0.00  0.00    +0.000 A 
ATOM      9  C   UNL     1       1.192   8.627  20.229  0.00  0.00    +0.000 A 
ATOM     10  N   UNL     1       1.584   7.520  20.851  0.00  0.00    +0.000 NA
ATOM     11  N   UNL     1       2.295   6.848  19.934  0.00  0.00    +0.000 N 
ATOM     12  C   UNL     1       2.484   7.576  18.780  0.00  0.00    +0.000 A 
ENDBRANCH   6  11
ENDBRANCH   1   6
BRANCH   5  13
ATOM     13  C   UNL     1       4.081   3.067  18.803  0.00  0.00    +0.000 C 
BRANCH  13  14
ATOM     14  C   UNL     1       5.114   3.983  18.157  0.00  0.00    +0.000 A 
ATOM     15  C   UNL     1       5.019   4.864  17.077  0.00  0.00    +0.000 A 
ATOM     16  N   UNL     1       6.070   5.722  17.246  0.00  0.00    +0.000 N 
ATOM     17  C   UNL     1       6.380   6.999  16.836  0.00  0.00    +0.000 A 
ATOM     18  C   UNL     1       7.348   7.539  17.595  0.00  0.00    +0.000 A 
ATOM     19  S   UNL     1       8.016   6.399  18.776  0.00  0.00    +0.000 S 
ATOM     20  C   UNL     1       6.829   5.233  18.263  0.00  0.00    +0.000 A 
ATOM     21  N   UNL     1       6.324   4.173  18.828  0.00  0.00    +0.000 NA
ENDBRANCH  13  14
ENDBRANCH   5  13
TORSDOF 4
ENDMDL
MODEL 6
REMARK VINA RESULT:      -7.6      3.241      5.421
REMARK  Name = 
REMARK  5 active torsions:
REMARK  status: ('A' for Active; 'I' for Inactive)
REMARK    1  A    between atoms: C_1  and  C_2
REMARK    2  A    between atoms: N_5  and  C_6
REMARK    3  A    between atoms: C_6  and  C_7
REMARK    4  A    between atoms: N_11  and  C_12
REMARK    5  A    between atoms: C_12  and  C_13
REMARK                            x       y       z     vdW  Elec       q    Type
REMARK                         _______ _______ _______ _____ _____    ______ ____
ROOT
ATOM      1  C   UNL     1       4.497   3.997  19.529  0.00  0.00    +0.000 C 
ATOM      2  C   UNL     1       4.266   2.517  19.849  0.00  0.00    +0.000 C 
ATOM      3  C   UNL     1       3.206   2.501  20.920  0.00  0.00    +0.000 C 
ATOM      4  C   UNL     1       2.420   3.777  20.724  0.00  0.00    +0.000 C 
ATOM      5  N   UNL     1       3.236   4.696  19.916  0.00  0.00    +0.000 NA
ENDROOT
BRANCH   1   6
ATOM      6  C   UNL     1       5.183   4.156  18.144  0.00  0.00    +0.000 C 
BRANCH   6  11
ATOM      7  C   UNL     1       8.008   8.284  17.645  0.00  0.00    +0.000 C 
ATOM      8  C   UNL     1       7.519   6.933  18.011  0.00  0.00    +0.000 A 
ATOM      9  C   UNL     1       7.990   6.072  19.047  0.00  0.00    +0.000 A 
ATOM     10  N   UNL     1       7.273   4.957  19.134  0.00  0.00    +0.000 NA
ATOM     11  N   UNL     1       6.312   5.097  18.209  0.00  0.00    +0.000 N 
ATOM     12  C   UNL     1       6.491   6.222  17.434  0.00  0.00    +0.000 A 
ENDBRANCH   6  11
ENDBRANCH   1   6
BRANCH   5  13
ATOM     13  C   UNL     1       2.432   5.330  18.867  0.00  0.00    +0.000 C 
BRANCH  13  14
ATOM     14  C   UNL     1       2.351   6.845  19.000  0.00  0.00    +0.000 A 
ATOM     15  C   UNL     1       2.531   7.865  18.062  0.00  0.00    +0.000 A 
ATOM     16  N   UNL     1       1.895   8.945  18.611  0.00  0.00    +0.000 N 
ATOM     17  C   UNL     1       1.346  10.116  18.137  0.00  0.00    +0.000 A 
ATOM     18  C   UNL     1       0.492  10.653  19.023  0.00  0.00    +0.000 A 
ATOM     19  S   UNL     1       0.456   9.779  20.564  0.00  0.00    +0.000 S 
ATOM     20  C   UNL     1       1.541   8.603  19.878  0.00  0.00    +0.000 A 
ATOM     21  N   UNL     1       1.817   7.367  20.181  0.00  0.00    +0.000 NA
ENDBRANCH  13  14
ENDBRANCH   5  13
TORSDOF 4
ENDMDL
MODEL 7
REMARK VINA RESULT:      -7.6      1.590      1.900
REMARK  Name = 
REMARK  5 active torsions:
REMARK  status: ('A' for Active; 'I' for Inactive)
REMARK    1  A    between atoms: C_1  and  C_2
REMARK    2  A    between atoms: N_5  and  C_6
REMARK    3  A    between atoms: C_6  and  C_7
REMARK    4  A    between atoms: N_11  and  C_12
REMARK    5  A    between atoms: C_12  and  C_13
REMARK                            x       y       z     vdW  Elec       q    Type
REMARK                         _______ _______ _______ _____ _____    ______ ____
ROOT
ATOM      1  C   UNL     1       5.421   5.797  15.924  0.00  0.00    +0.000 C 
ATOM      2  C   UNL     1       5.386   7.110  16.710  0.00  0.00    +0.000 C 
ATOM      3  C   UNL     1       4.088   7.084  17.475  0.00  0.00    +0.000 C 
ATOM      4  C   UNL     1       3.762   5.619  17.657  0.00  0.00    +0.000 C 
ATOM      5  N   UNL     1       4.545   4.851  16.677  0.00  0.00    +0.000 NA
ENDROOT
BRANCH   1   6
ATOM      6  C   UNL     1       6.873   5.463  15.482  0.00  0.00    +0.000 C 
BRANCH   6  11
ATOM      7  C   UNL     1       5.583   2.579  11.572  0.00  0.00    +0.000 C 
ATOM      8  C   UNL     1       6.289   3.531  12.464  0.00  0.00    +0.000 A 
ATOM      9  C   UNL     1       7.243   4.532  12.112  0.00  0.00    +0.000 A 
ATOM     10  N   UNL     1       7.621   5.252  13.163  0.00  0.00    +0.000 NA
ATOM     11  N   UNL     1       6.894   4.775  14.182  0.00  0.00    +0.000 N 
ATOM     12  C   UNL     1       6.161   3.663  13.829  0.00  0.00    +0.000 A 
ENDBRANCH   6  11
ENDBRANCH   1   6
BRANCH   5  13
ATOM     13  C   UNL     1       5.152   3.670  17.297  0.00  0.00    +0.000 C 
BRANCH  13  14
ATOM     14  C   UNL     1       4.268   3.022  18.355  0.00  0.00    +0.000 A 
ATOM     15  C   UNL     1       4.431   2.884  19.736  0.00  0.00    +0.000 A 
ATOM     16  N   UNL     1       3.167   2.657  20.205  0.00  0.00    +0.000 N 
ATOM     17  C   UNL     1       2.517   2.802  21.411  0.00  0.00    +0.000 A 
ATOM     18  C   UNL     1       1.184   2.818  21.253  0.00  0.00    +0.000 A 
ATOM     19  S   UNL     1       0.682   2.500  19.584  0.00  0.00    +0.000 S 
ATOM     20  C   UNL     1       2.360   2.484  19.123  0.00  0.00    +0.000 A 
ATOM     21  N   UNL     1       2.970   2.659  17.985  0.00  0.00    +0.000 NA
ENDBRANCH  13  14
ENDBRANCH   5  13
TORSDOF 4
ENDMDL
MODEL 8
REMARK VINA RESULT:      -7.4      1.086      1.176
REMARK  Name = 
REMARK  5 active torsions:
REMARK  status: ('A' for Active; 'I' for Inactive)
REMARK    1  A    between atoms: C_1  and  C_2
REMARK    2  A    between atoms: N_5  and  C_6
REMARK    3  A    between atoms: C_6  and  C_7
REMARK    4  A    between atoms: N_11  and  C_12
REMARK    5  A    between atoms: C_12  and  C_13
REMARK                            x       y       z     vdW  Elec       q    Type
REMARK                         _______ _______ _______ _____ _____    ______ ____
ROOT
ATOM      1  C   UNL     1       6.028   6.794  17.617  0.00  0.00    +0.000 C 
ATOM      2  C   UNL     1       7.455   7.281  17.350  0.00  0.00    +0.000 C 
ATOM      3  C   UNL     1       8.234   6.938  18.593  0.00  0.00    +0.000 C 
ATOM      4  C   UNL     1       7.510   5.761  19.206  0.00  0.00    +0.000 C 
ATOM      5  N   UNL     1       6.154   5.713  18.639  0.00  0.00    +0.000 NA
ENDROOT
BRANCH   1   6
ATOM      6  C   UNL     1       5.245   6.637  16.285  0.00  0.00    +0.000 C 
BRANCH   6  11
ATOM      7  C   UNL     1       6.009   3.240  12.659  0.00  0.00    +0.000 C 
ATOM      8  C   UNL     1       6.208   4.196  13.774  0.00  0.00    +0.000 A 
ATOM      9  C   UNL     1       7.417   4.827  14.194  0.00  0.00    +0.000 A 
ATOM     10  N   UNL     1       7.214   5.680  15.192  0.00  0.00    +0.000 NA
ATOM     11  N   UNL     1       5.889   5.658  15.396  0.00  0.00    +0.000 N 
ATOM     12  C   UNL     1       5.259   4.694  14.640  0.00  0.00    +0.000 A 
ENDBRANCH   6  11
ENDBRANCH   1   6
BRANCH   5  13
ATOM     13  C   UNL     1       5.789   4.344  18.264  0.00  0.00    +0.000 C 
BRANCH  13  14
ATOM     14  C   UNL     1       4.286   4.095  18.275  0.00  0.00    +0.000 A 
ATOM     15  C   UNL     1       3.507   3.119  17.647  0.00  0.00    +0.000 A 
ATOM     16  N   UNL     1       2.344   3.100  18.365  0.00  0.00    +0.000 N 
ATOM     17  C   UNL     1       1.328   2.196  18.579  0.00  0.00    +0.000 A 
ATOM     18  C   UNL     1       0.618   2.503  19.677  0.00  0.00    +0.000 A 
ATOM     19  S   UNL     1       1.111   4.039  20.410  0.00  0.00    +0.000 S 
ATOM     20  C   UNL     1       2.390   4.145  19.234  0.00  0.00    +0.000 A 
ATOM     21  N   UNL     1       3.516   4.799  19.204  0.00  0.00    +0.000 NA
ENDBRANCH  13  14
ENDBRANCH   5  13
TORSDOF 4
ENDMDL
MODEL 9
REMARK VINA RESULT:      -7.4      1.584      1.916
REMARK  Name = 
REMARK  5 active torsions:
REMARK  status: ('A' for Active; 'I' for Inactive)
REMARK    1  A    between atoms: C_1  and  C_2
REMARK    2  A    between atoms: N_5  and  C_6
REMARK    3  A    between atoms: C_6  and  C_7
REMARK    4  A    between atoms: N_11  and  C_12
REMARK    5  A    between atoms: C_12  and  C_13
REMARK                            x       y       z     vdW  Elec       q    Type
REMARK                         _______ _______ _______ _____ _____    ______ ____
ROOT
ATOM      1  C   UNL     1       6.493   5.791  16.280  0.00  0.00    +0.000 C 
ATOM      2  C   UNL     1       7.159   4.493  16.745  0.00  0.00    +0.000 C 
ATOM      3  C   UNL     1       7.618   4.762  18.154  0.00  0.00    +0.000 C 
ATOM      4  C   UNL     1       6.694   5.838  18.677  0.00  0.00    +0.000 C 
ATOM      5  N   UNL     1       6.051   6.487  17.524  0.00  0.00    +0.000 NA
ENDROOT
BRANCH   1   6
ATOM      6  C   UNL     1       5.565   5.524  15.063  0.00  0.00    +0.000 C 
BRANCH   6  11
ATOM      7  C   UNL     1       6.608   2.370  11.290  0.00  0.00    +0.000 C 
ATOM      8  C   UNL     1       6.697   3.439  12.315  0.00  0.00    +0.000 A 
ATOM      9  C   UNL     1       7.588   4.552  12.357  0.00  0.00    +0.000 A 
ATOM     10  N   UNL     1       7.342   5.349  13.391  0.00  0.00    +0.000 NA
ATOM     11  N   UNL     1       6.274   4.806  13.993  0.00  0.00    +0.000 N 
ATOM     12  C   UNL     1       5.924   3.593  13.444  0.00  0.00    +0.000 A 
ENDBRANCH   6  11
ENDBRANCH   1   6
BRANCH   5  13
ATOM     13  C   UNL     1       4.616   6.671  17.756  0.00  0.00    +0.000 C 
BRANCH  13  14
ATOM     14  C   UNL     1       3.986   5.544  18.566  0.00  0.00    +0.000 A 
ATOM     15  C   UNL     1       3.459   5.521  19.860  0.00  0.00    +0.000 A 
ATOM     16  N   UNL     1       2.644   4.423  19.874  0.00  0.00    +0.000 N 
ATOM     17  C   UNL     1       1.563   4.002  20.615  0.00  0.00    +0.000 A 
ATOM     18  C   UNL     1       0.873   3.041  19.979  0.00  0.00    +0.000 A 
ATOM     19  S   UNL     1       1.647   2.517  18.474  0.00  0.00    +0.000 S 
ATOM     20  C   UNL     1       2.850   3.754  18.708  0.00  0.00    +0.000 A 
ATOM     21  N   UNL     1       3.669   4.360  17.896  0.00  0.00    +0.000 NA
ENDBRANCH  13  14
ENDBRANCH   5  13
TORSDOF 4
ENDMDL
