MODEL 1
REMARK VINA RESULT:      -7.1      0.000      0.000
REMARK  Name = 
REMARK  7 active torsions:
REMARK  status: ('A' for Active; 'I' for Inactive)
REMARK    1  A    between atoms: C_1  and  C_2
REMARK    2  A    between atoms: N_4  and  C_5
REMARK    3  A    between atoms: C_8  and  S_9
REMARK    4  A    between atoms: S_9  and  N_12
REMARK    5  A    between atoms: N_12  and  C_13
REMARK    6  A    between atoms: N_12  and  S_14
REMARK    7  A    between atoms: S_14  and  C_17
REMARK                            x       y       z     vdW  Elec       q    Type
REMARK                         _______ _______ _______ _____ _____    ______ ____
ROOT
ATOM      1  S   UNL     1       1.531   3.527  19.438  0.00  0.00    +0.000 S 
ATOM      2  O   UNL     1       0.335   3.341  20.228  0.00  0.00    +0.000 OA
ATOM      3  O   UNL     1       1.603   2.920  18.120  0.00  0.00    +0.000 OA
ENDROOT
BRANCH   1   7
ATOM      4  C   UNL     1       2.155   8.023  18.808  0.00  0.00    +0.000 A 
ATOM      5  C   UNL     1       2.141   7.140  17.726  0.00  0.00    +0.000 A 
ATOM      6  C   UNL     1       1.954   5.771  17.919  0.00  0.00    +0.000 A 
ATOM      7  C   UNL     1       1.787   5.275  19.212  0.00  0.00    +0.000 A 
ATOM      8  C   UNL     1       1.776   6.143  20.306  0.00  0.00    +0.000 A 
ATOM      9  C   UNL     1       1.988   7.513  20.104  0.00  0.00    +0.000 A 
BRANCH   4  13
ATOM     10  C   UNL     1       1.847  11.760  18.409  0.00  0.00    +0.000 C 
ATOM     11  C   UNL     1       1.339  10.376  18.709  0.00  0.00    +0.000 C 
ATOM     12  O   UNL     1       0.152  10.191  18.958  0.00  0.00    +0.000 OA
ATOM     13  N   UNL     1       2.336   9.415  18.661  0.00  0.00    +0.000 N 
ATOM     14  H   UNL     1       3.291   9.744  18.598  0.00  0.00    +0.000 HD
ENDBRANCH   4  13
ENDBRANCH   1   7
BRANCH   1  15
ATOM     15  N   UNL     1       2.885   3.036  20.309  0.00  0.00    +0.000 NA
ATOM     16  C   UNL     1       2.611   2.465  21.641  0.00  0.00    +0.000 C 
BRANCH  15  17
ATOM     17  S   UNL     1       4.116   2.274  19.453  0.00  0.00    +0.000 S 
ATOM     18  O   UNL     1       5.139   1.880  20.402  0.00  0.00    +0.000 OA
ATOM     19  O   UNL     1       3.609   1.319  18.495  0.00  0.00    +0.000 OA
BRANCH  17  20
ATOM     20  C   UNL     1       4.795   3.593  18.461  0.00  0.00    +0.000 A 
ATOM     21  C   UNL     1       4.667   3.556  17.068  0.00  0.00    +0.000 A 
ATOM     22  C   UNL     1       5.090   4.650  16.313  0.00  0.00    +0.000 A 
ATOM     23  C   UNL     1       5.631   5.762  16.954  0.00  0.00    +0.000 A 
ATOM     24  F   UNL     1       6.020   6.815  16.224  0.00  0.00    +0.000 F 
ATOM     25  C   UNL     1       5.756   5.805  18.339  0.00  0.00    +0.000 A 
ATOM     26  C   UNL     1       5.332   4.716  19.105  0.00  0.00    +0.000 A 
ENDBRANCH  17  20
ENDBRANCH  15  17
ENDBRANCH   1  15
TORSDOF 5
ENDMDL
MODEL 2
REMARK VINA RESULT:      -6.9      0.313      1.021
REMARK  Name = 
REMARK  7 active torsions:
REMARK  status: ('A' for Active; 'I' for Inactive)
REMARK    1  A    between atoms: C_1  and  C_2
REMARK    2  A    between atoms: N_4  and  C_5
REMARK    3  A    between atoms: C_8  and  S_9
REMARK    4  A    between atoms: S_9  and  N_12
REMARK    5  A    between atoms: N_12  and  C_13
REMARK    6  A    between atoms: N_12  and  S_14
REMARK    7  A    between atoms: S_14  and  C_17
REMARK                            x       y       z     vdW  Elec       q    Type
REMARK                         _______ _______ _______ _____ _____    ______ ____
ROOT
ATOM      1  S   UNL     1       1.568   3.698  19.380  0.00  0.00    +0.000 S 
ATOM      2  O   UNL     1       0.383   3.507  20.186  0.00  0.00    +0.000 OA
ATOM      3  O   UNL     1       1.615   3.113  18.052  0.00  0.00    +0.000 OA
ENDROOT
BRANCH   1   7
ATOM      4  C   UNL     1       2.222   8.198  18.812  0.00  0.00    +0.000 A 
ATOM      5  C   UNL     1       2.306   7.317  17.732  0.00  0.00    +0.000 A 
ATOM      6  C   UNL     1       2.110   5.947  17.906  0.00  0.00    +0.000 A 
ATOM      7  C   UNL     1       1.834   5.448  19.180  0.00  0.00    +0.000 A 
ATOM      8  C   UNL     1       1.725   6.314  20.270  0.00  0.00    +0.000 A 
ATOM      9  C   UNL     1       1.947   7.684  20.088  0.00  0.00    +0.000 A 
BRANCH   4  13
ATOM     10  C   UNL     1       1.942  11.927  18.325  0.00  0.00    +0.000 C 
ATOM     11  C   UNL     1       1.406  10.538  18.548  0.00  0.00    +0.000 C 
ATOM     12  O   UNL     1       0.197  10.338  18.591  0.00  0.00    +0.000 OA
ATOM     13  N   UNL     1       2.409   9.591  18.683  0.00  0.00    +0.000 N 
ATOM     14  H   UNL     1       3.357   9.933  18.782  0.00  0.00    +0.000 HD
ENDBRANCH   4  13
ENDBRANCH   1   7
BRANCH   1  15
ATOM     15  N   UNL     1       2.932   3.182  20.221  0.00  0.00    +0.000 NA
ATOM     16  C   UNL     1       2.672   2.568  21.537  0.00  0.00    +0.000 C 
BRANCH  15  17
ATOM     17  S   UNL     1       4.155   2.450  19.329  0.00  0.00    +0.000 S 
ATOM     18  O   UNL     1       5.162   1.978  20.260  0.00  0.00    +0.000 OA
ATOM     19  O   UNL     1       3.638   1.566  18.310  0.00  0.00    +0.000 OA
BRANCH  17  20
ATOM     20  C   UNL     1       4.868   3.815  18.426  0.00  0.00    +0.000 A 
ATOM     21  C   UNL     1       5.533   4.836  19.115  0.00  0.00    +0.000 A 
ATOM     22  C   UNL     1       6.192   5.831  18.393  0.00  0.00    +0.000 A 
ATOM     23  C   UNL     1       6.181   5.795  17.001  0.00  0.00    +0.000 A 
ATOM     24  F   UNL     1       6.829   6.744  16.315  0.00  0.00    +0.000 F 
ATOM     25  C   UNL     1       5.523   4.780  16.312  0.00  0.00    +0.000 A 
ATOM     26  C   UNL     1       4.864   3.777  17.026  0.00  0.00    +0.000 A 
ENDBRANCH  17  20
ENDBRANCH  15  17
ENDBRANCH   1  15
TORSDOF 5
ENDMDL
MODEL 3
REMARK VINA RESULT:      -6.9      3.236      5.965
REMARK  Name = 
REMARK  7 active torsions:
REMARK  status: ('A' for Active; 'I' for Inactive)
REMARK    1  A    between atoms: C_1  and  C_2
REMARK    2  A    between atoms: N_4  and  C_5
REMARK    3  A    between atoms: C_8  and  S_9
REMARK    4  A    between atoms: S_9  and  N_12
REMARK    5  A    between atoms: N_12  and  C_13
REMARK    6  A    between atoms: N_12  and  S_14
REMARK    7  A    between atoms: S_14  and  C_17
REMARK                            x       y       z     vdW  Elec       q    Type
REMARK                         _______ _______ _______ _____ _____    ______ ____
ROOT
ATOM      1  S   UNL     1       3.752   2.943  18.379  0.00  0.00    +0.000 S 
ATOM      2  O   UNL     1       3.075   1.884  17.666  0.00  0.00    +0.000 OA
ATOM      3  O   UNL     1       4.495   2.615  19.583  0.00  0.00    +0.000 OA
ENDROOT
BRANCH   1   7
ATOM      4  C   UNL     1       6.751   4.922  15.535  0.00  0.00    +0.000 A 
ATOM      5  C   UNL     1       7.093   4.640  16.859  0.00  0.00    +0.000 A 
ATOM      6  C   UNL     1       6.179   4.041  17.726  0.00  0.00    +0.000 A 
ATOM      7  C   UNL     1       4.900   3.725  17.265  0.00  0.00    +0.000 A 
ATOM      8  C   UNL     1       4.544   3.978  15.938  0.00  0.00    +0.000 A 
ATOM      9  C   UNL     1       5.462   4.602  15.084  0.00  0.00    +0.000 A 
BRANCH   4  13
ATOM     10  C   UNL     1       8.881   5.964  12.603  0.00  0.00    +0.000 C 
ATOM     11  C   UNL     1       7.760   5.218  13.275  0.00  0.00    +0.000 C 
ATOM     12  O   UNL     1       7.064   4.435  12.637  0.00  0.00    +0.000 OA
ATOM     13  N   UNL     1       7.644   5.522  14.622  0.00  0.00    +0.000 N 
ATOM     14  H   UNL     1       8.189   6.303  14.968  0.00  0.00    +0.000 HD
ENDBRANCH   4  13
ENDBRANCH   1   7
BRANCH   1  15
ATOM     15  N   UNL     1       2.667   4.172  18.760  0.00  0.00    +0.000 NA
ATOM     16  C   UNL     1       1.243   3.789  18.747  0.00  0.00    +0.000 C 
BRANCH  15  17
ATOM     17  S   UNL     1       3.103   5.229  19.994  0.00  0.00    +0.000 S 
ATOM     18  O   UNL     1       2.426   4.804  21.203  0.00  0.00    +0.000 OA
ATOM     19  O   UNL     1       4.523   5.495  20.013  0.00  0.00    +0.000 OA
BRANCH  17  20
ATOM     20  C   UNL     1       2.360   6.770  19.486  0.00  0.00    +0.000 A 
ATOM     21  C   UNL     1       1.686   7.562  20.422  0.00  0.00    +0.000 A 
ATOM     22  C   UNL     1       1.217   8.820  20.043  0.00  0.00    +0.000 A 
ATOM     23  C   UNL     1       1.427   9.271  18.743  0.00  0.00    +0.000 A 
ATOM     24  F   UNL     1       0.989  10.486  18.391  0.00  0.00    +0.000 F 
ATOM     25  C   UNL     1       2.100   8.488  17.809  0.00  0.00    +0.000 A 
ATOM     26  C   UNL     1       2.577   7.229  18.180  0.00  0.00    +0.000 A 
ENDBRANCH  17  20
ENDBRANCH  15  17
ENDBRANCH   1  15
TORSDOF 5
ENDMDL
MODEL 4
REMARK VINA RESULT:      -6.8      3.105      5.994
REMARK  Name = 
REMARK  7 active torsions:
REMARK  status: ('A' for Active; 'I' for Inactive)
REMARK    1  A    between atoms: C_1  and  C_2
REMARK    2  A    between atoms: N_4  and  C_5
REMARK    3  A    between atoms: C_8  and  S_9
REMARK    4  A    between atoms: S_9  and  N_12
REMARK    5  A    between atoms: N_12  and  C_13
REMARK    6  A    between atoms: N_12  and  S_14
REMARK    7  A    between atoms: S_14  and  C_17
REMARK                            x       y       z     vdW  Elec       q    Type
REMARK                         _______ _______ _______ _____ _____    ______ ____
ROOT
ATOM      1  S   UNL     1       4.713   4.035  19.317  0.00  0.00    +0.000 S 
ATOM      2  O   UNL     1       5.260   2.788  19.801  0.00  0.00    +0.000 OA
ATOM      3  O   UNL     1       4.910   5.240  20.104  0.00  0.00    +0.000 OA
ENDROOT
BRANCH   1   7
ATOM      4  C   UNL     1       6.508   4.827  15.176  0.00  0.00    +0.000 A 
ATOM      5  C   UNL     1       7.327   4.625  16.289  0.00  0.00    +0.000 A 
ATOM      6  C   UNL     1       6.781   4.388  17.550  0.00  0.00    +0.000 A 
ATOM      7  C   UNL     1       5.394   4.359  17.704  0.00  0.00    +0.000 A 
ATOM      8  C   UNL     1       4.557   4.538  16.600  0.00  0.00    +0.000 A 
ATOM      9  C   UNL     1       5.116   4.799  15.343  0.00  0.00    +0.000 A 
BRANCH   4  13
ATOM     10  C   UNL     1       7.580   4.745  11.561  0.00  0.00    +0.000 C 
ATOM     11  C   UNL     1       6.814   4.269  12.766  0.00  0.00    +0.000 C 
ATOM     12  O   UNL     1       6.105   3.271  12.696  0.00  0.00    +0.000 OA
ATOM     13  N   UNL     1       7.017   5.066  13.882  0.00  0.00    +0.000 N 
ATOM     14  H   UNL     1       7.504   5.943  13.740  0.00  0.00    +0.000 HD
ENDBRANCH   4  13
ENDBRANCH   1   7
BRANCH   1  15
ATOM     15  N   UNL     1       3.063   3.872  19.026  0.00  0.00    +0.000 NA
ATOM     16  C   UNL     1       2.638   2.563  18.495  0.00  0.00    +0.000 C 
BRANCH  15  17
ATOM     17  S   UNL     1       2.012   4.553  20.149  0.00  0.00    +0.000 S 
ATOM     18  O   UNL     1       0.685   4.031  19.889  0.00  0.00    +0.000 OA
ATOM     19  O   UNL     1       2.551   4.531  21.489  0.00  0.00    +0.000 OA
BRANCH  17  20
ATOM     20  C   UNL     1       1.999   6.279  19.694  0.00  0.00    +0.000 A 
ATOM     21  C   UNL     1       2.308   6.657  18.382  0.00  0.00    +0.000 A 
ATOM     22  C   UNL     1       2.174   7.993  18.006  0.00  0.00    +0.000 A 
ATOM     23  C   UNL     1       1.735   8.931  18.937  0.00  0.00    +0.000 A 
ATOM     24  F   UNL     1       1.593  10.209  18.564  0.00  0.00    +0.000 F 
ATOM     25  C   UNL     1       1.424   8.559  20.242  0.00  0.00    +0.000 A 
ATOM     26  C   UNL     1       1.551   7.223  20.627  0.00  0.00    +0.000 A 
ENDBRANCH  17  20
ENDBRANCH  15  17
ENDBRANCH   1  15
TORSDOF 5
ENDMDL
MODEL 5
REMARK VINA RESULT:      -6.6      2.831      5.691
REMARK  Name = 
REMARK  7 active torsions:
REMARK  status: ('A' for Active; 'I' for Inactive)
REMARK    1  A    between atoms: C_1  and  C_2
REMARK    2  A    between atoms: N_4  and  C_5
REMARK    3  A    between atoms: C_8  and  S_9
REMARK    4  A    between atoms: S_9  and  N_12
REMARK    5  A    between atoms: N_12  and  C_13
REMARK    6  A    between atoms: N_12  and  S_14
REMARK    7  A    between atoms: S_14  and  C_17
REMARK                            x       y       z     vdW  Elec       q    Type
REMARK                         _______ _______ _______ _____ _____    ______ ____
ROOT
ATOM      1  S   UNL     1       4.565   3.432  19.595  0.00  0.00    +0.000 S 
ATOM      2  O   UNL     1       5.195   2.199  20.008  0.00  0.00    +0.000 OA
ATOM      3  O   UNL     1       4.540   4.552  20.520  0.00  0.00    +0.000 OA
ENDROOT
BRANCH   1   7
ATOM      4  C   UNL     1       6.591   4.930  15.768  0.00  0.00    +0.000 A 
ATOM      5  C   UNL     1       5.336   4.320  15.725  0.00  0.00    +0.000 A 
ATOM      6  C   UNL     1       4.721   3.860  16.890  0.00  0.00    +0.000 A 
ATOM      7  C   UNL     1       5.373   4.006  18.115  0.00  0.00    +0.000 A 
ATOM      8  C   UNL     1       6.619   4.633  18.183  0.00  0.00    +0.000 A 
ATOM      9  C   UNL     1       7.238   5.069  17.005  0.00  0.00    +0.000 A 
BRANCH   4  13
ATOM     10  C   UNL     1       8.116   5.538  12.373  0.00  0.00    +0.000 C 
ATOM     11  C   UNL     1       7.224   4.833  13.359  0.00  0.00    +0.000 C 
ATOM     12  O   UNL     1       6.574   3.851  13.017  0.00  0.00    +0.000 OA
ATOM     13  N   UNL     1       7.248   5.414  14.617  0.00  0.00    +0.000 N 
ATOM     14  H   UNL     1       7.711   6.311  14.702  0.00  0.00    +0.000 HD
ENDBRANCH   4  13
ENDBRANCH   1   7
BRANCH   1  15
ATOM     15  N   UNL     1       2.984   3.138  19.096  0.00  0.00    +0.000 NA
ATOM     16  C   UNL     1       2.713   1.769  18.618  0.00  0.00    +0.000 C 
BRANCH  15  17
ATOM     17  S   UNL     1       1.749   3.824  20.008  0.00  0.00    +0.000 S 
ATOM     18  O   UNL     1       0.491   3.289  19.526  0.00  0.00    +0.000 OA
ATOM     19  O   UNL     1       2.044   3.823  21.422  0.00  0.00    +0.000 OA
BRANCH  17  20
ATOM     20  C   UNL     1       1.807   5.544  19.534  0.00  0.00    +0.000 A 
ATOM     21  C   UNL     1       1.640   6.541  20.503  0.00  0.00    +0.000 A 
ATOM     22  C   UNL     1       1.810   7.878  20.144  0.00  0.00    +0.000 A 
ATOM     23  C   UNL     1       2.145   8.203  18.833  0.00  0.00    +0.000 A 
ATOM     24  F   UNL     1       2.323   9.487  18.499  0.00  0.00    +0.000 F 
ATOM     25  C   UNL     1       2.316   7.215  17.867  0.00  0.00    +0.000 A 
ATOM     26  C   UNL     1       2.151   5.873  18.217  0.00  0.00    +0.000 A 
ENDBRANCH  17  20
ENDBRANCH  15  17
ENDBRANCH   1  15
TORSDOF 5
ENDMDL
MODEL 6
REMARK VINA RESULT:      -6.6      2.797      3.503
REMARK  Name = 
REMARK  7 active torsions:
REMARK  status: ('A' for Active; 'I' for Inactive)
REMARK    1  A    between atoms: C_1  and  C_2
REMARK    2  A    between atoms: N_4  and  C_5
REMARK    3  A    between atoms: C_8  and  S_9
REMARK    4  A    between atoms: S_9  and  N_12
REMARK    5  A    between atoms: N_12  and  C_13
REMARK    6  A    between atoms: N_12  and  S_14
REMARK    7  A    between atoms: S_14  and  C_17
REMARK                            x       y       z     vdW  Elec       q    Type
REMARK                         _______ _______ _______ _____ _____    ______ ____
ROOT
ATOM      1  S   UNL     1       3.726   6.409  18.233  0.00  0.00    +0.000 S 
ATOM      2  O   UNL     1       3.724   6.849  16.856  0.00  0.00    +0.000 OA
ATOM      3  O   UNL     1       4.967   6.466  18.986  0.00  0.00    +0.000 OA
ENDROOT
BRANCH   1   7
ATOM      4  C   UNL     1       0.690   8.893  20.601  0.00  0.00    +0.000 A 
ATOM      5  C   UNL     1       1.206   7.703  21.119  0.00  0.00    +0.000 A 
ATOM      6  C   UNL     1       2.128   6.945  20.396  0.00  0.00    +0.000 A 
ATOM      7  C   UNL     1       2.534   7.379  19.134  0.00  0.00    +0.000 A 
ATOM      8  C   UNL     1       2.047   8.576  18.606  0.00  0.00    +0.000 A 
ATOM      9  C   UNL     1       1.104   9.317  19.330  0.00  0.00    +0.000 A 
BRANCH   4  13
ATOM     10  C   UNL     1      -1.378  10.818  23.099  0.00  0.00    +0.000 C 
ATOM     11  C   UNL     1      -0.174  10.042  22.638  0.00  0.00    +0.000 C 
ATOM     12  O   UNL     1       0.732   9.777  23.421  0.00  0.00    +0.000 OA
ATOM     13  N   UNL     1      -0.240   9.694  21.298  0.00  0.00    +0.000 N 
ATOM     14  H   UNL     1      -0.975  10.119  20.746  0.00  0.00    +0.000 HD
ENDBRANCH   4  13
ENDBRANCH   1   7
BRANCH   1  15
ATOM     15  N   UNL     1       3.126   4.840  18.343  0.00  0.00    +0.000 NA
ATOM     16  C   UNL     1       1.817   4.614  17.702  0.00  0.00    +0.000 C 
BRANCH  15  17
ATOM     17  S   UNL     1       4.227   3.581  18.163  0.00  0.00    +0.000 S 
ATOM     18  O   UNL     1       5.068   3.554  19.345  0.00  0.00    +0.000 OA
ATOM     19  O   UNL     1       3.601   2.367  17.691  0.00  0.00    +0.000 OA
BRANCH  17  20
ATOM     20  C   UNL     1       5.245   4.126  16.802  0.00  0.00    +0.000 A 
ATOM     21  C   UNL     1       6.567   4.520  17.034  0.00  0.00    +0.000 A 
ATOM     22  C   UNL     1       7.390   4.826  15.950  0.00  0.00    +0.000 A 
ATOM     23  C   UNL     1       6.887   4.732  14.655  0.00  0.00    +0.000 A 
ATOM     24  F   UNL     1       7.687   5.010  13.618  0.00  0.00    +0.000 F 
ATOM     25  C   UNL     1       5.573   4.337  14.420  0.00  0.00    +0.000 A 
ATOM     26  C   UNL     1       4.742   4.026  15.498  0.00  0.00    +0.000 A 
ENDBRANCH  17  20
ENDBRANCH  15  17
ENDBRANCH   1  15
TORSDOF 5
ENDMDL
MODEL 7
REMARK VINA RESULT:      -6.5      2.683      3.168
REMARK  Name = 
REMARK  7 active torsions:
REMARK  status: ('A' for Active; 'I' for Inactive)
REMARK    1  A    between atoms: C_1  and  C_2
REMARK    2  A    between atoms: N_4  and  C_5
REMARK    3  A    between atoms: C_8  and  S_9
REMARK    4  A    between atoms: S_9  and  N_12
REMARK    5  A    between atoms: N_12  and  C_13
REMARK    6  A    between atoms: N_12  and  S_14
REMARK    7  A    between atoms: S_14  and  C_17
REMARK                            x       y       z     vdW  Elec       q    Type
REMARK                         _______ _______ _______ _____ _____    ______ ____
ROOT
ATOM      1  S   UNL     1       3.744   6.197  18.419  0.00  0.00    +0.000 S 
ATOM      2  O   UNL     1       3.858   6.676  17.060  0.00  0.00    +0.000 OA
ATOM      3  O   UNL     1       4.939   6.136  19.244  0.00  0.00    +0.000 OA
ENDROOT
BRANCH   1   7
ATOM      4  C   UNL     1       0.714   8.863  20.587  0.00  0.00    +0.000 A 
ATOM      5  C   UNL     1       1.234   9.230  19.344  0.00  0.00    +0.000 A 
ATOM      6  C   UNL     1       2.160   8.420  18.686  0.00  0.00    +0.000 A 
ATOM      7  C   UNL     1       2.577   7.229  19.282  0.00  0.00    +0.000 A 
ATOM      8  C   UNL     1       2.053   6.834  20.514  0.00  0.00    +0.000 A 
ATOM      9  C   UNL     1       1.143   7.666  21.177  0.00  0.00    +0.000 A 
BRANCH   4  13
ATOM     10  C   UNL     1      -1.370  10.765  23.091  0.00  0.00    +0.000 C 
ATOM     11  C   UNL     1      -0.153  10.013  22.622  0.00  0.00    +0.000 C 
ATOM     12  O   UNL     1       0.770   9.781  23.396  0.00  0.00    +0.000 OA
ATOM     13  N   UNL     1      -0.227   9.649  21.287  0.00  0.00    +0.000 N 
ATOM     14  H   UNL     1      -0.980  10.049  20.740  0.00  0.00    +0.000 HD
ENDBRANCH   4  13
ENDBRANCH   1   7
BRANCH   1  15
ATOM     15  N   UNL     1       3.023   4.676  18.441  0.00  0.00    +0.000 NA
ATOM     16  C   UNL     1       1.758   4.563  17.689  0.00  0.00    +0.000 C 
BRANCH  15  17
ATOM     17  S   UNL     1       4.038   3.341  18.321  0.00  0.00    +0.000 S 
ATOM     18  O   UNL     1       4.810   3.259  19.546  0.00  0.00    +0.000 OA
ATOM     19  O   UNL     1       3.353   2.174  17.816  0.00  0.00    +0.000 OA
BRANCH  17  20
ATOM     20  C   UNL     1       5.164   3.806  17.017  0.00  0.00    +0.000 A 
ATOM     21  C   UNL     1       4.715   3.860  15.693  0.00  0.00    +0.000 A 
ATOM     22  C   UNL     1       5.568   4.343  14.700  0.00  0.00    +0.000 A 
ATOM     23  C   UNL     1       6.850   4.766  15.039  0.00  0.00    +0.000 A 
ATOM     24  F   UNL     1       7.657   5.244  14.084  0.00  0.00    +0.000 F 
ATOM     25  C   UNL     1       7.300   4.717  16.356  0.00  0.00    +0.000 A 
ATOM     26  C   UNL     1       6.453   4.239  17.357  0.00  0.00    +0.000 A 
ENDBRANCH  17  20
ENDBRANCH  15  17
ENDBRANCH   1  15
TORSDOF 5
ENDMDL
MODEL 8
REMARK VINA RESULT:      -6.5      2.293      2.780
REMARK  Name = 
REMARK  7 active torsions:
REMARK  status: ('A' for Active; 'I' for Inactive)
REMARK    1  A    between atoms: C_1  and  C_2
REMARK    2  A    between atoms: N_4  and  C_5
REMARK    3  A    between atoms: C_8  and  S_9
REMARK    4  A    between atoms: S_9  and  N_12
REMARK    5  A    between atoms: N_12  and  C_13
REMARK    6  A    between atoms: N_12  and  S_14
REMARK    7  A    between atoms: S_14  and  C_17
REMARK                            x       y       z     vdW  Elec       q    Type
REMARK                         _______ _______ _______ _____ _____    ______ ____
ROOT
ATOM      1  S   UNL     1       2.626   5.442  19.089  0.00  0.00    +0.000 S 
ATOM      2  O   UNL     1       2.981   5.072  20.440  0.00  0.00    +0.000 OA
ATOM      3  O   UNL     1       1.603   4.677  18.397  0.00  0.00    +0.000 OA
ENDROOT
BRANCH   1   7
ATOM      4  C   UNL     1       1.196   9.795  19.054  0.00  0.00    +0.000 A 
ATOM      5  C   UNL     1       1.567   9.150  17.872  0.00  0.00    +0.000 A 
ATOM      6  C   UNL     1       2.006   7.826  17.883  0.00  0.00    +0.000 A 
ATOM      7  C   UNL     1       2.083   7.138  19.095  0.00  0.00    +0.000 A 
ATOM      8  C   UNL     1       1.696   7.757  20.286  0.00  0.00    +0.000 A 
ATOM      9  C   UNL     1       1.280   9.094  20.266  0.00  0.00    +0.000 A 
BRANCH   4  13
ATOM     10  C   UNL     1      -0.686  13.057  18.864  0.00  0.00    +0.000 C 
ATOM     11  C   UNL     1      -0.554  11.558  18.853  0.00  0.00    +0.000 C 
ATOM     12  O   UNL     1      -1.534  10.850  18.645  0.00  0.00    +0.000 OA
ATOM     13  N   UNL     1       0.742  11.131  19.090  0.00  0.00    +0.000 N 
ATOM     14  H   UNL     1       1.409  11.828  19.399  0.00  0.00    +0.000 HD
ENDBRANCH   4  13
ENDBRANCH   1   7
BRANCH   1  15
ATOM     15  N   UNL     1       3.999   5.468  18.114  0.00  0.00    +0.000 NA
ATOM     16  C   UNL     1       4.806   6.701  18.186  0.00  0.00    +0.000 C 
BRANCH  15  17
ATOM     17  S   UNL     1       4.890   4.046  18.001  0.00  0.00    +0.000 S 
ATOM     18  O   UNL     1       5.907   4.076  19.035  0.00  0.00    +0.000 OA
ATOM     19  O   UNL     1       4.050   2.882  17.844  0.00  0.00    +0.000 OA
BRANCH  17  20
ATOM     20  C   UNL     1       5.726   4.218  16.433  0.00  0.00    +0.000 A 
ATOM     21  C   UNL     1       5.032   3.974  15.242  0.00  0.00    +0.000 A 
ATOM     22  C   UNL     1       5.658   4.230  14.022  0.00  0.00    +0.000 A 
ATOM     23  C   UNL     1       6.958   4.727  14.005  0.00  0.00    +0.000 A 
ATOM     24  F   UNL     1       7.546   4.987  12.830  0.00  0.00    +0.000 F 
ATOM     25  C   UNL     1       7.650   4.974  15.187  0.00  0.00    +0.000 A 
ATOM     26  C   UNL     1       7.032   4.724  16.414  0.00  0.00    +0.000 A 
ENDBRANCH  17  20
ENDBRANCH  15  17
ENDBRANCH   1  15
TORSDOF 5
ENDMDL
MODEL 9
REMARK VINA RESULT:      -6.5      2.501      3.113
REMARK  Name = 
REMARK  7 active torsions:
REMARK  status: ('A' for Active; 'I' for Inactive)
REMARK    1  A    between atoms: C_1  and  C_2
REMARK    2  A    between atoms: N_4  and  C_5
REMARK    3  A    between atoms: C_8  and  S_9
REMARK    4  A    between atoms: S_9  and  N_12
REMARK    5  A    between atoms: N_12  and  C_13
REMARK    6  A    between atoms: N_12  and  S_14
REMARK    7  A    between atoms: S_14  and  C_17
REMARK                            x       y       z     vdW  Elec       q    Type
REMARK                         _______ _______ _______ _____ _____    ______ ____
ROOT
ATOM      1  S   UNL     1       3.847   6.241  18.380  0.00  0.00    +0.000 S 
ATOM      2  O   UNL     1       4.097   6.656  17.019  0.00  0.00    +0.000 OA
ATOM      3  O   UNL     1       4.955   6.214  19.320  0.00  0.00    +0.000 OA
ENDROOT
BRANCH   1   7
ATOM      4  C   UNL     1       0.693   9.005  20.226  0.00  0.00    +0.000 A 
ATOM      5  C   UNL     1       1.199   7.916  20.937  0.00  0.00    +0.000 A 
ATOM      6  C   UNL     1       2.157   7.072  20.374  0.00  0.00    +0.000 A 
ATOM      7  C   UNL     1       2.610   7.316  19.077  0.00  0.00    +0.000 A 
ATOM      8  C   UNL     1       2.133   8.413  18.356  0.00  0.00    +0.000 A 
ATOM      9  C   UNL     1       1.154   9.239  18.922  0.00  0.00    +0.000 A 
BRANCH   4  13
ATOM     10  C   UNL     1      -1.260  11.722  21.965  0.00  0.00    +0.000 C 
ATOM     11  C   UNL     1      -0.013  11.067  21.436  0.00  0.00    +0.000 C 
ATOM     12  O   UNL     1       1.085  11.578  21.626  0.00  0.00    +0.000 OA
ATOM     13  N   UNL     1      -0.272   9.887  20.756  0.00  0.00    +0.000 N 
ATOM     14  H   UNL     1      -1.241   9.678  20.548  0.00  0.00    +0.000 HD
ENDBRANCH   4  13
ENDBRANCH   1   7
BRANCH   1  15
ATOM     15  N   UNL     1       3.114   4.726  18.402  0.00  0.00    +0.000 NA
ATOM     16  C   UNL     1       1.847   4.622  17.653  0.00  0.00    +0.000 C 
BRANCH  15  17
ATOM     17  S   UNL     1       4.119   3.382  18.279  0.00  0.00    +0.000 S 
ATOM     18  O   UNL     1       4.907   3.304  19.493  0.00  0.00    +0.000 OA
ATOM     19  O   UNL     1       3.420   2.216  17.792  0.00  0.00    +0.000 OA
BRANCH  17  20
ATOM     20  C   UNL     1       5.230   3.830  16.956  0.00  0.00    +0.000 A 
ATOM     21  C   UNL     1       4.765   3.868  15.636  0.00  0.00    +0.000 A 
ATOM     22  C   UNL     1       5.607   4.338  14.628  0.00  0.00    +0.000 A 
ATOM     23  C   UNL     1       6.893   4.764  14.947  0.00  0.00    +0.000 A 
ATOM     24  F   UNL     1       7.690   5.230  13.976  0.00  0.00    +0.000 F 
ATOM     25  C   UNL     1       7.358   4.732  16.258  0.00  0.00    +0.000 A 
ATOM     26  C   UNL     1       6.523   4.267  17.276  0.00  0.00    +0.000 A 
ENDBRANCH  17  20
ENDBRANCH  15  17
ENDBRANCH   1  15
TORSDOF 5
ENDMDL
