MODEL 1
REMARK VINA RESULT:      -8.2      0.000      0.000
REMARK  Name = 
REMARK  8 active torsions:
REMARK  status: ('A' for Active; 'I' for Inactive)
REMARK    1  A    between atoms: C_1  and  N_2
REMARK    2  A    between atoms: N_2  and  C_3
REMARK    3  A    between atoms: N_2  and  C_4
REMARK    4  A    between atoms: C_7  and  C_8
REMARK    5  A    between atoms: C_11  and  C_12
REMARK    6  A    between atoms: N_14  and  C_15
REMARK    7  A    between atoms: N_18  and  C_19
REMARK    8  A    between atoms: C_19  and  C_20
REMARK                            x       y       z     vdW  Elec       q    Type
REMARK                         _______ _______ _______ _____ _____    ______ ____
ROOT
ATOM      1  C   UNL     1       2.874   7.906  18.152  0.00  0.00    +0.000 C 
ATOM      2  O   UNL     1       2.876   8.424  17.034  0.00  0.00    +0.000 OA
ATOM      3  N   UNL     1       3.745   6.876  18.478  0.00  0.00    +0.000 N 
ATOM      4  H   UNL     1       3.741   6.585  19.448  0.00  0.00    +0.000 HD
ENDROOT
BRANCH   3   5
ATOM      5  C   UNL     1       4.835   6.428  17.615  0.00  0.00    +0.000 C 
ATOM      6  C   UNL     1       4.330   5.598  16.434  0.00  0.00    +0.000 C 
ATOM      7  C   UNL     1       3.861   4.194  16.835  0.00  0.00    +0.000 C 
ATOM      8  N   UNL     1       4.775   3.447  17.722  0.00  0.00    +0.000 NA
ATOM      9  C   UNL     1       5.281   4.267  18.834  0.00  0.00    +0.000 C 
ATOM     10  C   UNL     1       5.864   5.606  18.381  0.00  0.00    +0.000 C 
BRANCH   8  11
ATOM     11  C   UNL     1       4.054   2.247  18.230  0.00  0.00    +0.000 C 
BRANCH  11  12
ATOM     12  C   UNL     1       3.038   2.514  19.316  0.00  0.00    +0.000 A 
ATOM     13  C   UNL     1       1.735   2.930  19.011  0.00  0.00    +0.000 A 
ATOM     14  C   UNL     1       0.801   3.137  20.031  0.00  0.00    +0.000 A 
ATOM     15  C   UNL     1       1.158   2.931  21.365  0.00  0.00    +0.000 A 
ATOM     16  C   UNL     1       2.454   2.539  21.682  0.00  0.00    +0.000 A 
ATOM     17  C   UNL     1       3.383   2.343  20.663  0.00  0.00    +0.000 A 
ATOM     18  F   UNL     1       4.629   1.976  20.996  0.00  0.00    +0.000 F 
ENDBRANCH  11  12
ENDBRANCH   8  11
ENDBRANCH   3   5
BRANCH   1  22
ATOM     19  C   UNL     1       0.367   9.572  20.660  0.00  0.00    +0.000 A 
ATOM     20  C   UNL     1       0.820   8.407  21.255  0.00  0.00    +0.000 A 
ATOM     21  C   UNL     1       1.733   7.681  20.427  0.00  0.00    +0.000 A 
ATOM     22  C   UNL     1       1.970   8.311  19.220  0.00  0.00    +0.000 A 
ATOM     23  S   UNL     1       1.006   9.716  19.075  0.00  0.00    +0.000 S 
BRANCH  19  27
ATOM     24  C   UNL     1      -2.333  12.608  22.215  0.00  0.00    +0.000 A 
ATOM     25  C   UNL     1      -2.076  12.478  20.844  0.00  0.00    +0.000 A 
ATOM     26  C   UNL     1      -1.195  11.511  20.339  0.00  0.00    +0.000 A 
ATOM     27  C   UNL     1      -0.548  10.602  21.183  0.00  0.00    +0.000 A 
ATOM     28  C   UNL     1      -0.800  10.710  22.553  0.00  0.00    +0.000 A 
ATOM     29  C   UNL     1      -1.675  11.691  23.050  0.00  0.00    +0.000 A 
BRANCH  24  31
ATOM     30  C   UNL     1      -4.634  13.287  22.818  0.00  0.00    +0.000 C 
ATOM     31  N   UNL     1      -3.206  13.571  22.720  0.00  0.00    +0.000 N 
ATOM     32  C   UNL     1      -2.809  14.974  22.679  0.00  0.00    +0.000 C 
ENDBRANCH  24  31
ENDBRANCH  19  27
ENDBRANCH   1  22
TORSDOF 6
ENDMDL
MODEL 2
REMARK VINA RESULT:      -8.0      0.867      1.614
REMARK  Name = 
REMARK  8 active torsions:
REMARK  status: ('A' for Active; 'I' for Inactive)
REMARK    1  A    between atoms: C_1  and  N_2
REMARK    2  A    between atoms: N_2  and  C_3
REMARK    3  A    between atoms: N_2  and  C_4
REMARK    4  A    between atoms: C_7  and  C_8
REMARK    5  A    between atoms: C_11  and  C_12
REMARK    6  A    between atoms: N_14  and  C_15
REMARK    7  A    between atoms: N_18  and  C_19
REMARK    8  A    between atoms: C_19  and  C_20
REMARK                            x       y       z     vdW  Elec       q    Type
REMARK                         _______ _______ _______ _____ _____    ______ ____
ROOT
ATOM      1  C   UNL     1       2.913   7.854  18.173  0.00  0.00    +0.000 C 
ATOM      2  O   UNL     1       2.960   8.411  17.075  0.00  0.00    +0.000 OA
ATOM      3  N   UNL     1       3.742   6.785  18.482  0.00  0.00    +0.000 N 
ATOM      4  H   UNL     1       3.703   6.460  19.440  0.00  0.00    +0.000 HD
ENDROOT
BRANCH   3   5
ATOM      5  C   UNL     1       4.836   6.330  17.630  0.00  0.00    +0.000 C 
ATOM      6  C   UNL     1       4.336   5.515  16.436  0.00  0.00    +0.000 C 
ATOM      7  C   UNL     1       3.846   4.114  16.821  0.00  0.00    +0.000 C 
ATOM      8  N   UNL     1       4.740   3.349  17.713  0.00  0.00    +0.000 NA
ATOM      9  C   UNL     1       5.242   4.156  18.838  0.00  0.00    +0.000 C 
ATOM     10  C   UNL     1       5.846   5.490  18.402  0.00  0.00    +0.000 C 
BRANCH   8  11
ATOM     11  C   UNL     1       3.998   2.155  18.203  0.00  0.00    +0.000 C 
BRANCH  11  12
ATOM     12  C   UNL     1       3.034   2.412  19.337  0.00  0.00    +0.000 A 
ATOM     13  C   UNL     1       3.450   2.366  20.674  0.00  0.00    +0.000 A 
ATOM     14  C   UNL     1       2.547   2.642  21.706  0.00  0.00    +0.000 A 
ATOM     15  C   UNL     1       1.221   2.965  21.414  0.00  0.00    +0.000 A 
ATOM     16  C   UNL     1       0.790   2.993  20.091  0.00  0.00    +0.000 A 
ATOM     17  C   UNL     1       1.692   2.708  19.069  0.00  0.00    +0.000 A 
ATOM     18  F   UNL     1       1.248   2.731  17.803  0.00  0.00    +0.000 F 
ENDBRANCH  11  12
ENDBRANCH   8  11
ENDBRANCH   3   5
BRANCH   1  22
ATOM     19  C   UNL     1       0.390   9.510  20.671  0.00  0.00    +0.000 A 
ATOM     20  C   UNL     1       0.813   8.326  21.250  0.00  0.00    +0.000 A 
ATOM     21  C   UNL     1       1.729   7.602  20.423  0.00  0.00    +0.000 A 
ATOM     22  C   UNL     1       1.997   8.253  19.233  0.00  0.00    +0.000 A 
ATOM     23  S   UNL     1       1.059   9.676  19.100  0.00  0.00    +0.000 S 
BRANCH  19  27
ATOM     24  C   UNL     1      -2.288  12.569  22.222  0.00  0.00    +0.000 A 
ATOM     25  C   UNL     1      -1.649  11.647  23.062  0.00  0.00    +0.000 A 
ATOM     26  C   UNL     1      -0.798  10.651  22.567  0.00  0.00    +0.000 A 
ATOM     27  C   UNL     1      -0.517  10.545  21.200  0.00  0.00    +0.000 A 
ATOM     28  C   UNL     1      -1.137  11.462  20.347  0.00  0.00    +0.000 A 
ATOM     29  C   UNL     1      -2.000  12.449  20.853  0.00  0.00    +0.000 A 
BRANCH  24  31
ATOM     30  C   UNL     1      -2.600  14.665  23.498  0.00  0.00    +0.000 C 
ATOM     31  N   UNL     1      -3.138  13.558  22.713  0.00  0.00    +0.000 N 
ATOM     32  C   UNL     1      -4.555  13.253  22.881  0.00  0.00    +0.000 C 
ENDBRANCH  24  31
ENDBRANCH  19  27
ENDBRANCH   1  22
TORSDOF 6
ENDMDL
MODEL 3
REMARK VINA RESULT:      -8.0      0.863      1.220
REMARK  Name = 
REMARK  8 active torsions:
REMARK  status: ('A' for Active; 'I' for Inactive)
REMARK    1  A    between atoms: C_1  and  N_2
REMARK    2  A    between atoms: N_2  and  C_3
REMARK    3  A    between atoms: N_2  and  C_4
REMARK    4  A    between atoms: C_7  and  C_8
REMARK    5  A    between atoms: C_11  and  C_12
REMARK    6  A    between atoms: N_14  and  C_15
REMARK    7  A    between atoms: N_18  and  C_19
REMARK    8  A    between atoms: C_19  and  C_20
REMARK                            x       y       z     vdW  Elec       q    Type
REMARK                         _______ _______ _______ _____ _____    ______ ____
ROOT
ATOM      1  C   UNL     1       2.886   7.845  18.188  0.00  0.00    +0.000 C 
ATOM      2  O   UNL     1       2.882   8.323  17.052  0.00  0.00    +0.000 OA
ATOM      3  N   UNL     1       3.774   6.844  18.552  0.00  0.00    +0.000 N 
ATOM      4  H   UNL     1       3.772   6.587  19.532  0.00  0.00    +0.000 HD
ENDROOT
BRANCH   3   5
ATOM      5  C   UNL     1       4.873   6.384  17.709  0.00  0.00    +0.000 C 
ATOM      6  C   UNL     1       4.377   5.600  16.493  0.00  0.00    +0.000 C 
ATOM      7  C   UNL     1       3.854   4.202  16.843  0.00  0.00    +0.000 C 
ATOM      8  N   UNL     1       4.720   3.404  17.734  0.00  0.00    +0.000 NA
ATOM      9  C   UNL     1       5.219   4.180  18.882  0.00  0.00    +0.000 C 
ATOM     10  C   UNL     1       5.855   5.511  18.481  0.00  0.00    +0.000 C 
BRANCH   8  11
ATOM     11  C   UNL     1       3.948   2.215  18.191  0.00  0.00    +0.000 C 
BRANCH  11  12
ATOM     12  C   UNL     1       2.994   2.462  19.335  0.00  0.00    +0.000 A 
ATOM     13  C   UNL     1       3.423   2.408  20.668  0.00  0.00    +0.000 A 
ATOM     14  C   UNL     1       2.529   2.674  21.711  0.00  0.00    +0.000 A 
ATOM     15  C   UNL     1       1.200   2.999  21.434  0.00  0.00    +0.000 A 
ATOM     16  C   UNL     1       0.757   3.036  20.115  0.00  0.00    +0.000 A 
ATOM     17  C   UNL     1       1.649   2.760  19.082  0.00  0.00    +0.000 A 
ATOM     18  F   UNL     1       1.194   2.792  17.820  0.00  0.00    +0.000 F 
ENDBRANCH  11  12
ENDBRANCH   8  11
ENDBRANCH   3   5
BRANCH   1  22
ATOM     19  C   UNL     1       0.366   9.569  20.644  0.00  0.00    +0.000 A 
ATOM     20  C   UNL     1       0.793   8.402  21.256  0.00  0.00    +0.000 A 
ATOM     21  C   UNL     1       1.708   7.656  20.448  0.00  0.00    +0.000 A 
ATOM     22  C   UNL     1       1.972   8.273  19.239  0.00  0.00    +0.000 A 
ATOM     23  S   UNL     1       1.031   9.690  19.068  0.00  0.00    +0.000 S 
BRANCH  19  27
ATOM     24  C   UNL     1      -2.313  12.656  22.133  0.00  0.00    +0.000 A 
ATOM     25  C   UNL     1      -2.060  12.492  20.765  0.00  0.00    +0.000 A 
ATOM     26  C   UNL     1      -1.186  11.509  20.281  0.00  0.00    +0.000 A 
ATOM     27  C   UNL     1      -0.541  10.617  21.145  0.00  0.00    +0.000 A 
ATOM     28  C   UNL     1      -0.790  10.758  22.512  0.00  0.00    +0.000 A 
ATOM     29  C   UNL     1      -1.657  11.756  22.988  0.00  0.00    +0.000 A 
BRANCH  24  31
ATOM     30  C   UNL     1      -4.521  13.274  23.061  0.00  0.00    +0.000 C 
ATOM     31  N   UNL     1      -3.179  13.636  22.617  0.00  0.00    +0.000 N 
ATOM     32  C   UNL     1      -2.960  15.026  22.230  0.00  0.00    +0.000 C 
ENDBRANCH  24  31
ENDBRANCH  19  27
ENDBRANCH   1  22
TORSDOF 6
ENDMDL
MODEL 4
REMARK VINA RESULT:      -8.0      3.022      4.779
REMARK  Name = 
REMARK  8 active torsions:
REMARK  status: ('A' for Active; 'I' for Inactive)
REMARK    1  A    between atoms: C_1  and  N_2
REMARK    2  A    between atoms: N_2  and  C_3
REMARK    3  A    between atoms: N_2  and  C_4
REMARK    4  A    between atoms: C_7  and  C_8
REMARK    5  A    between atoms: C_11  and  C_12
REMARK    6  A    between atoms: N_14  and  C_15
REMARK    7  A    between atoms: N_18  and  C_19
REMARK    8  A    between atoms: C_19  and  C_20
REMARK                            x       y       z     vdW  Elec       q    Type
REMARK                         _______ _______ _______ _____ _____    ______ ____
ROOT
ATOM      1  C   UNL     1       2.789   5.873  19.722  0.00  0.00    +0.000 C 
ATOM      2  O   UNL     1       2.184   4.859  20.075  0.00  0.00    +0.000 OA
ATOM      3  N   UNL     1       4.127   5.830  19.358  0.00  0.00    +0.000 N 
ATOM      4  H   UNL     1       4.511   6.691  18.986  0.00  0.00    +0.000 HD
ENDROOT
BRANCH   3   5
ATOM      5  C   UNL     1       4.888   4.595  19.196  0.00  0.00    +0.000 C 
ATOM      6  C   UNL     1       6.367   4.863  18.911  0.00  0.00    +0.000 C 
ATOM      7  C   UNL     1       6.627   5.393  17.496  0.00  0.00    +0.000 C 
ATOM      8  N   UNL     1       5.950   4.661  16.408  0.00  0.00    +0.000 NA
ATOM      9  C   UNL     1       4.537   4.378  16.709  0.00  0.00    +0.000 C 
ATOM     10  C   UNL     1       4.329   3.726  18.076  0.00  0.00    +0.000 C 
BRANCH   8  11
ATOM     11  C   UNL     1       6.079   5.459  15.158  0.00  0.00    +0.000 C 
BRANCH  11  12
ATOM     12  C   UNL     1       6.248   4.656  13.890  0.00  0.00    +0.000 A 
ATOM     13  C   UNL     1       5.280   3.730  13.478  0.00  0.00    +0.000 A 
ATOM     14  C   UNL     1       5.441   3.023  12.282  0.00  0.00    +0.000 A 
ATOM     15  C   UNL     1       6.569   3.232  11.487  0.00  0.00    +0.000 A 
ATOM     16  C   UNL     1       7.547   4.132  11.896  0.00  0.00    +0.000 A 
ATOM     17  C   UNL     1       7.386   4.827  13.092  0.00  0.00    +0.000 A 
ATOM     18  F   UNL     1       8.348   5.682  13.469  0.00  0.00    +0.000 F 
ENDBRANCH  11  12
ENDBRANCH   8  11
ENDBRANCH   3   5
BRANCH   1  22
ATOM     19  C   UNL     1       0.861   9.254  20.163  0.00  0.00    +0.000 A 
ATOM     20  C   UNL     1       1.400   9.260  18.888  0.00  0.00    +0.000 A 
ATOM     21  C   UNL     1       2.158   8.081  18.602  0.00  0.00    +0.000 A 
ATOM     22  C   UNL     1       2.174   7.191  19.660  0.00  0.00    +0.000 A 
ATOM     23  S   UNL     1       1.353   7.847  21.010  0.00  0.00    +0.000 S 
BRANCH  19  27
ATOM     24  C   UNL     1      -1.669  12.196  22.131  0.00  0.00    +0.000 A 
ATOM     25  C   UNL     1      -1.499  12.178  20.741  0.00  0.00    +0.000 A 
ATOM     26  C   UNL     1      -0.673  11.242  20.103  0.00  0.00    +0.000 A 
ATOM     27  C   UNL     1       0.003  10.253  20.827  0.00  0.00    +0.000 A 
ATOM     28  C   UNL     1      -0.163  10.250  22.214  0.00  0.00    +0.000 A 
ATOM     29  C   UNL     1      -0.982  11.201  22.844  0.00  0.00    +0.000 A 
BRANCH  24  31
ATOM     30  C   UNL     1      -3.609  12.683  23.586  0.00  0.00    +0.000 C 
ATOM     31  N   UNL     1      -2.487  13.129  22.768  0.00  0.00    +0.000 N 
ATOM     32  C   UNL     1      -2.546  14.490  22.244  0.00  0.00    +0.000 C 
ENDBRANCH  24  31
ENDBRANCH  19  27
ENDBRANCH   1  22
TORSDOF 6
ENDMDL
MODEL 5
REMARK VINA RESULT:      -7.9      2.943      4.804
REMARK  Name = 
REMARK  8 active torsions:
REMARK  status: ('A' for Active; 'I' for Inactive)
REMARK    1  A    between atoms: C_1  and  N_2
REMARK    2  A    between atoms: N_2  and  C_3
REMARK    3  A    between atoms: N_2  and  C_4
REMARK    4  A    between atoms: C_7  and  C_8
REMARK    5  A    between atoms: C_11  and  C_12
REMARK    6  A    between atoms: N_14  and  C_15
REMARK    7  A    between atoms: N_18  and  C_19
REMARK    8  A    between atoms: C_19  and  C_20
REMARK                            x       y       z     vdW  Elec       q    Type
REMARK                         _______ _______ _______ _____ _____    ______ ____
ROOT
ATOM      1  C   UNL     1       2.743   6.116  19.814  0.00  0.00    +0.000 C 
ATOM      2  O   UNL     1       2.152   5.116  20.227  0.00  0.00    +0.000 OA
ATOM      3  N   UNL     1       4.080   6.068  19.446  0.00  0.00    +0.000 N 
ATOM      4  H   UNL     1       4.451   6.911  19.023  0.00  0.00    +0.000 HD
ENDROOT
BRANCH   3   5
ATOM      5  C   UNL     1       4.856   4.835  19.352  0.00  0.00    +0.000 C 
ATOM      6  C   UNL     1       6.347   5.107  19.143  0.00  0.00    +0.000 C 
ATOM      7  C   UNL     1       6.680   5.609  17.733  0.00  0.00    +0.000 C 
ATOM      8  N   UNL     1       6.068   4.849  16.625  0.00  0.00    +0.000 NA
ATOM      9  C   UNL     1       4.642   4.564  16.855  0.00  0.00    +0.000 C 
ATOM     10  C   UNL     1       4.364   3.939  18.222  0.00  0.00    +0.000 C 
BRANCH   8  11
ATOM     11  C   UNL     1       6.259   5.622  15.367  0.00  0.00    +0.000 C 
BRANCH  11  12
ATOM     12  C   UNL     1       6.314   4.798  14.103  0.00  0.00    +0.000 A 
ATOM     13  C   UNL     1       5.282   3.914  13.762  0.00  0.00    +0.000 A 
ATOM     14  C   UNL     1       5.337   3.187  12.568  0.00  0.00    +0.000 A 
ATOM     15  C   UNL     1       6.423   3.335  11.703  0.00  0.00    +0.000 A 
ATOM     16  C   UNL     1       7.464   4.194  12.040  0.00  0.00    +0.000 A 
ATOM     17  C   UNL     1       7.408   4.908  13.234  0.00  0.00    +0.000 A 
ATOM     18  F   UNL     1       8.430   5.722  13.541  0.00  0.00    +0.000 F 
ENDBRANCH  11  12
ENDBRANCH   8  11
ENDBRANCH   3   5
BRANCH   1  22
ATOM     19  C   UNL     1       0.774   9.492  20.067  0.00  0.00    +0.000 A 
ATOM     20  C   UNL     1       1.308   9.431  18.791  0.00  0.00    +0.000 A 
ATOM     21  C   UNL     1       2.080   8.247  18.571  0.00  0.00    +0.000 A 
ATOM     22  C   UNL     1       2.111   7.420  19.679  0.00  0.00    +0.000 A 
ATOM     23  S   UNL     1       1.288   8.143  20.992  0.00  0.00    +0.000 S 
BRANCH  19  27
ATOM     24  C   UNL     1      -1.786  12.523  21.854  0.00  0.00    +0.000 A 
ATOM     25  C   UNL     1      -1.073  11.602  22.633  0.00  0.00    +0.000 A 
ATOM     26  C   UNL     1      -0.259  10.614  22.062  0.00  0.00    +0.000 A 
ATOM     27  C   UNL     1      -0.093  10.517  20.676  0.00  0.00    +0.000 A 
ATOM     28  C   UNL     1      -0.788  11.434  19.883  0.00  0.00    +0.000 A 
ATOM     29  C   UNL     1      -1.612  12.412  20.465  0.00  0.00    +0.000 A 
BRANCH  24  31
ATOM     30  C   UNL     1      -2.373  13.941  23.794  0.00  0.00    +0.000 C 
ATOM     31  N   UNL     1      -2.599  13.504  22.420  0.00  0.00    +0.000 N 
ATOM     32  C   UNL     1      -3.928  13.728  21.863  0.00  0.00    +0.000 C 
ENDBRANCH  24  31
ENDBRANCH  19  27
ENDBRANCH   1  22
TORSDOF 6
ENDMDL
MODEL 6
REMARK VINA RESULT:      -7.6      1.253      1.738
REMARK  Name = 
REMARK  8 active torsions:
REMARK  status: ('A' for Active; 'I' for Inactive)
REMARK    1  A    between atoms: C_1  and  N_2
REMARK    2  A    between atoms: N_2  and  C_3
REMARK    3  A    between atoms: N_2  and  C_4
REMARK    4  A    between atoms: C_7  and  C_8
REMARK    5  A    between atoms: C_11  and  C_12
REMARK    6  A    between atoms: N_14  and  C_15
REMARK    7  A    between atoms: N_18  and  C_19
REMARK    8  A    between atoms: C_19  and  C_20
REMARK                            x       y       z     vdW  Elec       q    Type
REMARK                         _______ _______ _______ _____ _____    ______ ____
ROOT
ATOM      1  C   UNL     1       2.666   8.237  18.252  0.00  0.00    +0.000 C 
ATOM      2  O   UNL     1       2.510   8.695  17.118  0.00  0.00    +0.000 OA
ATOM      3  N   UNL     1       3.625   7.270  18.519  0.00  0.00    +0.000 N 
ATOM      4  H   UNL     1       3.749   7.030  19.495  0.00  0.00    +0.000 HD
ENDROOT
BRANCH   3   5
ATOM      5  C   UNL     1       4.630   6.832  17.555  0.00  0.00    +0.000 C 
ATOM      6  C   UNL     1       4.093   5.753  16.613  0.00  0.00    +0.000 C 
ATOM      7  C   UNL     1       3.920   4.388  17.289  0.00  0.00    +0.000 C 
ATOM      8  N   UNL     1       5.064   3.931  18.103  0.00  0.00    +0.000 NA
ATOM      9  C   UNL     1       5.594   4.989  18.979  0.00  0.00    +0.000 C 
ATOM     10  C   UNL     1       5.881   6.296  18.242  0.00  0.00    +0.000 C 
BRANCH   8  11
ATOM     11  C   UNL     1       4.628   2.750  18.897  0.00  0.00    +0.000 C 
BRANCH  11  12
ATOM     12  C   UNL     1       3.199   2.788  19.383  0.00  0.00    +0.000 A 
ATOM     13  C   UNL     1       2.862   3.360  20.617  0.00  0.00    +0.000 A 
ATOM     14  C   UNL     1       1.527   3.415  21.031  0.00  0.00    +0.000 A 
ATOM     15  C   UNL     1       0.515   2.901  20.219  0.00  0.00    +0.000 A 
ATOM     16  C   UNL     1       0.839   2.311  19.001  0.00  0.00    +0.000 A 
ATOM     17  C   UNL     1       2.171   2.250  18.598  0.00  0.00    +0.000 A 
ATOM     18  F   UNL     1       2.457   1.667  17.424  0.00  0.00    +0.000 F 
ENDBRANCH  11  12
ENDBRANCH   8  11
ENDBRANCH   3   5
BRANCH   1  22
ATOM     19  C   UNL     1       0.541   9.974  21.046  0.00  0.00    +0.000 A 
ATOM     20  C   UNL     1       0.806   8.687  21.482  0.00  0.00    +0.000 A 
ATOM     21  C   UNL     1       1.562   7.927  20.535  0.00  0.00    +0.000 A 
ATOM     22  C   UNL     1       1.871   8.652  19.399  0.00  0.00    +0.000 A 
ATOM     23  S   UNL     1       1.155  10.203  19.461  0.00  0.00    +0.000 S 
BRANCH  19  27
ATOM     24  C   UNL     1      -1.560  13.214  23.051  0.00  0.00    +0.000 A 
ATOM     25  C   UNL     1      -1.833  11.869  23.331  0.00  0.00    +0.000 A 
ATOM     26  C   UNL     1      -1.170  10.821  22.678  0.00  0.00    +0.000 A 
ATOM     27  C   UNL     1      -0.173  11.069  21.727  0.00  0.00    +0.000 A 
ATOM     28  C   UNL     1       0.120  12.405  21.442  0.00  0.00    +0.000 A 
ATOM     29  C   UNL     1      -0.561  13.448  22.093  0.00  0.00    +0.000 A 
BRANCH  24  31
ATOM     30  C   UNL     1      -1.507  15.485  24.029  0.00  0.00    +0.000 C 
ATOM     31  N   UNL     1      -2.222  14.257  23.697  0.00  0.00    +0.000 N 
ATOM     32  C   UNL     1      -3.425  13.961  24.467  0.00  0.00    +0.000 C 
ENDBRANCH  24  31
ENDBRANCH  19  27
ENDBRANCH   1  22
TORSDOF 6
ENDMDL
MODEL 7
REMARK VINA RESULT:      -7.5      2.240      4.158
REMARK  Name = 
REMARK  8 active torsions:
REMARK  status: ('A' for Active; 'I' for Inactive)
REMARK    1  A    between atoms: C_1  and  N_2
REMARK    2  A    between atoms: N_2  and  C_3
REMARK    3  A    between atoms: N_2  and  C_4
REMARK    4  A    between atoms: C_7  and  C_8
REMARK    5  A    between atoms: C_11  and  C_12
REMARK    6  A    between atoms: N_14  and  C_15
REMARK    7  A    between atoms: N_18  and  C_19
REMARK    8  A    between atoms: C_19  and  C_20
REMARK                            x       y       z     vdW  Elec       q    Type
REMARK                         _______ _______ _______ _____ _____    ______ ____
ROOT
ATOM      1  C   UNL     1       1.979   5.938  20.308  0.00  0.00    +0.000 C 
ATOM      2  O   UNL     1       2.116   5.371  21.393  0.00  0.00    +0.000 OA
ATOM      3  N   UNL     1       2.108   5.252  19.109  0.00  0.00    +0.000 N 
ATOM      4  H   UNL     1       1.878   5.777  18.274  0.00  0.00    +0.000 HD
ENDROOT
BRANCH   3   5
ATOM      5  C   UNL     1       2.247   3.803  19.010  0.00  0.00    +0.000 C 
ATOM      6  C   UNL     1       3.603   3.318  19.525  0.00  0.00    +0.000 C 
ATOM      7  C   UNL     1       4.765   3.650  18.581  0.00  0.00    +0.000 C 
ATOM      8  N   UNL     1       4.538   3.334  17.157  0.00  0.00    +0.000 NA
ATOM      9  C   UNL     1       3.215   3.775  16.683  0.00  0.00    +0.000 C 
ATOM     10  C   UNL     1       2.067   3.310  17.579  0.00  0.00    +0.000 C 
BRANCH   8  11
ATOM     11  C   UNL     1       5.626   3.966  16.360  0.00  0.00    +0.000 C 
BRANCH  11  12
ATOM     12  C   UNL     1       6.385   5.068  17.060  0.00  0.00    +0.000 A 
ATOM     13  C   UNL     1       7.352   4.784  18.033  0.00  0.00    +0.000 A 
ATOM     14  C   UNL     1       8.068   5.820  18.643  0.00  0.00    +0.000 A 
ATOM     15  C   UNL     1       7.826   7.148  18.288  0.00  0.00    +0.000 A 
ATOM     16  C   UNL     1       6.853   7.444  17.338  0.00  0.00    +0.000 A 
ATOM     17  C   UNL     1       6.137   6.409  16.741  0.00  0.00    +0.000 A 
ATOM     18  F   UNL     1       5.197   6.722  15.837  0.00  0.00    +0.000 F 
ENDBRANCH  11  12
ENDBRANCH   8  11
ENDBRANCH   3   5
BRANCH   1  22
ATOM     19  C   UNL     1       0.885   9.690  20.580  0.00  0.00    +0.000 A 
ATOM     20  C   UNL     1       1.381   9.505  19.301  0.00  0.00    +0.000 A 
ATOM     21  C   UNL     1       1.843   8.170  19.073  0.00  0.00    +0.000 A 
ATOM     22  C   UNL     1       1.680   7.357  20.179  0.00  0.00    +0.000 A 
ATOM     23  S   UNL     1       1.063   8.253  21.499  0.00  0.00    +0.000 S 
BRANCH  19  27
ATOM     24  C   UNL     1      -0.849  13.244  22.392  0.00  0.00    +0.000 A 
ATOM     25  C   UNL     1      -1.123  11.958  22.875  0.00  0.00    +0.000 A 
ATOM     26  C   UNL     1      -0.580  10.808  22.286  0.00  0.00    +0.000 A 
ATOM     27  C   UNL     1       0.295  10.892  21.196  0.00  0.00    +0.000 A 
ATOM     28  C   UNL     1       0.589  12.167  20.708  0.00  0.00    +0.000 A 
ATOM     29  C   UNL     1       0.027  13.313  21.298  0.00  0.00    +0.000 A 
BRANCH  24  31
ATOM     30  C   UNL     1      -0.529  15.507  23.340  0.00  0.00    +0.000 C 
ATOM     31  N   UNL     1      -1.393  14.388  22.976  0.00  0.00    +0.000 N 
ATOM     32  C   UNL     1      -2.676  14.290  23.662  0.00  0.00    +0.000 C 
ENDBRANCH  24  31
ENDBRANCH  19  27
ENDBRANCH   1  22
TORSDOF 6
ENDMDL
MODEL 8
REMARK VINA RESULT:      -7.4      2.708      4.572
REMARK  Name = 
REMARK  8 active torsions:
REMARK  status: ('A' for Active; 'I' for Inactive)
REMARK    1  A    between atoms: C_1  and  N_2
REMARK    2  A    between atoms: N_2  and  C_3
REMARK    3  A    between atoms: N_2  and  C_4
REMARK    4  A    between atoms: C_7  and  C_8
REMARK    5  A    between atoms: C_11  and  C_12
REMARK    6  A    between atoms: N_14  and  C_15
REMARK    7  A    between atoms: N_18  and  C_19
REMARK    8  A    between atoms: C_19  and  C_20
REMARK                            x       y       z     vdW  Elec       q    Type
REMARK                         _______ _______ _______ _____ _____    ______ ____
ROOT
ATOM      1  C   UNL     1       1.769   7.102  19.797  0.00  0.00    +0.000 C 
ATOM      2  O   UNL     1       1.472   6.785  20.951  0.00  0.00    +0.000 OA
ATOM      3  N   UNL     1       2.207   6.162  18.876  0.00  0.00    +0.000 N 
ATOM      4  H   UNL     1       2.328   6.497  17.928  0.00  0.00    +0.000 HD
ENDROOT
BRANCH   3   5
ATOM      5  C   UNL     1       2.200   4.722  19.115  0.00  0.00    +0.000 C 
ATOM      6  C   UNL     1       3.432   4.263  19.898  0.00  0.00    +0.000 C 
ATOM      7  C   UNL     1       4.720   4.277  19.066  0.00  0.00    +0.000 C 
ATOM      8  N   UNL     1       4.620   3.662  17.728  0.00  0.00    +0.000 NA
ATOM      9  C   UNL     1       3.413   4.085  16.999  0.00  0.00    +0.000 C 
ATOM     10  C   UNL     1       2.130   3.930  17.815  0.00  0.00    +0.000 C 
BRANCH   8  11
ATOM     11  C   UNL     1       5.851   4.006  16.964  0.00  0.00    +0.000 C 
BRANCH  11  12
ATOM     12  C   UNL     1       6.567   5.256  17.418  0.00  0.00    +0.000 A 
ATOM     13  C   UNL     1       7.514   5.221  18.450  0.00  0.00    +0.000 A 
ATOM     14  C   UNL     1       8.190   6.384  18.831  0.00  0.00    +0.000 A 
ATOM     15  C   UNL     1       7.929   7.594  18.185  0.00  0.00    +0.000 A 
ATOM     16  C   UNL     1       6.976   7.646  17.173  0.00  0.00    +0.000 A 
ATOM     17  C   UNL     1       6.299   6.486  16.805  0.00  0.00    +0.000 A 
ATOM     18  F   UNL     1       5.377   6.566  15.834  0.00  0.00    +0.000 F 
ENDBRANCH  11  12
ENDBRANCH   8  11
ENDBRANCH   3   5
BRANCH   1  22
ATOM     19  C   UNL     1       1.150  10.884  18.987  0.00  0.00    +0.000 A 
ATOM     20  C   UNL     1       1.886  10.361  17.938  0.00  0.00    +0.000 A 
ATOM     21  C   UNL     1       2.205   8.979  18.120  0.00  0.00    +0.000 A 
ATOM     22  C   UNL     1       1.696   8.468  19.300  0.00  0.00    +0.000 A 
ATOM     23  S   UNL     1       0.929   9.699  20.207  0.00  0.00    +0.000 S 
BRANCH  19  27
ATOM     24  C   UNL     1      -0.453  14.893  19.521  0.00  0.00    +0.000 A 
ATOM     25  C   UNL     1      -1.089  13.765  20.054  0.00  0.00    +0.000 A 
ATOM     26  C   UNL     1      -0.585  12.469  19.873  0.00  0.00    +0.000 A 
ATOM     27  C   UNL     1       0.603  12.241  19.169  0.00  0.00    +0.000 A 
ATOM     28  C   UNL     1       1.257  13.356  18.640  0.00  0.00    +0.000 A 
ATOM     29  C   UNL     1       0.736  14.649  18.816  0.00  0.00    +0.000 A 
BRANCH  24  31
ATOM     30  C   UNL     1      -0.060  17.333  19.634  0.00  0.00    +0.000 C 
ATOM     31  N   UNL     1      -0.955  16.182  19.698  0.00  0.00    +0.000 N 
ATOM     32  C   UNL     1      -2.212  16.358  20.417  0.00  0.00    +0.000 C 
ENDBRANCH  24  31
ENDBRANCH  19  27
ENDBRANCH   1  22
TORSDOF 6
ENDMDL
MODEL 9
REMARK VINA RESULT:      -7.4      3.494     10.762
REMARK  Name = 
REMARK  8 active torsions:
REMARK  status: ('A' for Active; 'I' for Inactive)
REMARK    1  A    between atoms: C_1  and  N_2
REMARK    2  A    between atoms: N_2  and  C_3
REMARK    3  A    between atoms: N_2  and  C_4
REMARK    4  A    between atoms: C_7  and  C_8
REMARK    5  A    between atoms: C_11  and  C_12
REMARK    6  A    between atoms: N_14  and  C_15
REMARK    7  A    between atoms: N_18  and  C_19
REMARK    8  A    between atoms: C_19  and  C_20
REMARK                            x       y       z     vdW  Elec       q    Type
REMARK                         _______ _______ _______ _____ _____    ______ ____
ROOT
ATOM      1  C   UNL     1      -0.465  11.099  22.227  0.00  0.00    +0.000 C 
ATOM      2  O   UNL     1      -0.616  10.623  23.354  0.00  0.00    +0.000 OA
ATOM      3  N   UNL     1      -0.886  12.384  21.919  0.00  0.00    +0.000 N 
ATOM      4  H   UNL     1      -0.627  12.725  21.001  0.00  0.00    +0.000 HD
ENDROOT
BRANCH   3   5
ATOM      5  C   UNL     1      -1.382  13.338  22.907  0.00  0.00    +0.000 C 
ATOM      6  C   UNL     1      -2.707  12.890  23.524  0.00  0.00    +0.000 C 
ATOM      7  C   UNL     1      -3.898  13.023  22.568  0.00  0.00    +0.000 C 
ATOM      8  N   UNL     1      -3.997  14.310  21.850  0.00  0.00    +0.000 NA
ATOM      9  C   UNL     1      -2.707  14.746  21.291  0.00  0.00    +0.000 C 
ATOM     10  C   UNL     1      -1.569  14.728  22.311  0.00  0.00    +0.000 C 
BRANCH   8  11
ATOM     11  C   UNL     1      -5.021  14.168  20.778  0.00  0.00    +0.000 C 
BRANCH  11  12
ATOM     12  C   UNL     1      -6.023  13.056  20.982  0.00  0.00    +0.000 A 
ATOM     13  C   UNL     1      -6.951  13.093  22.031  0.00  0.00    +0.000 A 
ATOM     14  C   UNL     1      -7.892  12.069  22.180  0.00  0.00    +0.000 A 
ATOM     15  C   UNL     1      -7.917  10.999  21.284  0.00  0.00    +0.000 A 
ATOM     16  C   UNL     1      -6.986  10.940  20.251  0.00  0.00    +0.000 A 
ATOM     17  C   UNL     1      -6.045  11.958  20.114  0.00  0.00    +0.000 A 
ATOM     18  F   UNL     1      -5.153  11.871  19.116  0.00  0.00    +0.000 F 
ENDBRANCH  11  12
ENDBRANCH   8  11
ENDBRANCH   3   5
BRANCH   1  22
ATOM     19  C   UNL     1       1.401   8.700  19.755  0.00  0.00    +0.000 A 
ATOM     20  C   UNL     1       1.011   9.809  19.024  0.00  0.00    +0.000 A 
ATOM     21  C   UNL     1       0.291  10.764  19.810  0.00  0.00    +0.000 A 
ATOM     22  C   UNL     1       0.154  10.371  21.128  0.00  0.00    +0.000 A 
ATOM     23  S   UNL     1       0.814   8.811  21.363  0.00  0.00    +0.000 S 
BRANCH  19  27
ATOM     24  C   UNL     1       3.687   5.212  18.517  0.00  0.00    +0.000 A 
ATOM     25  C   UNL     1       3.707   6.408  17.788  0.00  0.00    +0.000 A 
ATOM     26  C   UNL     1       2.961   7.529  18.173  0.00  0.00    +0.000 A 
ATOM     27  C   UNL     1       2.176   7.520  19.332  0.00  0.00    +0.000 A 
ATOM     28  C   UNL     1       2.152   6.339  20.078  0.00  0.00    +0.000 A 
ATOM     29  C   UNL     1       2.894   5.215  19.675  0.00  0.00    +0.000 A 
BRANCH  24  31
ATOM     30  C   UNL     1       4.996   4.017  16.791  0.00  0.00    +0.000 C 
ATOM     31  N   UNL     1       4.427   4.094  18.132  0.00  0.00    +0.000 N 
ATOM     32  C   UNL     1       4.223   2.834  18.840  0.00  0.00    +0.000 C 
ENDBRANCH  24  31
ENDBRANCH  19  27
ENDBRANCH   1  22
TORSDOF 6
ENDMDL
