MODEL 1
REMARK VINA RESULT:      -8.5      0.000      0.000
REMARK  Name = 
REMARK  10 active torsions:
REMARK  status: ('A' for Active; 'I' for Inactive)
REMARK    1  A    between atoms: C_1  and  O_2
REMARK    2  A    between atoms: O_2  and  C_3
REMARK    3  A    between atoms: C_3  and  C_5
REMARK    4  A    between atoms: N_9  and  P_10
REMARK    5  A    between atoms: P_10  and  O_12
REMARK    6  A    between atoms: P_10  and  O_29
REMARK    7  A    between atoms: O_12  and  C_13
REMARK    8  A    between atoms: C_13  and  C_14
REMARK    9  A    between atoms: C_17  and  N_18
REMARK   10  A    between atoms: O_29  and  C_30
REMARK                            x       y       z     vdW  Elec       q    Type
REMARK                         _______ _______ _______ _____ _____    ______ ____
ROOT
ATOM      1  O   UNL     1       4.391   6.140  19.048  0.00  0.00    +0.000 OA
ENDROOT
BRANCH   1   2
ATOM      2  P   UNL     1       5.038   4.729  18.518  0.00  0.00    +0.000 P 
ATOM      3  O   UNL     1       5.960   4.162  19.561  0.00  0.00    +0.000 OA
BRANCH   2   8
ATOM      4  C   UNL     1       7.116   5.347  16.798  0.00  0.00    +0.000 C 
ATOM      5  C   UNL     1       7.083   5.693  15.312  0.00  0.00    +0.000 C 
ATOM      6  C   UNL     1       6.178   4.630  14.718  0.00  0.00    +0.000 C 
ATOM      7  C   UNL     1       5.343   4.129  15.896  0.00  0.00    +0.000 C 
ATOM      8  N   UNL     1       5.723   4.957  17.044  0.00  0.00    +0.000 NA
BRANCH   4   9
ATOM      9  C   UNL     1       7.603   6.545  17.590  0.00  0.00    +0.000 C 
ATOM     10  O   UNL     1       8.090   6.448  18.711  0.00  0.00    +0.000 OA
BRANCH   9  12
ATOM     11  C   UNL     1       7.906   8.867  17.593  0.00  0.00    +0.000 C 
ATOM     12  O   UNL     1       7.523   7.697  16.875  0.00  0.00    +0.000 OA
ENDBRANCH   9  12
ENDBRANCH   4   9
ENDBRANCH   2   8
BRANCH   2  13
ATOM     13  O   UNL     1       3.702   3.834  18.329  0.00  0.00    +0.000 OA
BRANCH  13  14
ATOM     14  C   UNL     1       2.799   3.508  19.309  0.00  0.00    +0.000 A 
ATOM     15  C   UNL     1       3.320   2.842  20.419  0.00  0.00    +0.000 A 
ATOM     16  C   UNL     1       2.486   2.496  21.496  0.00  0.00    +0.000 A 
ATOM     17  C   UNL     1       1.131   2.810  21.460  0.00  0.00    +0.000 A 
ATOM     18  C   UNL     1       0.617   3.492  20.359  0.00  0.00    +0.000 A 
ATOM     19  C   UNL     1       1.454   3.843  19.290  0.00  0.00    +0.000 A 
ENDBRANCH  13  14
ENDBRANCH   2  13
ENDBRANCH   1   2
BRANCH   1  20
ATOM     20  C   UNL     1       3.758   6.991  18.061  0.00  0.00    +0.000 C 
BRANCH  20  21
ATOM     21  C   UNL     1       2.266   7.287  18.392  0.00  0.00    +0.000 C 
ATOM     22  C   UNL     1       2.055   7.723  19.809  0.00  0.00    +0.000 C 
ATOM     23  C   UNL     1       1.366   8.863  19.922  0.00  0.00    +0.000 C 
ATOM     24  C   UNL     1       0.945   9.438  18.603  0.00  0.00    +0.000 C 
ATOM     25  C   UNL     1       1.593   8.449  17.586  0.00  0.00    +0.000 C 
BRANCH  24  26
ATOM     26  N   UNL     1       1.276  10.852  18.482  0.00  0.00    +0.000 N 
ATOM     27  C   UNL     1       2.479  11.386  18.091  0.00  0.00    +0.000 A 
ATOM     28  N   UNL     1       2.510  12.698  18.199  0.00  0.00    +0.000 NA
ATOM     29  C   UNL     1       1.264  13.042  18.698  0.00  0.00    +0.000 A 
ATOM     30  C   UNL     1       0.693  14.281  19.064  0.00  0.00    +0.000 A 
ATOM     31  N   UNL     1       1.349  15.506  18.978  0.00  0.00    +0.000 N 
ATOM     32  N   UNL     1      -0.561  14.287  19.569  0.00  0.00    +0.000 NA
ATOM     33  C   UNL     1      -1.213  13.110  19.679  0.00  0.00    +0.000 A 
ATOM     34  N   UNL     1      -0.769  11.873  19.362  0.00  0.00    +0.000 NA
ATOM     35  C   UNL     1       0.483  11.911  18.874  0.00  0.00    +0.000 A 
ATOM     36  H   UNL     1       2.358  15.424  18.960  0.00  0.00    +0.000 HD
ATOM     37  H   UNL     1       0.947  16.186  19.609  0.00  0.00    +0.000 HD
ENDBRANCH  24  26
ENDBRANCH  20  21
ENDBRANCH   1  20
TORSDOF 9
ENDMDL
MODEL 2
REMARK VINA RESULT:      -8.4      1.778      2.641
REMARK  Name = 
REMARK  10 active torsions:
REMARK  status: ('A' for Active; 'I' for Inactive)
REMARK    1  A    between atoms: C_1  and  O_2
REMARK    2  A    between atoms: O_2  and  C_3
REMARK    3  A    between atoms: C_3  and  C_5
REMARK    4  A    between atoms: N_9  and  P_10
REMARK    5  A    between atoms: P_10  and  O_12
REMARK    6  A    between atoms: P_10  and  O_29
REMARK    7  A    between atoms: O_12  and  C_13
REMARK    8  A    between atoms: C_13  and  C_14
REMARK    9  A    between atoms: C_17  and  N_18
REMARK   10  A    between atoms: O_29  and  C_30
REMARK                            x       y       z     vdW  Elec       q    Type
REMARK                         _______ _______ _______ _____ _____    ______ ____
ROOT
ATOM      1  O   UNL     1       3.578   7.500  17.523  0.00  0.00    +0.000 OA
ENDROOT
BRANCH   1   2
ATOM      2  P   UNL     1       4.112   5.992  17.886  0.00  0.00    +0.000 P 
ATOM      3  O   UNL     1       4.590   5.945  19.311  0.00  0.00    +0.000 OA
BRANCH   2   8
ATOM      4  C   UNL     1       6.651   5.311  17.021  0.00  0.00    +0.000 C 
ATOM      5  C   UNL     1       7.197   5.186  15.602  0.00  0.00    +0.000 C 
ATOM      6  C   UNL     1       6.136   4.374  14.881  0.00  0.00    +0.000 C 
ATOM      7  C   UNL     1       4.869   4.569  15.712  0.00  0.00    +0.000 C 
ATOM      8  N   UNL     1       5.220   5.518  16.773  0.00  0.00    +0.000 NA
BRANCH   4   9
ATOM      9  C   UNL     1       7.354   6.445  17.740  0.00  0.00    +0.000 C 
ATOM     10  O   UNL     1       7.960   6.291  18.795  0.00  0.00    +0.000 OA
BRANCH   9  12
ATOM     11  C   UNL     1       7.949   8.710  17.667  0.00  0.00    +0.000 C 
ATOM     12  O   UNL     1       7.310   7.604  17.033  0.00  0.00    +0.000 OA
ENDBRANCH   9  12
ENDBRANCH   4   9
ENDBRANCH   2   8
BRANCH   2  13
ATOM     13  O   UNL     1       2.760   5.130  17.664  0.00  0.00    +0.000 OA
BRANCH  13  14
ATOM     14  C   UNL     1       2.238   4.202  18.530  0.00  0.00    +0.000 A 
ATOM     15  C   UNL     1       1.656   4.714  19.691  0.00  0.00    +0.000 A 
ATOM     16  C   UNL     1       1.060   3.851  20.626  0.00  0.00    +0.000 A 
ATOM     17  C   UNL     1       1.052   2.477  20.403  0.00  0.00    +0.000 A 
ATOM     18  C   UNL     1       1.617   1.971  19.235  0.00  0.00    +0.000 A 
ATOM     19  C   UNL     1       2.204   2.836  18.300  0.00  0.00    +0.000 A 
ENDBRANCH  13  14
ENDBRANCH   2  13
ENDBRANCH   1   2
BRANCH   1  20
ATOM     20  C   UNL     1       2.615   8.098  18.426  0.00  0.00    +0.000 C 
BRANCH  20  21
ATOM     21  C   UNL     1       1.875   9.314  17.794  0.00  0.00    +0.000 C 
ATOM     22  C   UNL     1       0.416   9.059  17.571  0.00  0.00    +0.000 C 
ATOM     23  C   UNL     1      -0.378   9.999  18.093  0.00  0.00    +0.000 C 
ATOM     24  C   UNL     1       0.374  11.107  18.768  0.00  0.00    +0.000 C 
ATOM     25  C   UNL     1       1.854  10.630  18.642  0.00  0.00    +0.000 C 
BRANCH  24  26
ATOM     26  N   UNL     1      -0.138  11.393  20.103  0.00  0.00    +0.000 N 
ATOM     27  C   UNL     1       0.457  11.073  21.298  0.00  0.00    +0.000 A 
ATOM     28  N   UNL     1      -0.307  11.353  22.334  0.00  0.00    +0.000 NA
ATOM     29  C   UNL     1      -1.468  11.874  21.787  0.00  0.00    +0.000 A 
ATOM     30  C   UNL     1      -2.676  12.324  22.366  0.00  0.00    +0.000 A 
ATOM     31  N   UNL     1      -2.940  12.326  23.733  0.00  0.00    +0.000 N 
ATOM     32  N   UNL     1      -3.663  12.748  21.547  0.00  0.00    +0.000 NA
ATOM     33  C   UNL     1      -3.439  12.740  20.215  0.00  0.00    +0.000 A 
ATOM     34  N   UNL     1      -2.331  12.334  19.555  0.00  0.00    +0.000 NA
ATOM     35  C   UNL     1      -1.379  11.912  20.405  0.00  0.00    +0.000 A 
ATOM     36  H   UNL     1      -2.362  11.682  24.258  0.00  0.00    +0.000 HD
ATOM     37  H   UNL     1      -3.935  12.319  23.918  0.00  0.00    +0.000 HD
ENDBRANCH  24  26
ENDBRANCH  20  21
ENDBRANCH   1  20
TORSDOF 9
ENDMDL
MODEL 3
REMARK VINA RESULT:      -8.4      1.001      1.327
REMARK  Name = 
REMARK  10 active torsions:
REMARK  status: ('A' for Active; 'I' for Inactive)
REMARK    1  A    between atoms: C_1  and  O_2
REMARK    2  A    between atoms: O_2  and  C_3
REMARK    3  A    between atoms: C_3  and  C_5
REMARK    4  A    between atoms: N_9  and  P_10
REMARK    5  A    between atoms: P_10  and  O_12
REMARK    6  A    between atoms: P_10  and  O_29
REMARK    7  A    between atoms: O_12  and  C_13
REMARK    8  A    between atoms: C_13  and  C_14
REMARK    9  A    between atoms: C_17  and  N_18
REMARK   10  A    between atoms: O_29  and  C_30
REMARK                            x       y       z     vdW  Elec       q    Type
REMARK                         _______ _______ _______ _____ _____    ______ ____
ROOT
ATOM      1  O   UNL     1       4.374   6.005  19.302  0.00  0.00    +0.000 OA
ENDROOT
BRANCH   1   2
ATOM      2  P   UNL     1       5.496   4.859  18.960  0.00  0.00    +0.000 P 
ATOM      3  O   UNL     1       6.679   5.009  19.877  0.00  0.00    +0.000 OA
BRANCH   2   8
ATOM      4  C   UNL     1       7.002   5.591  16.757  0.00  0.00    +0.000 C 
ATOM      5  C   UNL     1       6.650   5.540  15.273  0.00  0.00    +0.000 C 
ATOM      6  C   UNL     1       6.056   4.154  15.095  0.00  0.00    +0.000 C 
ATOM      7  C   UNL     1       5.601   3.746  16.496  0.00  0.00    +0.000 C 
ATOM      8  N   UNL     1       5.857   4.901  17.360  0.00  0.00    +0.000 NA
BRANCH   4   9
ATOM      9  C   UNL     1       7.190   7.033  17.187  0.00  0.00    +0.000 C 
ATOM     10  O   UNL     1       6.501   7.952  16.757  0.00  0.00    +0.000 OA
BRANCH   9  12
ATOM     11  C   UNL     1       8.506   8.502  18.451  0.00  0.00    +0.000 C 
ATOM     12  O   UNL     1       8.131   7.158  18.159  0.00  0.00    +0.000 OA
ENDBRANCH   9  12
ENDBRANCH   4   9
ENDBRANCH   2   8
BRANCH   2  13
ATOM     13  O   UNL     1       4.654   3.510  19.261  0.00  0.00    +0.000 OA
BRANCH  13  14
ATOM     14  C   UNL     1       3.306   3.434  19.507  0.00  0.00    +0.000 A 
ATOM     15  C   UNL     1       2.507   3.089  18.416  0.00  0.00    +0.000 A 
ATOM     16  C   UNL     1       1.118   2.948  18.569  0.00  0.00    +0.000 A 
ATOM     17  C   UNL     1       0.527   3.157  19.812  0.00  0.00    +0.000 A 
ATOM     18  C   UNL     1       1.329   3.482  20.903  0.00  0.00    +0.000 A 
ATOM     19  C   UNL     1       2.716   3.614  20.748  0.00  0.00    +0.000 A 
ENDBRANCH  13  14
ENDBRANCH   2  13
ENDBRANCH   1   2
BRANCH   1  20
ATOM     20  C   UNL     1       3.709   6.637  18.180  0.00  0.00    +0.000 C 
BRANCH  20  21
ATOM     21  C   UNL     1       2.233   7.022  18.496  0.00  0.00    +0.000 C 
ATOM     22  C   UNL     1       2.022   7.402  19.929  0.00  0.00    +0.000 C 
ATOM     23  C   UNL     1       1.413   8.582  20.086  0.00  0.00    +0.000 C 
ATOM     24  C   UNL     1       1.063   9.249  18.790  0.00  0.00    +0.000 C 
ATOM     25  C   UNL     1       1.663   8.267  17.737  0.00  0.00    +0.000 C 
BRANCH  24  26
ATOM     26  N   UNL     1       1.496  10.641  18.747  0.00  0.00    +0.000 N 
ATOM     27  C   UNL     1       2.427  11.187  17.899  0.00  0.00    +0.000 A 
ATOM     28  N   UNL     1       2.694  12.445  18.184  0.00  0.00    +0.000 NA
ATOM     29  C   UNL     1       1.904  12.734  19.284  0.00  0.00    +0.000 A 
ATOM     30  C   UNL     1       1.764  13.894  20.078  0.00  0.00    +0.000 A 
ATOM     31  N   UNL     1       2.467  15.079  19.872  0.00  0.00    +0.000 N 
ATOM     32  N   UNL     1       0.921  13.853  21.134  0.00  0.00    +0.000 NA
ATOM     33  C   UNL     1       0.240  12.711  21.366  0.00  0.00    +0.000 A 
ATOM     34  N   UNL     1       0.294  11.548  20.678  0.00  0.00    +0.000 NA
ATOM     35  C   UNL     1       1.149  11.630  19.644  0.00  0.00    +0.000 A 
ATOM     36  H   UNL     1       3.320  14.956  19.341  0.00  0.00    +0.000 HD
ATOM     37  H   UNL     1       2.519  15.630  20.719  0.00  0.00    +0.000 HD
ENDBRANCH  24  26
ENDBRANCH  20  21
ENDBRANCH   1  20
TORSDOF 9
ENDMDL
MODEL 4
REMARK VINA RESULT:      -8.3      1.686      1.883
REMARK  Name = 
REMARK  10 active torsions:
REMARK  status: ('A' for Active; 'I' for Inactive)
REMARK    1  A    between atoms: C_1  and  O_2
REMARK    2  A    between atoms: O_2  and  C_3
REMARK    3  A    between atoms: C_3  and  C_5
REMARK    4  A    between atoms: N_9  and  P_10
REMARK    5  A    between atoms: P_10  and  O_12
REMARK    6  A    between atoms: P_10  and  O_29
REMARK    7  A    between atoms: O_12  and  C_13
REMARK    8  A    between atoms: C_13  and  C_14
REMARK    9  A    between atoms: C_17  and  N_18
REMARK   10  A    between atoms: O_29  and  C_30
REMARK                            x       y       z     vdW  Elec       q    Type
REMARK                         _______ _______ _______ _____ _____    ______ ____
ROOT
ATOM      1  O   UNL     1       3.650   7.260  17.032  0.00  0.00    +0.000 OA
ENDROOT
BRANCH   1   2
ATOM      2  P   UNL     1       4.152   5.825  17.646  0.00  0.00    +0.000 P 
ATOM      3  O   UNL     1       4.598   6.002  19.071  0.00  0.00    +0.000 OA
BRANCH   2   8
ATOM      4  C   UNL     1       6.658   4.834  17.017  0.00  0.00    +0.000 C 
ATOM      5  C   UNL     1       7.283   4.553  15.654  0.00  0.00    +0.000 C 
ATOM      6  C   UNL     1       6.194   3.801  14.911  0.00  0.00    +0.000 C 
ATOM      7  C   UNL     1       4.901   4.180  15.631  0.00  0.00    +0.000 C 
ATOM      8  N   UNL     1       5.277   5.163  16.651  0.00  0.00    +0.000 NA
BRANCH   4   9
ATOM      9  C   UNL     1       7.426   5.942  17.711  0.00  0.00    +0.000 C 
ATOM     10  O   UNL     1       7.876   5.831  18.846  0.00  0.00    +0.000 OA
BRANCH   9  12
ATOM     11  C   UNL     1       7.682   8.266  17.568  0.00  0.00    +0.000 C 
ATOM     12  O   UNL     1       7.631   7.010  16.897  0.00  0.00    +0.000 OA
ENDBRANCH   9  12
ENDBRANCH   4   9
ENDBRANCH   2   8
BRANCH   2  13
ATOM     13  O   UNL     1       2.792   4.954  17.532  0.00  0.00    +0.000 OA
BRANCH  13  14
ATOM     14  C   UNL     1       2.240   4.180  18.521  0.00  0.00    +0.000 A 
ATOM     15  C   UNL     1       2.372   2.800  18.358  0.00  0.00    +0.000 A 
ATOM     16  C   UNL     1       1.875   1.919  19.332  0.00  0.00    +0.000 A 
ATOM     17  C   UNL     1       1.238   2.416  20.466  0.00  0.00    +0.000 A 
ATOM     18  C   UNL     1       1.123   3.794  20.635  0.00  0.00    +0.000 A 
ATOM     19  C   UNL     1       1.629   4.671  19.664  0.00  0.00    +0.000 A 
ENDBRANCH  13  14
ENDBRANCH   2  13
ENDBRANCH   1   2
BRANCH   1  20
ATOM     20  C   UNL     1       3.338   8.314  17.977  0.00  0.00    +0.000 C 
BRANCH  20  21
ATOM     21  C   UNL     1       1.881   8.223  18.517  0.00  0.00    +0.000 C 
ATOM     22  C   UNL     1       1.817   8.063  20.005  0.00  0.00    +0.000 C 
ATOM     23  C   UNL     1       1.023   8.955  20.606  0.00  0.00    +0.000 C 
ATOM     24  C   UNL     1       0.361   9.903  19.651  0.00  0.00    +0.000 C 
ATOM     25  C   UNL     1       0.975   9.479  18.281  0.00  0.00    +0.000 C 
BRANCH  24  26
ATOM     26  N   UNL     1       0.506  11.295  20.060  0.00  0.00    +0.000 N 
ATOM     27  C   UNL     1       1.406  12.207  19.568  0.00  0.00    +0.000 A 
ATOM     28  N   UNL     1       1.377  13.350  20.222  0.00  0.00    +0.000 NA
ATOM     29  C   UNL     1       0.415  13.172  21.203  0.00  0.00    +0.000 A 
ATOM     30  C   UNL     1      -0.053  14.007  22.242  0.00  0.00    +0.000 A 
ATOM     31  N   UNL     1       0.417  15.294  22.489  0.00  0.00    +0.000 N 
ATOM     32  N   UNL     1      -0.994  13.523  23.082  0.00  0.00    +0.000 NA
ATOM     33  C   UNL     1      -1.455  12.271  22.875  0.00  0.00    +0.000 A 
ATOM     34  N   UNL     1      -1.083  11.388  21.921  0.00  0.00    +0.000 NA
ATOM     35  C   UNL     1      -0.140  11.906  21.114  0.00  0.00    +0.000 A 
ATOM     36  H   UNL     1       1.336  15.470  22.103  0.00  0.00    +0.000 HD
ATOM     37  H   UNL     1       0.252  15.571  23.448  0.00  0.00    +0.000 HD
ENDBRANCH  24  26
ENDBRANCH  20  21
ENDBRANCH   1  20
TORSDOF 9
ENDMDL
MODEL 5
REMARK VINA RESULT:      -8.2      2.054      2.946
REMARK  Name = 
REMARK  10 active torsions:
REMARK  status: ('A' for Active; 'I' for Inactive)
REMARK    1  A    between atoms: C_1  and  O_2
REMARK    2  A    between atoms: O_2  and  C_3
REMARK    3  A    between atoms: C_3  and  C_5
REMARK    4  A    between atoms: N_9  and  P_10
REMARK    5  A    between atoms: P_10  and  O_12
REMARK    6  A    between atoms: P_10  and  O_29
REMARK    7  A    between atoms: O_12  and  C_13
REMARK    8  A    between atoms: C_13  and  C_14
REMARK    9  A    between atoms: C_17  and  N_18
REMARK   10  A    between atoms: O_29  and  C_30
REMARK                            x       y       z     vdW  Elec       q    Type
REMARK                         _______ _______ _______ _____ _____    ______ ____
ROOT
ATOM      1  O   UNL     1       3.953   7.535  17.629  0.00  0.00    +0.000 OA
ENDROOT
BRANCH   1   2
ATOM      2  P   UNL     1       4.209   5.945  17.940  0.00  0.00    +0.000 P 
ATOM      3  O   UNL     1       4.733   5.772  19.339  0.00  0.00    +0.000 OA
BRANCH   2   8
ATOM      4  C   UNL     1       6.498   4.737  16.959  0.00  0.00    +0.000 C 
ATOM      5  C   UNL     1       6.982   4.587  15.520  0.00  0.00    +0.000 C 
ATOM      6  C   UNL     1       5.749   4.109  14.776  0.00  0.00    +0.000 C 
ATOM      7  C   UNL     1       4.575   4.543  15.654  0.00  0.00    +0.000 C 
ATOM      8  N   UNL     1       5.157   5.300  16.766  0.00  0.00    +0.000 NA
BRANCH   4   9
ATOM      9  C   UNL     1       7.463   5.614  17.734  0.00  0.00    +0.000 C 
ATOM     10  O   UNL     1       7.889   5.316  18.844  0.00  0.00    +0.000 OA
BRANCH   9  12
ATOM     11  C   UNL     1       7.428   7.948  17.542  0.00  0.00    +0.000 C 
ATOM     12  O   UNL     1       7.859   6.696  17.015  0.00  0.00    +0.000 OA
ENDBRANCH   9  12
ENDBRANCH   4   9
ENDBRANCH   2   8
BRANCH   2  13
ATOM     13  O   UNL     1       2.710   5.357  17.770  0.00  0.00    +0.000 OA
BRANCH  13  14
ATOM     14  C   UNL     1       2.143   4.354  18.515  0.00  0.00    +0.000 A 
ATOM     15  C   UNL     1       1.705   4.717  19.789  0.00  0.00    +0.000 A 
ATOM     16  C   UNL     1       1.076   3.774  20.619  0.00  0.00    +0.000 A 
ATOM     17  C   UNL     1       0.891   2.466  20.177  0.00  0.00    +0.000 A 
ATOM     18  C   UNL     1       1.313   2.113  18.897  0.00  0.00    +0.000 A 
ATOM     19  C   UNL     1       1.932   3.059  18.068  0.00  0.00    +0.000 A 
ENDBRANCH  13  14
ENDBRANCH   2  13
ENDBRANCH   1   2
BRANCH   1  20
ATOM     20  C   UNL     1       2.577   7.976  17.516  0.00  0.00    +0.000 C 
BRANCH  20  21
ATOM     21  C   UNL     1       2.216   9.084  18.547  0.00  0.00    +0.000 C 
ATOM     22  C   UNL     1       2.219  10.460  17.953  0.00  0.00    +0.000 C 
ATOM     23  C   UNL     1       1.093  11.144  18.182  0.00  0.00    +0.000 C 
ATOM     24  C   UNL     1       0.090  10.385  18.998  0.00  0.00    +0.000 C 
ATOM     25  C   UNL     1       0.787   9.003  19.182  0.00  0.00    +0.000 C 
BRANCH  24  26
ATOM     26  N   UNL     1      -1.240  10.403  18.401  0.00  0.00    +0.000 N 
ATOM     27  C   UNL     1      -1.628   9.784  17.238  0.00  0.00    +0.000 A 
ATOM     28  N   UNL     1      -2.862  10.085  16.893  0.00  0.00    +0.000 NA
ATOM     29  C   UNL     1      -3.302  10.958  17.874  0.00  0.00    +0.000 A 
ATOM     30  C   UNL     1      -4.516  11.659  18.052  0.00  0.00    +0.000 A 
ATOM     31  N   UNL     1      -5.600  11.590  17.181  0.00  0.00    +0.000 N 
ATOM     32  N   UNL     1      -4.631  12.486  19.115  0.00  0.00    +0.000 NA
ATOM     33  C   UNL     1      -3.588  12.585  19.966  0.00  0.00    +0.000 A 
ATOM     34  N   UNL     1      -2.388  11.965  19.896  0.00  0.00    +0.000 NA
ATOM     35  C   UNL     1      -2.312  11.162  18.821  0.00  0.00    +0.000 A 
ATOM     36  H   UNL     1      -5.351  11.280  16.250  0.00  0.00    +0.000 HD
ATOM     37  H   UNL     1      -6.191  12.407  17.259  0.00  0.00    +0.000 HD
ENDBRANCH  24  26
ENDBRANCH  20  21
ENDBRANCH   1  20
TORSDOF 9
ENDMDL
MODEL 6
REMARK VINA RESULT:      -8.2      1.829      2.870
REMARK  Name = 
REMARK  10 active torsions:
REMARK  status: ('A' for Active; 'I' for Inactive)
REMARK    1  A    between atoms: C_1  and  O_2
REMARK    2  A    between atoms: O_2  and  C_3
REMARK    3  A    between atoms: C_3  and  C_5
REMARK    4  A    between atoms: N_9  and  P_10
REMARK    5  A    between atoms: P_10  and  O_12
REMARK    6  A    between atoms: P_10  and  O_29
REMARK    7  A    between atoms: O_12  and  C_13
REMARK    8  A    between atoms: C_13  and  C_14
REMARK    9  A    between atoms: C_17  and  N_18
REMARK   10  A    between atoms: O_29  and  C_30
REMARK                            x       y       z     vdW  Elec       q    Type
REMARK                         _______ _______ _______ _____ _____    ______ ____
ROOT
ATOM      1  O   UNL     1       3.653   7.582  17.433  0.00  0.00    +0.000 OA
ENDROOT
BRANCH   1   2
ATOM      2  P   UNL     1       4.060   6.071  17.925  0.00  0.00    +0.000 P 
ATOM      3  O   UNL     1       4.490   6.098  19.365  0.00  0.00    +0.000 OA
BRANCH   2   8
ATOM      4  C   UNL     1       6.615   5.427  17.082  0.00  0.00    +0.000 C 
ATOM      5  C   UNL     1       7.108   4.997  15.703  0.00  0.00    +0.000 C 
ATOM      6  C   UNL     1       6.108   3.936  15.281  0.00  0.00    +0.000 C 
ATOM      7  C   UNL     1       4.865   4.220  16.123  0.00  0.00    +0.000 C 
ATOM      8  N   UNL     1       5.161   5.433  16.889  0.00  0.00    +0.000 NA
BRANCH   4   9
ATOM      9  C   UNL     1       7.226   6.765  17.448  0.00  0.00    +0.000 C 
ATOM     10  O   UNL     1       7.082   7.773  16.766  0.00  0.00    +0.000 OA
BRANCH   9  12
ATOM     11  C   UNL     1       7.872   5.443  19.271  0.00  0.00    +0.000 C 
ATOM     12  O   UNL     1       7.857   6.726  18.650  0.00  0.00    +0.000 OA
ENDBRANCH   9  12
ENDBRANCH   4   9
ENDBRANCH   2   8
BRANCH   2  13
ATOM     13  O   UNL     1       2.653   5.297  17.719  0.00  0.00    +0.000 OA
BRANCH  13  14
ATOM     14  C   UNL     1       2.079   4.411  18.596  0.00  0.00    +0.000 A 
ATOM     15  C   UNL     1       1.922   3.106  18.127  0.00  0.00    +0.000 A 
ATOM     16  C   UNL     1       1.379   2.113  18.959  0.00  0.00    +0.000 A 
ATOM     17  C   UNL     1       0.986   2.426  20.257  0.00  0.00    +0.000 A 
ATOM     18  C   UNL     1       1.161   3.725  20.728  0.00  0.00    +0.000 A 
ATOM     19  C   UNL     1       1.712   4.712  19.898  0.00  0.00    +0.000 A 
ENDBRANCH  13  14
ENDBRANCH   2  13
ENDBRANCH   1   2
BRANCH   1  20
ATOM     20  C   UNL     1       2.294   8.018  17.682  0.00  0.00    +0.000 C 
BRANCH  20  21
ATOM     21  C   UNL     1       2.215   9.178  18.717  0.00  0.00    +0.000 C 
ATOM     22  C   UNL     1       2.341  10.532  18.089  0.00  0.00    +0.000 C 
ATOM     23  C   UNL     1       1.358  11.373  18.425  0.00  0.00    +0.000 C 
ATOM     24  C   UNL     1       0.360  10.774  19.371  0.00  0.00    +0.000 C 
ATOM     25  C   UNL     1       0.873   9.308  19.513  0.00  0.00    +0.000 C 
BRANCH  24  26
ATOM     26  N   UNL     1      -1.014  10.975  18.929  0.00  0.00    +0.000 N 
ATOM     27  C   UNL     1      -1.542  10.644  17.706  0.00  0.00    +0.000 A 
ATOM     28  N   UNL     1      -2.783  11.061  17.560  0.00  0.00    +0.000 NA
ATOM     29  C   UNL     1      -3.079  11.712  18.747  0.00  0.00    +0.000 A 
ATOM     30  C   UNL     1      -4.227  12.403  19.193  0.00  0.00    +0.000 A 
ATOM     31  N   UNL     1      -5.388  12.570  18.442  0.00  0.00    +0.000 N 
ATOM     32  N   UNL     1      -4.197  12.978  20.416  0.00  0.00    +0.000 NA
ATOM     33  C   UNL     1      -3.077  12.846  21.158  0.00  0.00    +0.000 A 
ATOM     34  N   UNL     1      -1.927  12.212  20.836  0.00  0.00    +0.000 NA
ATOM     35  C   UNL     1      -1.997  11.663  19.610  0.00  0.00    +0.000 A 
ATOM     36  H   UNL     1      -5.243  12.464  17.445  0.00  0.00    +0.000 HD
ATOM     37  H   UNL     1      -5.919  13.372  18.754  0.00  0.00    +0.000 HD
ENDBRANCH  24  26
ENDBRANCH  20  21
ENDBRANCH   1  20
TORSDOF 9
ENDMDL
MODEL 7
REMARK VINA RESULT:      -8.2      1.092      1.133
REMARK  Name = 
REMARK  10 active torsions:
REMARK  status: ('A' for Active; 'I' for Inactive)
REMARK    1  A    between atoms: C_1  and  O_2
REMARK    2  A    between atoms: O_2  and  C_3
REMARK    3  A    between atoms: C_3  and  C_5
REMARK    4  A    between atoms: N_9  and  P_10
REMARK    5  A    between atoms: P_10  and  O_12
REMARK    6  A    between atoms: P_10  and  O_29
REMARK    7  A    between atoms: O_12  and  C_13
REMARK    8  A    between atoms: C_13  and  C_14
REMARK    9  A    between atoms: C_17  and  N_18
REMARK   10  A    between atoms: O_29  and  C_30
REMARK                            x       y       z     vdW  Elec       q    Type
REMARK                         _______ _______ _______ _____ _____    ______ ____
ROOT
ATOM      1  O   UNL     1       3.181   6.092  17.603  0.00  0.00    +0.000 OA
ENDROOT
BRANCH   1   2
ATOM      2  P   UNL     1       4.438   5.166  18.104  0.00  0.00    +0.000 P 
ATOM      3  O   UNL     1       5.008   5.719  19.381  0.00  0.00    +0.000 OA
BRANCH   2   8
ATOM      4  C   UNL     1       6.979   5.096  17.010  0.00  0.00    +0.000 C 
ATOM      5  C   UNL     1       7.415   5.165  15.550  0.00  0.00    +0.000 C 
ATOM      6  C   UNL     1       6.492   4.181  14.855  0.00  0.00    +0.000 C 
ATOM      7  C   UNL     1       5.288   4.054  15.788  0.00  0.00    +0.000 C 
ATOM      8  N   UNL     1       5.521   5.000  16.882  0.00  0.00    +0.000 NA
BRANCH   4   9
ATOM      9  C   UNL     1       7.486   6.317  17.752  0.00  0.00    +0.000 C 
ATOM     10  O   UNL     1       8.066   6.249  18.830  0.00  0.00    +0.000 OA
BRANCH   9  12
ATOM     11  C   UNL     1       7.808   8.636  17.669  0.00  0.00    +0.000 C 
ATOM     12  O   UNL     1       7.305   7.459  17.040  0.00  0.00    +0.000 OA
ENDBRANCH   9  12
ENDBRANCH   4   9
ENDBRANCH   2   8
BRANCH   2  13
ATOM     13  O   UNL     1       3.697   3.744  18.328  0.00  0.00    +0.000 OA
BRANCH  13  14
ATOM     14  C   UNL     1       2.853   3.424  19.362  0.00  0.00    +0.000 A 
ATOM     15  C   UNL     1       3.433   2.741  20.432  0.00  0.00    +0.000 A 
ATOM     16  C   UNL     1       2.664   2.399  21.556  0.00  0.00    +0.000 A 
ATOM     17  C   UNL     1       1.314   2.732  21.608  0.00  0.00    +0.000 A 
ATOM     18  C   UNL     1       0.742   3.430  20.547  0.00  0.00    +0.000 A 
ATOM     19  C   UNL     1       1.514   3.778  19.429  0.00  0.00    +0.000 A 
ENDBRANCH  13  14
ENDBRANCH   2  13
ENDBRANCH   1   2
BRANCH   1  20
ATOM     20  C   UNL     1       3.177   7.483  18.010  0.00  0.00    +0.000 C 
BRANCH  20  21
ATOM     21  C   UNL     1       1.761   7.984  18.420  0.00  0.00    +0.000 C 
ATOM     22  C   UNL     1       1.639   8.259  19.888  0.00  0.00    +0.000 C 
ATOM     23  C   UNL     1       1.162   9.476  20.167  0.00  0.00    +0.000 C 
ATOM     24  C   UNL     1       0.839  10.284  18.946  0.00  0.00    +0.000 C 
ATOM     25  C   UNL     1       1.298   9.342  17.792  0.00  0.00    +0.000 C 
BRANCH  24  26
ATOM     26  N   UNL     1       1.412  11.624  19.000  0.00  0.00    +0.000 N 
ATOM     27  C   UNL     1       2.423  12.118  18.215  0.00  0.00    +0.000 A 
ATOM     28  N   UNL     1       2.806  13.323  18.583  0.00  0.00    +0.000 NA
ATOM     29  C   UNL     1       2.011  13.630  19.675  0.00  0.00    +0.000 A 
ATOM     30  C   UNL     1       1.961  14.752  20.532  0.00  0.00    +0.000 A 
ATOM     31  N   UNL     1       2.787  15.867  20.419  0.00  0.00    +0.000 N 
ATOM     32  N   UNL     1       1.081  14.738  21.558  0.00  0.00    +0.000 NA
ATOM     33  C   UNL     1       0.279  13.661  21.700  0.00  0.00    +0.000 A 
ATOM     34  N   UNL     1       0.240  12.540  20.946  0.00  0.00    +0.000 NA
ATOM     35  C   UNL     1       1.136  12.591  19.944  0.00  0.00    +0.000 A 
ATOM     36  H   UNL     1       3.641  15.686  19.907  0.00  0.00    +0.000 HD
ATOM     37  H   UNL     1       2.864  16.361  21.298  0.00  0.00    +0.000 HD
ENDBRANCH  24  26
ENDBRANCH  20  21
ENDBRANCH   1  20
TORSDOF 9
ENDMDL
MODEL 8
REMARK VINA RESULT:      -8.2      0.794      1.196
REMARK  Name = 
REMARK  10 active torsions:
REMARK  status: ('A' for Active; 'I' for Inactive)
REMARK    1  A    between atoms: C_1  and  O_2
REMARK    2  A    between atoms: O_2  and  C_3
REMARK    3  A    between atoms: C_3  and  C_5
REMARK    4  A    between atoms: N_9  and  P_10
REMARK    5  A    between atoms: P_10  and  O_12
REMARK    6  A    between atoms: P_10  and  O_29
REMARK    7  A    between atoms: O_12  and  C_13
REMARK    8  A    between atoms: C_13  and  C_14
REMARK    9  A    between atoms: C_17  and  N_18
REMARK   10  A    between atoms: O_29  and  C_30
REMARK                            x       y       z     vdW  Elec       q    Type
REMARK                         _______ _______ _______ _____ _____    ______ ____
ROOT
ATOM      1  O   UNL     1       3.216   6.446  17.497  0.00  0.00    +0.000 OA
ENDROOT
BRANCH   1   2
ATOM      2  P   UNL     1       4.322   5.349  18.011  0.00  0.00    +0.000 P 
ATOM      3  O   UNL     1       4.903   5.783  19.328  0.00  0.00    +0.000 OA
BRANCH   2   8
ATOM      4  C   UNL     1       6.882   5.086  16.996  0.00  0.00    +0.000 C 
ATOM      5  C   UNL     1       7.363   5.091  15.547  0.00  0.00    +0.000 C 
ATOM      6  C   UNL     1       6.397   4.152  14.848  0.00  0.00    +0.000 C 
ATOM      7  C   UNL     1       5.162   4.127  15.748  0.00  0.00    +0.000 C 
ATOM      8  N   UNL     1       5.425   5.083  16.826  0.00  0.00    +0.000 NA
BRANCH   4   9
ATOM      9  C   UNL     1       7.447   6.290  17.724  0.00  0.00    +0.000 C 
ATOM     10  O   UNL     1       8.037   6.204  18.795  0.00  0.00    +0.000 OA
BRANCH   9  12
ATOM     11  C   UNL     1       7.863   8.593  17.622  0.00  0.00    +0.000 C 
ATOM     12  O   UNL     1       7.305   7.434  17.006  0.00  0.00    +0.000 OA
ENDBRANCH   9  12
ENDBRANCH   4   9
ENDBRANCH   2   8
BRANCH   2  13
ATOM     13  O   UNL     1       3.395   4.029  18.155  0.00  0.00    +0.000 OA
BRANCH  13  14
ATOM     14  C   UNL     1       2.777   3.593  19.300  0.00  0.00    +0.000 A 
ATOM     15  C   UNL     1       1.417   3.887  19.406  0.00  0.00    +0.000 A 
ATOM     16  C   UNL     1       0.681   3.453  20.521  0.00  0.00    +0.000 A 
ATOM     17  C   UNL     1       1.307   2.731  21.534  0.00  0.00    +0.000 A 
ATOM     18  C   UNL     1       2.660   2.423  21.416  0.00  0.00    +0.000 A 
ATOM     19  C   UNL     1       3.389   2.850  20.297  0.00  0.00    +0.000 A 
ENDBRANCH  13  14
ENDBRANCH   2  13
ENDBRANCH   1   2
BRANCH   1  20
ATOM     20  C   UNL     1       3.152   7.707  18.208  0.00  0.00    +0.000 C 
BRANCH  20  21
ATOM     21  C   UNL     1       1.694   8.126  18.556  0.00  0.00    +0.000 C 
ATOM     22  C   UNL     1       1.530   8.544  19.985  0.00  0.00    +0.000 C 
ATOM     23  C   UNL     1       0.947   9.739  20.130  0.00  0.00    +0.000 C 
ATOM     24  C   UNL     1       0.572  10.381  18.829  0.00  0.00    +0.000 C 
ATOM     25  C   UNL     1       1.124   9.363  17.784  0.00  0.00    +0.000 C 
BRANCH  24  26
ATOM     26  N   UNL     1       1.028  11.763  18.740  0.00  0.00    +0.000 N 
ATOM     27  C   UNL     1       2.256  12.198  18.305  0.00  0.00    +0.000 A 
ATOM     28  N   UNL     1       2.414  13.496  18.456  0.00  0.00    +0.000 NA
ATOM     29  C   UNL     1       1.233  13.934  19.032  0.00  0.00    +0.000 A 
ATOM     30  C   UNL     1       0.799  15.204  19.471  0.00  0.00    +0.000 A 
ATOM     31  N   UNL     1       1.562  16.367  19.392  0.00  0.00    +0.000 N 
ATOM     32  N   UNL     1      -0.422  15.306  20.041  0.00  0.00    +0.000 NA
ATOM     33  C   UNL     1      -1.175  14.191  20.145  0.00  0.00    +0.000 A 
ATOM     34  N   UNL     1      -0.866  12.931  19.762  0.00  0.00    +0.000 NA
ATOM     35  C   UNL     1       0.359  12.874  19.209  0.00  0.00    +0.000 A 
ATOM     36  H   UNL     1       2.557  16.193  19.318  0.00  0.00    +0.000 HD
ATOM     37  H   UNL     1       1.257  17.056  20.067  0.00  0.00    +0.000 HD
ENDBRANCH  24  26
ENDBRANCH  20  21
ENDBRANCH   1  20
TORSDOF 9
ENDMDL
MODEL 9
REMARK VINA RESULT:      -8.1      2.069      3.264
REMARK  Name = 
REMARK  10 active torsions:
REMARK  status: ('A' for Active; 'I' for Inactive)
REMARK    1  A    between atoms: C_1  and  O_2
REMARK    2  A    between atoms: O_2  and  C_3
REMARK    3  A    between atoms: C_3  and  C_5
REMARK    4  A    between atoms: N_9  and  P_10
REMARK    5  A    between atoms: P_10  and  O_12
REMARK    6  A    between atoms: P_10  and  O_29
REMARK    7  A    between atoms: O_12  and  C_13
REMARK    8  A    between atoms: C_13  and  C_14
REMARK    9  A    between atoms: C_17  and  N_18
REMARK   10  A    between atoms: O_29  and  C_30
REMARK                            x       y       z     vdW  Elec       q    Type
REMARK                         _______ _______ _______ _____ _____    ______ ____
ROOT
ATOM      1  O   UNL     1       3.309   7.709  17.330  0.00  0.00    +0.000 OA
ENDROOT
BRANCH   1   2
ATOM      2  P   UNL     1       3.791   6.248  17.900  0.00  0.00    +0.000 P 
ATOM      3  O   UNL     1       4.252   6.379  19.325  0.00  0.00    +0.000 OA
BRANCH   2   8
ATOM      4  C   UNL     1       6.347   5.570  17.086  0.00  0.00    +0.000 C 
ATOM      5  C   UNL     1       6.850   5.133  15.713  0.00  0.00    +0.000 C 
ATOM      6  C   UNL     1       5.841   4.085  15.280  0.00  0.00    +0.000 C 
ATOM      7  C   UNL     1       4.592   4.385  16.109  0.00  0.00    +0.000 C 
ATOM      8  N   UNL     1       4.895   5.595  16.877  0.00  0.00    +0.000 NA
BRANCH   4   9
ATOM      9  C   UNL     1       6.971   6.901  17.458  0.00  0.00    +0.000 C 
ATOM     10  O   UNL     1       6.625   7.963  16.954  0.00  0.00    +0.000 OA
BRANCH   9  12
ATOM     11  C   UNL     1       7.653   5.661  19.325  0.00  0.00    +0.000 C 
ATOM     12  O   UNL     1       7.872   6.778  18.467  0.00  0.00    +0.000 OA
ENDBRANCH   9  12
ENDBRANCH   4   9
ENDBRANCH   2   8
BRANCH   2  13
ATOM     13  O   UNL     1       2.415   5.405  17.775  0.00  0.00    +0.000 OA
BRANCH  13  14
ATOM     14  C   UNL     1       1.937   4.493  18.683  0.00  0.00    +0.000 A 
ATOM     15  C   UNL     1       1.785   3.188  18.211  0.00  0.00    +0.000 A 
ATOM     16  C   UNL     1       1.338   2.170  19.069  0.00  0.00    +0.000 A 
ATOM     17  C   UNL     1       1.036   2.458  20.398  0.00  0.00    +0.000 A 
ATOM     18  C   UNL     1       1.207   3.757  20.870  0.00  0.00    +0.000 A 
ATOM     19  C   UNL     1       1.662   4.769  20.013  0.00  0.00    +0.000 A 
ENDBRANCH  13  14
ENDBRANCH   2  13
ENDBRANCH   1   2
BRANCH   1  20
ATOM     20  C   UNL     1       1.988   8.168  17.712  0.00  0.00    +0.000 C 
BRANCH  20  21
ATOM     21  C   UNL     1       2.031   9.275  18.805  0.00  0.00    +0.000 C 
ATOM     22  C   UNL     1       2.252  10.646  18.241  0.00  0.00    +0.000 C 
ATOM     23  C   UNL     1       1.349  11.544  18.648  0.00  0.00    +0.000 C 
ATOM     24  C   UNL     1       0.330  10.979  19.591  0.00  0.00    +0.000 C 
ATOM     25  C   UNL     1       0.724   9.471  19.644  0.00  0.00    +0.000 C 
BRANCH  24  26
ATOM     26  N   UNL     1      -1.034  11.313  19.199  0.00  0.00    +0.000 N 
ATOM     27  C   UNL     1      -1.934  12.067  19.912  0.00  0.00    +0.000 A 
ATOM     28  N   UNL     1      -3.127  12.090  19.355  0.00  0.00    +0.000 NA
ATOM     29  C   UNL     1      -3.006  11.299  18.224  0.00  0.00    +0.000 A 
ATOM     30  C   UNL     1      -3.933  10.902  17.235  0.00  0.00    +0.000 A 
ATOM     31  N   UNL     1      -5.275  11.275  17.219  0.00  0.00    +0.000 N 
ATOM     32  N   UNL     1      -3.512  10.073  16.254  0.00  0.00    +0.000 NA
ATOM     33  C   UNL     1      -2.220   9.682  16.257  0.00  0.00    +0.000 A 
ATOM     34  N   UNL     1      -1.250   9.997  17.145  0.00  0.00    +0.000 NA
ATOM     35  C   UNL     1      -1.714  10.814  18.108  0.00  0.00    +0.000 A 
ATOM     36  H   UNL     1      -5.625  11.564  18.123  0.00  0.00    +0.000 HD
ATOM     37  H   UNL     1      -5.834  10.621  16.687  0.00  0.00    +0.000 HD
ENDBRANCH  24  26
ENDBRANCH  20  21
ENDBRANCH   1  20
TORSDOF 9
ENDMDL
