MODEL 1
REMARK VINA RESULT:      -9.0      0.000      0.000
REMARK  Name = 
REMARK  4 active torsions:
REMARK  status: ('A' for Active; 'I' for Inactive)
REMARK    1  A    between atoms: C_2  and  C_11
REMARK    2  A    between atoms: N_3  and  C_4
REMARK    3  A    between atoms: N_15  and  S_16
REMARK    4  A    between atoms: S_16  and  C_19
REMARK                            x       y       z     vdW  Elec       q    Type
REMARK                         _______ _______ _______ _____ _____    ______ ____
ROOT
ATOM      1  C   UNL     1       1.826   4.393  18.771  0.00  0.00    +0.000 C 
ATOM      2  C   UNL     1       1.051   4.025  20.034  0.00  0.00    +0.000 C 
ATOM      3  C   UNL     1       0.985   2.518  19.959  0.00  0.00    +0.000 C 
ATOM      4  C   UNL     1       2.292   2.104  19.293  0.00  0.00    +0.000 C 
ATOM      5  N   UNL     1       2.904   3.335  18.694  0.00  0.00    +0.000 NA
ENDROOT
BRANCH   1   7
ATOM      6  O   UNL     1       2.816   6.404  17.858  0.00  0.00    +0.000 OA
ATOM      7  C   UNL     1       2.131   5.889  18.739  0.00  0.00    +0.000 C 
ATOM      8  N   UNL     1       1.704   6.585  19.856  0.00  0.00    +0.000 N 
ATOM      9  H   UNL     1       0.874   6.220  20.312  0.00  0.00    +0.000 HD
BRANCH   8  10
ATOM     10  C   UNL     1       1.957   8.024  19.972  0.00  0.00    +0.000 C 
ATOM     11  C   UNL     1       1.977   8.675  18.581  0.00  0.00    +0.000 C 
ATOM     12  C   UNL     1       0.711   9.415  18.161  0.00  0.00    +0.000 C 
ATOM     13  C   UNL     1       0.645  10.831  18.726  0.00  0.00    +0.000 C 
ATOM     14  C   UNL     1       0.239  10.924  20.192  0.00  0.00    +0.000 C 
ATOM     15  C   UNL     1       1.117  10.147  21.170  0.00  0.00    +0.000 C 
ATOM     16  C   UNL     1       1.012   8.632  21.016  0.00  0.00    +0.000 C 
ENDBRANCH   8  10
ENDBRANCH   1   7
BRANCH   5  17
ATOM     17  S   UNL     1       4.422   3.802  19.334  0.00  0.00    +0.000 S 
ATOM     18  O   UNL     1       4.202   5.013  20.097  0.00  0.00    +0.000 OA
ATOM     19  O   UNL     1       5.025   2.631  19.925  0.00  0.00    +0.000 OA
BRANCH  17  20
ATOM     20  C   UNL     1       5.415   4.263  17.923  0.00  0.00    +0.000 A 
ATOM     21  C   UNL     1       6.619   4.955  18.124  0.00  0.00    +0.000 A 
ATOM     22  C   UNL     1       7.405   5.322  17.027  0.00  0.00    +0.000 A 
ATOM     23  C   UNL     1       6.993   5.000  15.736  0.00  0.00    +0.000 A 
ATOM     24  C   UNL     1       5.773   4.344  15.537  0.00  0.00    +0.000 A 
ATOM     25  C   UNL     1       4.968   3.989  16.626  0.00  0.00    +0.000 A 
ATOM     26  O   UNL     1       5.312   4.013  14.289  0.00  0.00    +0.000 OA
ATOM     27  C   UNL     1       6.403   3.887  13.370  0.00  0.00    +0.000 C 
ATOM     28  C   UNL     1       7.318   5.101  13.418  0.00  0.00    +0.000 C 
ATOM     29  O   UNL     1       7.854   5.334  14.724  0.00  0.00    +0.000 OA
ENDBRANCH  17  20
ENDBRANCH   5  17
TORSDOF 4
ENDMDL
MODEL 2
REMARK VINA RESULT:      -8.5      1.078      1.321
REMARK  Name = 
REMARK  4 active torsions:
REMARK  status: ('A' for Active; 'I' for Inactive)
REMARK    1  A    between atoms: C_2  and  C_11
REMARK    2  A    between atoms: N_3  and  C_4
REMARK    3  A    between atoms: N_15  and  S_16
REMARK    4  A    between atoms: S_16  and  C_19
REMARK                            x       y       z     vdW  Elec       q    Type
REMARK                         _______ _______ _______ _____ _____    ______ ____
ROOT
ATOM      1  C   UNL     1       2.079   4.211  19.104  0.00  0.00    +0.000 C 
ATOM      2  C   UNL     1       1.983   2.936  19.940  0.00  0.00    +0.000 C 
ATOM      3  C   UNL     1       2.093   1.846  18.901  0.00  0.00    +0.000 C 
ATOM      4  C   UNL     1       3.027   2.414  17.839  0.00  0.00    +0.000 C 
ATOM      5  N   UNL     1       3.148   3.888  18.085  0.00  0.00    +0.000 NA
ENDROOT
BRANCH   1   7
ATOM      6  O   UNL     1       2.277   5.368  21.221  0.00  0.00    +0.000 OA
ATOM      7  C   UNL     1       2.137   5.445  20.002  0.00  0.00    +0.000 C 
ATOM      8  N   UNL     1       1.870   6.638  19.355  0.00  0.00    +0.000 N 
ATOM      9  H   UNL     1       2.138   6.679  18.376  0.00  0.00    +0.000 HD
BRANCH   8  10
ATOM     10  C   UNL     1       1.863   7.900  20.102  0.00  0.00    +0.000 C 
ATOM     11  C   UNL     1       1.949   9.091  19.137  0.00  0.00    +0.000 C 
ATOM     12  C   UNL     1       0.640   9.814  18.836  0.00  0.00    +0.000 C 
ATOM     13  C   UNL     1       0.269  10.828  19.916  0.00  0.00    +0.000 C 
ATOM     14  C   UNL     1      -0.328  10.232  21.185  0.00  0.00    +0.000 C 
ATOM     15  C   UNL     1       0.538   9.194  21.895  0.00  0.00    +0.000 C 
ATOM     16  C   UNL     1       0.706   7.895  21.110  0.00  0.00    +0.000 C 
ENDBRANCH   8  10
ENDBRANCH   1   7
BRANCH   5  17
ATOM     17  S   UNL     1       4.717   4.452  18.479  0.00  0.00    +0.000 S 
ATOM     18  O   UNL     1       4.564   5.802  18.982  0.00  0.00    +0.000 OA
ATOM     19  O   UNL     1       5.369   3.423  19.252  0.00  0.00    +0.000 OA
BRANCH  17  20
ATOM     20  C   UNL     1       5.583   4.585  16.921  0.00  0.00    +0.000 A 
ATOM     21  C   UNL     1       6.854   5.177  16.889  0.00  0.00    +0.000 A 
ATOM     22  C   UNL     1       7.541   5.287  15.676  0.00  0.00    +0.000 A 
ATOM     23  C   UNL     1       6.964   4.809  14.502  0.00  0.00    +0.000 A 
ATOM     24  C   UNL     1       5.680   4.254  14.533  0.00  0.00    +0.000 A 
ATOM     25  C   UNL     1       4.973   4.157  15.738  0.00  0.00    +0.000 A 
ATOM     26  O   UNL     1       5.058   3.779  13.407  0.00  0.00    +0.000 OA
ATOM     27  C   UNL     1       6.025   3.403  12.421  0.00  0.00    +0.000 C 
ATOM     28  C   UNL     1       7.038   4.512  12.180  0.00  0.00    +0.000 C 
ATOM     29  O   UNL     1       7.733   4.893  13.371  0.00  0.00    +0.000 OA
ENDBRANCH  17  20
ENDBRANCH   5  17
TORSDOF 4
ENDMDL
MODEL 3
REMARK VINA RESULT:      -8.2      2.063      7.401
REMARK  Name = 
REMARK  4 active torsions:
REMARK  status: ('A' for Active; 'I' for Inactive)
REMARK    1  A    between atoms: C_2  and  C_11
REMARK    2  A    between atoms: N_3  and  C_4
REMARK    3  A    between atoms: N_15  and  S_16
REMARK    4  A    between atoms: S_16  and  C_19
REMARK                            x       y       z     vdW  Elec       q    Type
REMARK                         _______ _______ _______ _____ _____    ______ ____
ROOT
ATOM      1  C   UNL     1       2.899   3.478  20.051  0.00  0.00    +0.000 C 
ATOM      2  C   UNL     1       1.755   2.780  19.319  0.00  0.00    +0.000 C 
ATOM      3  C   UNL     1       0.535   3.257  20.072  0.00  0.00    +0.000 C 
ATOM      4  C   UNL     1       0.878   4.677  20.506  0.00  0.00    +0.000 C 
ATOM      5  N   UNL     1       2.354   4.862  20.323  0.00  0.00    +0.000 NA
ENDROOT
BRANCH   1   7
ATOM      6  O   UNL     1       5.224   2.819  19.922  0.00  0.00    +0.000 OA
ATOM      7  C   UNL     1       4.227   3.236  19.337  0.00  0.00    +0.000 C 
ATOM      8  N   UNL     1       4.257   3.666  18.022  0.00  0.00    +0.000 N 
ATOM      9  H   UNL     1       3.372   3.631  17.526  0.00  0.00    +0.000 HD
BRANCH   8  10
ATOM     10  C   UNL     1       5.479   3.523  17.225  0.00  0.00    +0.000 C 
ATOM     11  C   UNL     1       5.128   3.208  15.763  0.00  0.00    +0.000 C 
ATOM     12  C   UNL     1       5.196   4.376  14.784  0.00  0.00    +0.000 C 
ATOM     13  C   UNL     1       6.617   4.646  14.293  0.00  0.00    +0.000 C 
ATOM     14  C   UNL     1       7.510   5.392  15.278  0.00  0.00    +0.000 C 
ATOM     15  C   UNL     1       7.681   4.731  16.643  0.00  0.00    +0.000 C 
ATOM     16  C   UNL     1       6.405   4.718  17.482  0.00  0.00    +0.000 C 
ENDBRANCH   8  10
ENDBRANCH   1   7
BRANCH   5  17
ATOM     17  S   UNL     1       2.822   6.059  19.190  0.00  0.00    +0.000 S 
ATOM     18  O   UNL     1       4.235   6.302  19.394  0.00  0.00    +0.000 OA
ATOM     19  O   UNL     1       2.296   5.670  17.904  0.00  0.00    +0.000 OA
BRANCH  17  20
ATOM     20  C   UNL     1       1.972   7.549  19.690  0.00  0.00    +0.000 A 
ATOM     21  C   UNL     1       1.693   8.536  18.733  0.00  0.00    +0.000 A 
ATOM     22  C   UNL     1       1.028   9.706  19.112  0.00  0.00    +0.000 A 
ATOM     23  C   UNL     1       0.644   9.891  20.438  0.00  0.00    +0.000 A 
ATOM     24  C   UNL     1       0.959   8.922  21.396  0.00  0.00    +0.000 A 
ATOM     25  C   UNL     1       1.642   7.755  21.033  0.00  0.00    +0.000 A 
ATOM     26  O   UNL     1       0.617   9.057  22.717  0.00  0.00    +0.000 OA
ATOM     27  C   UNL     1      -0.513   9.924  22.856  0.00  0.00    +0.000 C 
ATOM     28  C   UNL     1      -0.310  11.232  22.106  0.00  0.00    +0.000 C 
ATOM     29  O   UNL     1      -0.062  11.034  20.711  0.00  0.00    +0.000 OA
ENDBRANCH  17  20
ENDBRANCH   5  17
TORSDOF 4
ENDMDL
MODEL 4
REMARK VINA RESULT:      -8.0      1.896      7.152
REMARK  Name = 
REMARK  4 active torsions:
REMARK  status: ('A' for Active; 'I' for Inactive)
REMARK    1  A    between atoms: C_2  and  C_11
REMARK    2  A    between atoms: N_3  and  C_4
REMARK    3  A    between atoms: N_15  and  S_16
REMARK    4  A    between atoms: S_16  and  C_19
REMARK                            x       y       z     vdW  Elec       q    Type
REMARK                         _______ _______ _______ _____ _____    ______ ____
ROOT
ATOM      1  C   UNL     1       2.891   3.383  19.951  0.00  0.00    +0.000 C 
ATOM      2  C   UNL     1       1.772   2.706  19.162  0.00  0.00    +0.000 C 
ATOM      3  C   UNL     1       0.531   3.135  19.907  0.00  0.00    +0.000 C 
ATOM      4  C   UNL     1       0.847   4.538  20.412  0.00  0.00    +0.000 C 
ATOM      5  N   UNL     1       2.325   4.748  20.272  0.00  0.00    +0.000 NA
ENDROOT
BRANCH   1   7
ATOM      6  O   UNL     1       5.247   2.834  19.863  0.00  0.00    +0.000 OA
ATOM      7  C   UNL     1       4.238   3.188  19.257  0.00  0.00    +0.000 C 
ATOM      8  N   UNL     1       4.264   3.587  17.932  0.00  0.00    +0.000 N 
ATOM      9  H   UNL     1       3.387   3.498  17.428  0.00  0.00    +0.000 HD
BRANCH   8  10
ATOM     10  C   UNL     1       5.501   3.483  17.153  0.00  0.00    +0.000 C 
ATOM     11  C   UNL     1       5.179   3.202  15.677  0.00  0.00    +0.000 C 
ATOM     12  C   UNL     1       5.245   4.397  14.731  0.00  0.00    +0.000 C 
ATOM     13  C   UNL     1       6.668   4.702  14.271  0.00  0.00    +0.000 C 
ATOM     14  C   UNL     1       7.534   5.434  15.290  0.00  0.00    +0.000 C 
ATOM     15  C   UNL     1       7.693   4.739  16.640  0.00  0.00    +0.000 C 
ATOM     16  C   UNL     1       6.404   4.685  17.457  0.00  0.00    +0.000 C 
ENDBRANCH   8  10
ENDBRANCH   1   7
BRANCH   5  17
ATOM     17  S   UNL     1       2.803   5.999  19.204  0.00  0.00    +0.000 S 
ATOM     18  O   UNL     1       4.223   6.205  19.407  0.00  0.00    +0.000 OA
ATOM     19  O   UNL     1       2.259   5.693  17.903  0.00  0.00    +0.000 OA
BRANCH  17  20
ATOM     20  C   UNL     1       1.985   7.473  19.797  0.00  0.00    +0.000 A 
ATOM     21  C   UNL     1       1.593   7.549  21.141  0.00  0.00    +0.000 A 
ATOM     22  C   UNL     1       0.953   8.697  21.617  0.00  0.00    +0.000 A 
ATOM     23  C   UNL     1       0.705   9.764  20.756  0.00  0.00    +0.000 A 
ATOM     24  C   UNL     1       1.062   9.668  19.408  0.00  0.00    +0.000 A 
ATOM     25  C   UNL     1       1.686   8.516  18.915  0.00  0.00    +0.000 A 
ATOM     26  O   UNL     1       0.832  10.682  18.513  0.00  0.00    +0.000 OA
ATOM     27  C   UNL     1       0.751  11.940  19.191  0.00  0.00    +0.000 C 
ATOM     28  C   UNL     1      -0.216  11.882  20.364  0.00  0.00    +0.000 C 
ATOM     29  O   UNL     1       0.136  10.877  21.319  0.00  0.00    +0.000 OA
ENDBRANCH  17  20
ENDBRANCH   5  17
TORSDOF 4
ENDMDL
MODEL 5
REMARK VINA RESULT:      -8.0      5.887     10.962
REMARK  Name = 
REMARK  4 active torsions:
REMARK  status: ('A' for Active; 'I' for Inactive)
REMARK    1  A    between atoms: C_2  and  C_11
REMARK    2  A    between atoms: N_3  and  C_4
REMARK    3  A    between atoms: N_15  and  S_16
REMARK    4  A    between atoms: S_16  and  C_19
REMARK                            x       y       z     vdW  Elec       q    Type
REMARK                         _______ _______ _______ _____ _____    ______ ____
ROOT
ATOM      1  C   UNL     1       0.781  13.446  18.724  0.00  0.00    +0.000 C 
ATOM      2  C   UNL     1       2.231  13.482  18.244  0.00  0.00    +0.000 C 
ATOM      3  C   UNL     1       2.578  14.949  18.339  0.00  0.00    +0.000 C 
ATOM      4  C   UNL     1       1.787  15.459  19.538  0.00  0.00    +0.000 C 
ATOM      5  N   UNL     1       0.765  14.418  19.882  0.00  0.00    +0.000 NA
ENDROOT
BRANCH   1   7
ATOM      6  O   UNL     1      -0.890  11.730  19.071  0.00  0.00    +0.000 OA
ATOM      7  C   UNL     1       0.286  12.006  18.844  0.00  0.00    +0.000 C 
ATOM      8  N   UNL     1       1.288  11.052  18.828  0.00  0.00    +0.000 N 
ATOM      9  H   UNL     1       2.113  11.288  18.285  0.00  0.00    +0.000 HD
BRANCH   8  10
ATOM     10  C   UNL     1       0.957   9.630  18.964  0.00  0.00    +0.000 C 
ATOM     11  C   UNL     1       1.447   8.850  17.735  0.00  0.00    +0.000 C 
ATOM     12  C   UNL     1       2.750   8.073  17.900  0.00  0.00    +0.000 C 
ATOM     13  C   UNL     1       2.542   6.717  18.570  0.00  0.00    +0.000 C 
ATOM     14  C   UNL     1       2.353   6.765  20.082  0.00  0.00    +0.000 C 
ATOM     15  C   UNL     1       1.198   7.632  20.575  0.00  0.00    +0.000 C 
ATOM     16  C   UNL     1       1.409   9.126  20.340  0.00  0.00    +0.000 C 
ENDBRANCH   8  10
ENDBRANCH   1   7
BRANCH   5  17
ATOM     17  S   UNL     1       0.922  13.700  21.430  0.00  0.00    +0.000 S 
ATOM     18  O   UNL     1       1.612  12.440  21.241  0.00  0.00    +0.000 OA
ATOM     19  O   UNL     1       1.421  14.710  22.331  0.00  0.00    +0.000 OA
BRANCH  17  20
ATOM     20  C   UNL     1      -0.742  13.297  21.941  0.00  0.00    +0.000 A 
ATOM     21  C   UNL     1      -0.963  12.154  22.724  0.00  0.00    +0.000 A 
ATOM     22  C   UNL     1      -2.261  11.828  23.130  0.00  0.00    +0.000 A 
ATOM     23  C   UNL     1      -3.332  12.638  22.759  0.00  0.00    +0.000 A 
ATOM     24  C   UNL     1      -3.111  13.755  21.946  0.00  0.00    +0.000 A 
ATOM     25  C   UNL     1      -1.819  14.080  21.516  0.00  0.00    +0.000 A 
ATOM     26  O   UNL     1      -4.128  14.580  21.540  0.00  0.00    +0.000 OA
ATOM     27  C   UNL     1      -5.225  14.511  22.457  0.00  0.00    +0.000 C 
ATOM     28  C   UNL     1      -5.634  13.072  22.733  0.00  0.00    +0.000 C 
ATOM     29  O   UNL     1      -4.559  12.286  23.256  0.00  0.00    +0.000 OA
ENDBRANCH  17  20
ENDBRANCH   5  17
TORSDOF 4
ENDMDL
MODEL 6
REMARK VINA RESULT:      -7.8      2.217      6.448
REMARK  Name = 
REMARK  4 active torsions:
REMARK  status: ('A' for Active; 'I' for Inactive)
REMARK    1  A    between atoms: C_2  and  C_11
REMARK    2  A    between atoms: N_3  and  C_4
REMARK    3  A    between atoms: N_15  and  S_16
REMARK    4  A    between atoms: S_16  and  C_19
REMARK                            x       y       z     vdW  Elec       q    Type
REMARK                         _______ _______ _______ _____ _____    ______ ____
ROOT
ATOM      1  C   UNL     1       4.621   4.311  15.718  0.00  0.00    +0.000 C 
ATOM      2  C   UNL     1       5.722   3.308  15.377  0.00  0.00    +0.000 C 
ATOM      3  C   UNL     1       6.630   4.104  14.470  0.00  0.00    +0.000 C 
ATOM      4  C   UNL     1       6.548   5.533  14.995  0.00  0.00    +0.000 C 
ATOM      5  N   UNL     1       5.372   5.607  15.922  0.00  0.00    +0.000 NA
ENDROOT
BRANCH   1   7
ATOM      6  O   UNL     1       2.609   4.282  17.062  0.00  0.00    +0.000 OA
ATOM      7  C   UNL     1       3.667   3.734  16.761  0.00  0.00    +0.000 C 
ATOM      8  N   UNL     1       4.158   2.633  17.441  0.00  0.00    +0.000 N 
ATOM      9  H   UNL     1       4.798   2.042  16.919  0.00  0.00    +0.000 HD
BRANCH   8  10
ATOM     10  C   UNL     1       3.358   1.995  18.491  0.00  0.00    +0.000 C 
ATOM     11  C   UNL     1       4.079   2.092  19.843  0.00  0.00    +0.000 C 
ATOM     12  C   UNL     1       3.591   3.180  20.795  0.00  0.00    +0.000 C 
ATOM     13  C   UNL     1       2.355   2.756  21.584  0.00  0.00    +0.000 C 
ATOM     14  C   UNL     1       1.043   2.815  20.810  0.00  0.00    +0.000 C 
ATOM     15  C   UNL     1       0.997   1.989  19.527  0.00  0.00    +0.000 C 
ATOM     16  C   UNL     1       1.916   2.515  18.427  0.00  0.00    +0.000 C 
ENDBRANCH   8  10
ENDBRANCH   1   7
BRANCH   5  17
ATOM     17  S   UNL     1       5.731   5.985  17.554  0.00  0.00    +0.000 S 
ATOM     18  O   UNL     1       5.851   4.725  18.260  0.00  0.00    +0.000 OA
ATOM     19  O   UNL     1       6.796   6.958  17.553  0.00  0.00    +0.000 OA
BRANCH  17  20
ATOM     20  C   UNL     1       4.268   6.788  18.192  0.00  0.00    +0.000 A 
ATOM     21  C   UNL     1       3.636   6.264  19.329  0.00  0.00    +0.000 A 
ATOM     22  C   UNL     1       2.490   6.884  19.838  0.00  0.00    +0.000 A 
ATOM     23  C   UNL     1       1.979   8.022  19.216  0.00  0.00    +0.000 A 
ATOM     24  C   UNL     1       2.591   8.518  18.060  0.00  0.00    +0.000 A 
ATOM     25  C   UNL     1       3.726   7.895  17.530  0.00  0.00    +0.000 A 
ATOM     26  O   UNL     1       2.124   9.626  17.401  0.00  0.00    +0.000 OA
ATOM     27  C   UNL     1       1.390  10.469  18.295  0.00  0.00    +0.000 C 
ATOM     28  C   UNL     1       0.337   9.685  19.064  0.00  0.00    +0.000 C 
ATOM     29  O   UNL     1       0.896   8.606  19.819  0.00  0.00    +0.000 OA
ENDBRANCH  17  20
ENDBRANCH   5  17
TORSDOF 4
ENDMDL
MODEL 7
REMARK VINA RESULT:      -7.7      2.147      6.470
REMARK  Name = 
REMARK  4 active torsions:
REMARK  status: ('A' for Active; 'I' for Inactive)
REMARK    1  A    between atoms: C_2  and  C_11
REMARK    2  A    between atoms: N_3  and  C_4
REMARK    3  A    between atoms: N_15  and  S_16
REMARK    4  A    between atoms: S_16  and  C_19
REMARK                            x       y       z     vdW  Elec       q    Type
REMARK                         _______ _______ _______ _____ _____    ______ ____
ROOT
ATOM      1  C   UNL     1       3.797   3.445  19.647  0.00  0.00    +0.000 C 
ATOM      2  C   UNL     1       4.069   2.082  19.013  0.00  0.00    +0.000 C 
ATOM      3  C   UNL     1       2.771   1.344  19.238  0.00  0.00    +0.000 C 
ATOM      4  C   UNL     1       1.693   2.418  19.152  0.00  0.00    +0.000 C 
ATOM      5  N   UNL     1       2.374   3.751  19.237  0.00  0.00    +0.000 NA
ENDROOT
BRANCH   1   7
ATOM      6  O   UNL     1       4.968   5.556  19.816  0.00  0.00    +0.000 OA
ATOM      7  C   UNL     1       4.957   4.404  19.389  0.00  0.00    +0.000 C 
ATOM      8  N   UNL     1       5.916   3.922  18.515  0.00  0.00    +0.000 N 
ATOM      9  H   UNL     1       6.048   2.915  18.516  0.00  0.00    +0.000 HD
BRANCH   8  10
ATOM     10  C   UNL     1       7.071   4.750  18.155  0.00  0.00    +0.000 C 
ATOM     11  C   UNL     1       6.819   5.463  16.818  0.00  0.00    +0.000 C 
ATOM     12  C   UNL     1       6.397   6.927  16.900  0.00  0.00    +0.000 C 
ATOM     13  C   UNL     1       7.585   7.869  17.078  0.00  0.00    +0.000 C 
ATOM     14  C   UNL     1       8.154   7.932  18.490  0.00  0.00    +0.000 C 
ATOM     15  C   UNL     1       8.614   6.599  19.075  0.00  0.00    +0.000 C 
ATOM     16  C   UNL     1       7.472   5.624  19.350  0.00  0.00    +0.000 C 
ENDBRANCH   8  10
ENDBRANCH   1   7
BRANCH   5  17
ATOM     17  S   UNL     1       2.219   4.757  17.859  0.00  0.00    +0.000 S 
ATOM     18  O   UNL     1       3.513   4.778  17.207  0.00  0.00    +0.000 OA
ATOM     19  O   UNL     1       1.023   4.357  17.159  0.00  0.00    +0.000 OA
BRANCH  17  20
ATOM     20  C   UNL     1       1.945   6.403  18.498  0.00  0.00    +0.000 A 
ATOM     21  C   UNL     1       2.028   7.501  17.629  0.00  0.00    +0.000 A 
ATOM     22  C   UNL     1       1.815   8.794  18.117  0.00  0.00    +0.000 A 
ATOM     23  C   UNL     1       1.520   8.991  19.464  0.00  0.00    +0.000 A 
ATOM     24  C   UNL     1       1.477   7.896  20.335  0.00  0.00    +0.000 A 
ATOM     25  C   UNL     1       1.708   6.599  19.862  0.00  0.00    +0.000 A 
ATOM     26  O   UNL     1       1.204   8.032  21.672  0.00  0.00    +0.000 OA
ATOM     27  C   UNL     1       0.448   9.224  21.910  0.00  0.00    +0.000 C 
ATOM     28  C   UNL     1       1.096  10.437  21.258  0.00  0.00    +0.000 C 
ATOM     29  O   UNL     1       1.258  10.281  19.845  0.00  0.00    +0.000 OA
ENDBRANCH  17  20
ENDBRANCH   5  17
TORSDOF 4
ENDMDL
MODEL 8
REMARK VINA RESULT:      -7.7      2.140      6.223
REMARK  Name = 
REMARK  4 active torsions:
REMARK  status: ('A' for Active; 'I' for Inactive)
REMARK    1  A    between atoms: C_2  and  C_11
REMARK    2  A    between atoms: N_3  and  C_4
REMARK    3  A    between atoms: N_15  and  S_16
REMARK    4  A    between atoms: S_16  and  C_19
REMARK                            x       y       z     vdW  Elec       q    Type
REMARK                         _______ _______ _______ _____ _____    ______ ____
ROOT
ATOM      1  C   UNL     1       3.845   3.364  19.565  0.00  0.00    +0.000 C 
ATOM      2  C   UNL     1       4.117   2.039  18.855  0.00  0.00    +0.000 C 
ATOM      3  C   UNL     1       2.825   1.282  19.055  0.00  0.00    +0.000 C 
ATOM      4  C   UNL     1       1.741   2.354  19.040  0.00  0.00    +0.000 C 
ATOM      5  N   UNL     1       2.416   3.684  19.188  0.00  0.00    +0.000 NA
ENDROOT
BRANCH   1   7
ATOM      6  O   UNL     1       5.003   5.474  19.823  0.00  0.00    +0.000 OA
ATOM      7  C   UNL     1       4.998   4.342  19.345  0.00  0.00    +0.000 C 
ATOM      8  N   UNL     1       5.956   3.907  18.446  0.00  0.00    +0.000 N 
ATOM      9  H   UNL     1       6.094   2.902  18.401  0.00  0.00    +0.000 HD
BRANCH   8  10
ATOM     10  C   UNL     1       7.103   4.758  18.118  0.00  0.00    +0.000 C 
ATOM     11  C   UNL     1       6.864   5.485  16.786  0.00  0.00    +0.000 C 
ATOM     12  C   UNL     1       6.417   6.941  16.880  0.00  0.00    +0.000 C 
ATOM     13  C   UNL     1       7.585   7.900  17.093  0.00  0.00    +0.000 C 
ATOM     14  C   UNL     1       8.128   7.953  18.516  0.00  0.00    +0.000 C 
ATOM     15  C   UNL     1       8.599   6.619  19.092  0.00  0.00    +0.000 C 
ATOM     16  C   UNL     1       7.467   5.622  19.332  0.00  0.00    +0.000 C 
ENDBRANCH   8  10
ENDBRANCH   1   7
BRANCH   5  17
ATOM     17  S   UNL     1       2.240   4.762  17.868  0.00  0.00    +0.000 S 
ATOM     18  O   UNL     1       3.527   4.828  17.205  0.00  0.00    +0.000 OA
ATOM     19  O   UNL     1       1.040   4.391  17.159  0.00  0.00    +0.000 OA
BRANCH  17  20
ATOM     20  C   UNL     1       1.960   6.369  18.597  0.00  0.00    +0.000 A 
ATOM     21  C   UNL     1       1.746   6.470  19.979  0.00  0.00    +0.000 A 
ATOM     22  C   UNL     1       1.526   7.722  20.561  0.00  0.00    +0.000 A 
ATOM     23  C   UNL     1       1.520   8.867  19.769  0.00  0.00    +0.000 A 
ATOM     24  C   UNL     1       1.696   8.758  18.385  0.00  0.00    +0.000 A 
ATOM     25  C   UNL     1       1.897   7.508  17.788  0.00  0.00    +0.000 A 
ATOM     26  O   UNL     1       1.687   9.850  17.555  0.00  0.00    +0.000 OA
ATOM     27  C   UNL     1       2.051  11.031  18.277  0.00  0.00    +0.000 C 
ATOM     28  C   UNL     1       1.234  11.182  19.551  0.00  0.00    +0.000 C 
ATOM     29  O   UNL     1       1.366  10.059  20.428  0.00  0.00    +0.000 OA
ENDBRANCH  17  20
ENDBRANCH   5  17
TORSDOF 4
ENDMDL
MODEL 9
REMARK VINA RESULT:      -7.6      4.658      7.475
REMARK  Name = 
REMARK  4 active torsions:
REMARK  status: ('A' for Active; 'I' for Inactive)
REMARK    1  A    between atoms: C_2  and  C_11
REMARK    2  A    between atoms: N_3  and  C_4
REMARK    3  A    between atoms: N_15  and  S_16
REMARK    4  A    between atoms: S_16  and  C_19
REMARK                            x       y       z     vdW  Elec       q    Type
REMARK                         _______ _______ _______ _____ _____    ______ ____
ROOT
ATOM      1  C   UNL     1      -1.669  11.914  18.528  0.00  0.00    +0.000 C 
ATOM      2  C   UNL     1      -2.790  10.892  18.350  0.00  0.00    +0.000 C 
ATOM      3  C   UNL     1      -2.294  10.050  17.199  0.00  0.00    +0.000 C 
ATOM      4  C   UNL     1      -0.778  10.026  17.359  0.00  0.00    +0.000 C 
ATOM      5  N   UNL     1      -0.410  11.099  18.339  0.00  0.00    +0.000 NA
ENDROOT
BRANCH   1   7
ATOM      6  O   UNL     1      -1.170  13.703  20.081  0.00  0.00    +0.000 OA
ATOM      7  C   UNL     1      -1.917  12.781  19.762  0.00  0.00    +0.000 C 
ATOM      8  N   UNL     1      -2.957  12.349  20.566  0.00  0.00    +0.000 N 
ATOM      9  H   UNL     1      -3.716  11.873  20.088  0.00  0.00    +0.000 HD
BRANCH   8  10
ATOM     10  C   UNL     1      -3.286  13.070  21.799  0.00  0.00    +0.000 C 
ATOM     11  C   UNL     1      -4.708  13.645  21.716  0.00  0.00    +0.000 C 
ATOM     12  C   UNL     1      -5.798  12.865  22.445  0.00  0.00    +0.000 C 
ATOM     13  C   UNL     1      -5.850  13.187  23.936  0.00  0.00    +0.000 C 
ATOM     14  C   UNL     1      -4.774  12.514  24.780  0.00  0.00    +0.000 C 
ATOM     15  C   UNL     1      -3.333  12.800  24.363  0.00  0.00    +0.000 C 
ATOM     16  C   UNL     1      -2.955  12.193  23.013  0.00  0.00    +0.000 C 
ENDBRANCH   8  10
ENDBRANCH   1   7
BRANCH   5  17
ATOM     17  S   UNL     1       0.330  10.564  19.788  0.00  0.00    +0.000 S 
ATOM     18  O   UNL     1       1.271  11.593  20.184  0.00  0.00    +0.000 OA
ATOM     19  O   UNL     1      -0.718  10.113  20.672  0.00  0.00    +0.000 OA
BRANCH  17  20
ATOM     20  C   UNL     1       1.301   9.136  19.331  0.00  0.00    +0.000 A 
ATOM     21  C   UNL     1       2.084   9.180  18.168  0.00  0.00    +0.000 A 
ATOM     22  C   UNL     1       2.848   8.068  17.800  0.00  0.00    +0.000 A 
ATOM     23  C   UNL     1       2.831   6.919  18.587  0.00  0.00    +0.000 A 
ATOM     24  C   UNL     1       2.019   6.866  19.725  0.00  0.00    +0.000 A 
ATOM     25  C   UNL     1       1.234   7.965  20.093  0.00  0.00    +0.000 A 
ATOM     26  O   UNL     1       1.953   5.757  20.529  0.00  0.00    +0.000 OA
ATOM     27  C   UNL     1       3.152   4.983  20.414  0.00  0.00    +0.000 C 
ATOM     28  C   UNL     1       3.500   4.705  18.959  0.00  0.00    +0.000 C 
ATOM     29  O   UNL     1       3.661   5.902  18.193  0.00  0.00    +0.000 OA
ENDBRANCH  17  20
ENDBRANCH   5  17
TORSDOF 4
ENDMDL
