MODEL 1
REMARK VINA RESULT:      -8.2      0.000      0.000
REMARK  Name = 
REMARK  9 active torsions:
REMARK  status: ('A' for Active; 'I' for Inactive)
REMARK    1  A    between atoms: C_1  and  C_2
REMARK    2  A    between atoms: C_9  and  C_11
REMARK    3  A    between atoms: C_11  and  O_12
REMARK    4  A    between atoms: O_12  and  C_13
REMARK    5  A    between atoms: C_13  and  C_15
REMARK    6  A    between atoms: C_18  and  S_19
REMARK    7  A    between atoms: S_19  and  N_22
REMARK    8  A    between atoms: N_22  and  C_23
REMARK    9  A    between atoms: C_23  and  C_24
REMARK                            x       y       z     vdW  Elec       q    Type
REMARK                         _______ _______ _______ _____ _____    ______ ____
ROOT
ATOM      1  C   UNL     1       1.287   9.131  18.733  0.00  0.00    +0.000 C 
ATOM      2  O   UNL     1       0.677   9.628  17.801  0.00  0.00    +0.000 OA
ENDROOT
BRANCH   1   3
ATOM      3  C   UNL     1       2.270   8.026  18.565  0.00  0.00    +0.000 A 
ATOM      4  C   UNL     1       2.312   7.045  19.567  0.00  0.00    +0.000 A 
ATOM      5  C   UNL     1       3.253   6.017  19.512  0.00  0.00    +0.000 A 
ATOM      6  C   UNL     1       4.160   5.959  18.447  0.00  0.00    +0.000 A 
ATOM      7  C   UNL     1       4.126   6.928  17.438  0.00  0.00    +0.000 A 
ATOM      8  C   UNL     1       3.173   7.956  17.492  0.00  0.00    +0.000 A 
BRANCH   6   9
ATOM      9  S   UNL     1       5.464   4.747  18.494  0.00  0.00    +0.000 S 
ATOM     10  O   UNL     1       6.241   4.889  17.279  0.00  0.00    +0.000 OA
ATOM     11  O   UNL     1       6.079   4.843  19.801  0.00  0.00    +0.000 OA
BRANCH   9  12
ATOM     12  N   UNL     1       4.632   3.281  18.447  0.00  0.00    +0.000 NA
ATOM     13  H   UNL     1       4.951   2.671  17.694  0.00  0.00    +0.000 HD
BRANCH  12  14
ATOM     14  C   UNL     1       4.530   2.580  19.732  0.00  0.00    +0.000 C 
BRANCH  14  15
ATOM     15  C   UNL     1       3.143   2.718  20.250  0.00  0.00    +0.000 A 
ATOM     16  C   UNL     1       2.607   2.774  21.521  0.00  0.00    +0.000 A 
ATOM     17  C   UNL     1       1.201   2.822  21.360  0.00  0.00    +0.000 A 
ATOM     18  C   UNL     1       0.970   2.813  20.006  0.00  0.00    +0.000 A 
ATOM     19  O   UNL     1       2.143   2.762  19.321  0.00  0.00    +0.000 OA
ENDBRANCH  14  15
ENDBRANCH  12  14
ENDBRANCH   9  12
ENDBRANCH   6   9
ENDBRANCH   1   3
BRANCH   1  20
ATOM     20  O   UNL     1       1.144   9.465  20.034  0.00  0.00    +0.000 OA
BRANCH  20  21
ATOM     21  C   UNL     1       1.262  10.860  20.333  0.00  0.00    +0.000 C 
BRANCH  21  30
ATOM     22  C   UNL     1      -5.435  11.814  17.309  0.00  0.00    +0.000 C 
ATOM     23  C   UNL     1      -4.516  12.024  18.484  0.00  0.00    +0.000 A 
ATOM     24  C   UNL     1      -4.955  12.652  19.659  0.00  0.00    +0.000 A 
ATOM     25 CL   UNL     1      -6.555  13.257  19.878  0.00  0.00    +0.000 Cl
ATOM     26  C   UNL     1      -4.064  12.797  20.709  0.00  0.00    +0.000 A 
ATOM     27  N   UNL     1      -2.786  12.372  20.679  0.00  0.00    +0.000 NA
ATOM     28  C   UNL     1      -2.334  11.774  19.563  0.00  0.00    +0.000 A 
ATOM     29  N   UNL     1      -0.996  11.325  19.540  0.00  0.00    +0.000 N 
ATOM     30  C   UNL     1      -0.108  11.467  20.599  0.00  0.00    +0.000 C 
ATOM     31  O   UNL     1      -0.319  12.036  21.666  0.00  0.00    +0.000 OA
ATOM     32  C   UNL     1      -3.171  11.584  18.445  0.00  0.00    +0.000 A 
ATOM     33 CL   UNL     1      -2.541  10.804  17.025  0.00  0.00    +0.000 Cl
ATOM     34  H   UNL     1      -0.681  10.873  18.689  0.00  0.00    +0.000 HD
ENDBRANCH  21  30
ENDBRANCH  20  21
ENDBRANCH   1  20
TORSDOF 8
ENDMDL
MODEL 2
REMARK VINA RESULT:      -8.1      2.685      3.455
REMARK  Name = 
REMARK  9 active torsions:
REMARK  status: ('A' for Active; 'I' for Inactive)
REMARK    1  A    between atoms: C_1  and  C_2
REMARK    2  A    between atoms: C_9  and  C_11
REMARK    3  A    between atoms: C_11  and  O_12
REMARK    4  A    between atoms: O_12  and  C_13
REMARK    5  A    between atoms: C_13  and  C_15
REMARK    6  A    between atoms: C_18  and  S_19
REMARK    7  A    between atoms: S_19  and  N_22
REMARK    8  A    between atoms: N_22  and  C_23
REMARK    9  A    between atoms: C_23  and  C_24
REMARK                            x       y       z     vdW  Elec       q    Type
REMARK                         _______ _______ _______ _____ _____    ______ ____
ROOT
ATOM      1  C   UNL     1       1.465   8.826  18.656  0.00  0.00    +0.000 C 
ATOM      2  O   UNL     1       0.878   9.291  17.692  0.00  0.00    +0.000 OA
ENDROOT
BRANCH   1   3
ATOM      3  C   UNL     1       2.479   7.742  18.545  0.00  0.00    +0.000 A 
ATOM      4  C   UNL     1       2.597   6.859  19.628  0.00  0.00    +0.000 A 
ATOM      5  C   UNL     1       3.572   5.861  19.624  0.00  0.00    +0.000 A 
ATOM      6  C   UNL     1       4.436   5.736  18.530  0.00  0.00    +0.000 A 
ATOM      7  C   UNL     1       4.327   6.607  17.441  0.00  0.00    +0.000 A 
ATOM      8  C   UNL     1       3.340   7.604  17.444  0.00  0.00    +0.000 A 
BRANCH   6   9
ATOM      9  S   UNL     1       5.784   4.576  18.630  0.00  0.00    +0.000 S 
ATOM     10  O   UNL     1       6.256   4.332  17.282  0.00  0.00    +0.000 OA
ATOM     11  O   UNL     1       6.674   5.055  19.667  0.00  0.00    +0.000 OA
BRANCH   9  12
ATOM     12  N   UNL     1       5.049   3.177  19.218  0.00  0.00    +0.000 NA
ATOM     13  H   UNL     1       4.719   3.279  20.177  0.00  0.00    +0.000 HD
BRANCH  12  14
ATOM     14  C   UNL     1       4.036   2.586  18.335  0.00  0.00    +0.000 C 
BRANCH  14  15
ATOM     15  C   UNL     1       2.705   2.686  18.990  0.00  0.00    +0.000 A 
ATOM     16  C   UNL     1       1.438   2.976  18.524  0.00  0.00    +0.000 A 
ATOM     17  C   UNL     1       0.592   3.004  19.659  0.00  0.00    +0.000 A 
ATOM     18  C   UNL     1       1.389   2.710  20.739  0.00  0.00    +0.000 A 
ATOM     19  O   UNL     1       2.673   2.504  20.343  0.00  0.00    +0.000 OA
ENDBRANCH  14  15
ENDBRANCH  12  14
ENDBRANCH   9  12
ENDBRANCH   6   9
ENDBRANCH   1   3
BRANCH   1  20
ATOM     20  O   UNL     1       1.265   9.179  19.944  0.00  0.00    +0.000 OA
BRANCH  20  21
ATOM     21  C   UNL     1       0.003   9.791  20.231  0.00  0.00    +0.000 C 
BRANCH  21  30
ATOM     22  C   UNL     1      -2.816  14.801  24.907  0.00  0.00    +0.000 C 
ATOM     23  C   UNL     1      -1.760  14.442  23.895  0.00  0.00    +0.000 A 
ATOM     24  C   UNL     1      -0.724  15.329  23.566  0.00  0.00    +0.000 A 
ATOM     25 CL   UNL     1      -0.558  16.901  24.255  0.00  0.00    +0.000 Cl
ATOM     26  C   UNL     1       0.226  14.930  22.641  0.00  0.00    +0.000 A 
ATOM     27  N   UNL     1       0.222  13.731  22.025  0.00  0.00    +0.000 NA
ATOM     28  C   UNL     1      -0.763  12.864  22.314  0.00  0.00    +0.000 A 
ATOM     29  N   UNL     1      -0.757  11.607  21.670  0.00  0.00    +0.000 N 
ATOM     30  C   UNL     1       0.202  11.209  20.747  0.00  0.00    +0.000 C 
ATOM     31  O   UNL     1       1.134  11.882  20.316  0.00  0.00    +0.000 OA
ATOM     32  C   UNL     1      -1.772  13.185  23.243  0.00  0.00    +0.000 A 
ATOM     33 CL   UNL     1      -3.025  12.029  23.584  0.00  0.00    +0.000 Cl
ATOM     34  H   UNL     1      -1.507  10.969  21.908  0.00  0.00    +0.000 HD
ENDBRANCH  21  30
ENDBRANCH  20  21
ENDBRANCH   1  20
TORSDOF 8
ENDMDL
MODEL 3
REMARK VINA RESULT:      -8.1      3.106      3.888
REMARK  Name = 
REMARK  9 active torsions:
REMARK  status: ('A' for Active; 'I' for Inactive)
REMARK    1  A    between atoms: C_1  and  C_2
REMARK    2  A    between atoms: C_9  and  C_11
REMARK    3  A    between atoms: C_11  and  O_12
REMARK    4  A    between atoms: O_12  and  C_13
REMARK    5  A    between atoms: C_13  and  C_15
REMARK    6  A    between atoms: C_18  and  S_19
REMARK    7  A    between atoms: S_19  and  N_22
REMARK    8  A    between atoms: N_22  and  C_23
REMARK    9  A    between atoms: C_23  and  C_24
REMARK                            x       y       z     vdW  Elec       q    Type
REMARK                         _______ _______ _______ _____ _____    ______ ____
ROOT
ATOM      1  C   UNL     1       1.323   9.041  19.409  0.00  0.00    +0.000 C 
ATOM      2  O   UNL     1       0.991   9.235  20.567  0.00  0.00    +0.000 OA
ENDROOT
BRANCH   1   3
ATOM      3  C   UNL     1       2.193   7.908  18.991  0.00  0.00    +0.000 A 
ATOM      4  C   UNL     1       2.332   6.840  19.889  0.00  0.00    +0.000 A 
ATOM      5  C   UNL     1       3.184   5.775  19.596  0.00  0.00    +0.000 A 
ATOM      6  C   UNL     1       3.902   5.769  18.394  0.00  0.00    +0.000 A 
ATOM      7  C   UNL     1       3.769   6.825  17.487  0.00  0.00    +0.000 A 
ATOM      8  C   UNL     1       2.906   7.890  17.782  0.00  0.00    +0.000 A 
BRANCH   6   9
ATOM      9  S   UNL     1       5.117   4.493  18.127  0.00  0.00    +0.000 S 
ATOM     10  O   UNL     1       5.871   4.845  16.941  0.00  0.00    +0.000 OA
ATOM     11  O   UNL     1       5.769   4.262  19.398  0.00  0.00    +0.000 OA
BRANCH   9  12
ATOM     12  N   UNL     1       4.181   3.129  17.798  0.00  0.00    +0.000 NA
ATOM     13  H   UNL     1       4.399   2.710  16.894  0.00  0.00    +0.000 HD
BRANCH  12  14
ATOM     14  C   UNL     1       4.122   2.137  18.879  0.00  0.00    +0.000 C 
BRANCH  14  15
ATOM     15  C   UNL     1       2.926   2.407  19.719  0.00  0.00    +0.000 A 
ATOM     16  C   UNL     1       1.582   2.544  19.438  0.00  0.00    +0.000 A 
ATOM     17  C   UNL     1       0.950   2.883  20.659  0.00  0.00    +0.000 A 
ATOM     18  C   UNL     1       1.943   2.910  21.609  0.00  0.00    +0.000 A 
ATOM     19  O   UNL     1       3.146   2.610  21.052  0.00  0.00    +0.000 OA
ENDBRANCH  14  15
ENDBRANCH  12  14
ENDBRANCH   9  12
ENDBRANCH   6   9
ENDBRANCH   1   3
BRANCH   1  20
ATOM     20  O   UNL     1       0.998   9.823  18.356  0.00  0.00    +0.000 OA
BRANCH  20  21
ATOM     21  C   UNL     1      -0.378  10.206  18.269  0.00  0.00    +0.000 C 
BRANCH  21  30
ATOM     22  C   UNL     1       3.440  16.554  18.481  0.00  0.00    +0.000 C 
ATOM     23  C   UNL     1       2.115  15.848  18.609  0.00  0.00    +0.000 A 
ATOM     24  C   UNL     1       0.928  16.552  18.859  0.00  0.00    +0.000 A 
ATOM     25 CL   UNL     1       0.856  18.263  19.062  0.00  0.00    +0.000 Cl
ATOM     26  C   UNL     1      -0.260  15.844  18.948  0.00  0.00    +0.000 A 
ATOM     27  N   UNL     1      -0.354  14.507  18.809  0.00  0.00    +0.000 NA
ATOM     28  C   UNL     1       0.769  13.805  18.577  0.00  0.00    +0.000 A 
ATOM     29  N   UNL     1       0.663  12.405  18.427  0.00  0.00    +0.000 N 
ATOM     30  C   UNL     1      -0.532  11.701  18.509  0.00  0.00    +0.000 C 
ATOM     31  O   UNL     1      -1.640  12.159  18.774  0.00  0.00    +0.000 OA
ATOM     32  C   UNL     1       2.022  14.442  18.472  0.00  0.00    +0.000 A 
ATOM     33 CL   UNL     1       3.445  13.491  18.170  0.00  0.00    +0.000 Cl
ATOM     34  H   UNL     1       1.522  11.899  18.248  0.00  0.00    +0.000 HD
ENDBRANCH  21  30
ENDBRANCH  20  21
ENDBRANCH   1  20
TORSDOF 8
ENDMDL
MODEL 4
REMARK VINA RESULT:      -8.0      2.507      2.855
REMARK  Name = 
REMARK  9 active torsions:
REMARK  status: ('A' for Active; 'I' for Inactive)
REMARK    1  A    between atoms: C_1  and  C_2
REMARK    2  A    between atoms: C_9  and  C_11
REMARK    3  A    between atoms: C_11  and  O_12
REMARK    4  A    between atoms: O_12  and  C_13
REMARK    5  A    between atoms: C_13  and  C_15
REMARK    6  A    between atoms: C_18  and  S_19
REMARK    7  A    between atoms: S_19  and  N_22
REMARK    8  A    between atoms: N_22  and  C_23
REMARK    9  A    between atoms: C_23  and  C_24
REMARK                            x       y       z     vdW  Elec       q    Type
REMARK                         _______ _______ _______ _____ _____    ______ ____
ROOT
ATOM      1  C   UNL     1       1.380   8.959  19.232  0.00  0.00    +0.000 C 
ATOM      2  O   UNL     1       0.801   9.642  18.403  0.00  0.00    +0.000 OA
ENDROOT
BRANCH   1   3
ATOM      3  C   UNL     1       2.295   7.842  18.869  0.00  0.00    +0.000 A 
ATOM      4  C   UNL     1       2.428   6.794  19.791  0.00  0.00    +0.000 A 
ATOM      5  C   UNL     1       3.319   5.748  19.551  0.00  0.00    +0.000 A 
ATOM      6  C   UNL     1       4.083   5.740  18.378  0.00  0.00    +0.000 A 
ATOM      7  C   UNL     1       3.957   6.777  17.446  0.00  0.00    +0.000 A 
ATOM      8  C   UNL     1       3.055   7.823  17.688  0.00  0.00    +0.000 A 
BRANCH   6   9
ATOM      9  S   UNL     1       5.340   4.493  18.180  0.00  0.00    +0.000 S 
ATOM     10  O   UNL     1       5.993   4.724  16.908  0.00  0.00    +0.000 OA
ATOM     11  O   UNL     1       6.088   4.453  19.419  0.00  0.00    +0.000 OA
BRANCH   9  12
ATOM     12  N   UNL     1       4.454   3.061  18.092  0.00  0.00    +0.000 NA
ATOM     13  H   UNL     1       4.721   2.481  17.296  0.00  0.00    +0.000 HD
BRANCH  12  14
ATOM     14  C   UNL     1       4.378   2.297  19.343  0.00  0.00    +0.000 C 
BRANCH  14  15
ATOM     15  C   UNL     1       3.028   2.480  19.940  0.00  0.00    +0.000 A 
ATOM     16  C   UNL     1       1.762   2.592  19.403  0.00  0.00    +0.000 A 
ATOM     17  C   UNL     1       0.887   2.840  20.488  0.00  0.00    +0.000 A 
ATOM     18  C   UNL     1       1.670   2.842  21.618  0.00  0.00    +0.000 A 
ATOM     19  O   UNL     1       2.972   2.613  21.298  0.00  0.00    +0.000 OA
ENDBRANCH  14  15
ENDBRANCH  12  14
ENDBRANCH   9  12
ENDBRANCH   6   9
ENDBRANCH   1   3
BRANCH   1  20
ATOM     20  O   UNL     1       1.257   9.074  20.572  0.00  0.00    +0.000 OA
BRANCH  20  21
ATOM     21  C   UNL     1      -0.065   9.342  21.053  0.00  0.00    +0.000 C 
BRANCH  21  30
ATOM     22  C   UNL     1      -0.655  16.466  19.103  0.00  0.00    +0.000 C 
ATOM     23  C   UNL     1      -0.554  15.441  20.202  0.00  0.00    +0.000 A 
ATOM     24  C   UNL     1      -0.598  15.806  21.555  0.00  0.00    +0.000 A 
ATOM     25 CL   UNL     1      -0.753  17.434  22.101  0.00  0.00    +0.000 Cl
ATOM     26  C   UNL     1      -0.518  14.811  22.516  0.00  0.00    +0.000 A 
ATOM     27  N   UNL     1      -0.397  13.499  22.236  0.00  0.00    +0.000 NA
ATOM     28  C   UNL     1      -0.343  13.120  20.947  0.00  0.00    +0.000 A 
ATOM     29  N   UNL     1      -0.222  11.743  20.660  0.00  0.00    +0.000 N 
ATOM     30  C   UNL     1      -0.149  10.748  21.627  0.00  0.00    +0.000 C 
ATOM     31  O   UNL     1      -0.121  10.906  22.845  0.00  0.00    +0.000 OA
ATOM     32  C   UNL     1      -0.417  14.063  19.903  0.00  0.00    +0.000 A 
ATOM     33 CL   UNL     1      -0.344  13.524  18.252  0.00  0.00    +0.000 Cl
ATOM     34  H   UNL     1      -0.188  11.482  19.681  0.00  0.00    +0.000 HD
ENDBRANCH  21  30
ENDBRANCH  20  21
ENDBRANCH   1  20
TORSDOF 8
ENDMDL
MODEL 5
REMARK VINA RESULT:      -8.0      1.894      2.517
REMARK  Name = 
REMARK  9 active torsions:
REMARK  status: ('A' for Active; 'I' for Inactive)
REMARK    1  A    between atoms: C_1  and  C_2
REMARK    2  A    between atoms: C_9  and  C_11
REMARK    3  A    between atoms: C_11  and  O_12
REMARK    4  A    between atoms: O_12  and  C_13
REMARK    5  A    between atoms: C_13  and  C_15
REMARK    6  A    between atoms: C_18  and  S_19
REMARK    7  A    between atoms: S_19  and  N_22
REMARK    8  A    between atoms: N_22  and  C_23
REMARK    9  A    between atoms: C_23  and  C_24
REMARK                            x       y       z     vdW  Elec       q    Type
REMARK                         _______ _______ _______ _____ _____    ______ ____
ROOT
ATOM      1  C   UNL     1       1.115   9.253  19.531  0.00  0.00    +0.000 C 
ATOM      2  O   UNL     1       0.937   9.449  20.722  0.00  0.00    +0.000 OA
ENDROOT
BRANCH   1   3
ATOM      3  C   UNL     1       2.002   8.180  19.006  0.00  0.00    +0.000 A 
ATOM      4  C   UNL     1       2.264   7.092  19.851  0.00  0.00    +0.000 A 
ATOM      5  C   UNL     1       3.140   6.082  19.455  0.00  0.00    +0.000 A 
ATOM      6  C   UNL     1       3.759   6.150  18.201  0.00  0.00    +0.000 A 
ATOM      7  C   UNL     1       3.503   7.227  17.345  0.00  0.00    +0.000 A 
ATOM      8  C   UNL     1       2.616   8.237  17.744  0.00  0.00    +0.000 A 
BRANCH   6   9
ATOM      9  S   UNL     1       5.008   4.947  17.793  0.00  0.00    +0.000 S 
ATOM     10  O   UNL     1       4.620   4.313  16.549  0.00  0.00    +0.000 OA
ATOM     11  O   UNL     1       6.289   5.606  17.939  0.00  0.00    +0.000 OA
BRANCH   9  12
ATOM     12  N   UNL     1       4.887   3.823  19.045  0.00  0.00    +0.000 NA
ATOM     13  H   UNL     1       4.680   4.256  19.945  0.00  0.00    +0.000 HD
BRANCH  12  14
ATOM     14  C   UNL     1       4.023   2.669  18.766  0.00  0.00    +0.000 C 
BRANCH  14  15
ATOM     15  C   UNL     1       2.861   2.699  19.692  0.00  0.00    +0.000 A 
ATOM     16  C   UNL     1       1.496   2.773  19.499  0.00  0.00    +0.000 A 
ATOM     17  C   UNL     1       0.914   2.853  20.787  0.00  0.00    +0.000 A 
ATOM     18  C   UNL     1       1.955   2.801  21.682  0.00  0.00    +0.000 A 
ATOM     19  O   UNL     1       3.143   2.695  21.029  0.00  0.00    +0.000 OA
ENDBRANCH  14  15
ENDBRANCH  12  14
ENDBRANCH   9  12
ENDBRANCH   6   9
ENDBRANCH   1   3
BRANCH   1  20
ATOM     20  O   UNL     1       0.583   9.983  18.527  0.00  0.00    +0.000 OA
BRANCH  20  21
ATOM     21  C   UNL     1       0.658  11.404  18.684  0.00  0.00    +0.000 C 
BRANCH  21  30
ATOM     22  C   UNL     1      -4.062  12.484  24.294  0.00  0.00    +0.000 C 
ATOM     23  C   UNL     1      -3.752  12.645  22.828  0.00  0.00    +0.000 A 
ATOM     24  C   UNL     1      -4.634  13.302  21.957  0.00  0.00    +0.000 A 
ATOM     25 CL   UNL     1      -6.146  13.967  22.451  0.00  0.00    +0.000 Cl
ATOM     26  C   UNL     1      -4.280  13.432  20.625  0.00  0.00    +0.000 A 
ATOM     27  N   UNL     1      -3.131  12.963  20.100  0.00  0.00    +0.000 NA
ATOM     28  C   UNL     1      -2.270  12.321  20.909  0.00  0.00    +0.000 A 
ATOM     29  N   UNL     1      -1.065  11.838  20.354  0.00  0.00    +0.000 N 
ATOM     30  C   UNL     1      -0.712  11.977  19.017  0.00  0.00    +0.000 C 
ATOM     31  O   UNL     1      -1.391  12.474  18.124  0.00  0.00    +0.000 OA
ATOM     32  C   UNL     1      -2.548  12.142  22.278  0.00  0.00    +0.000 A 
ATOM     33 CL   UNL     1      -1.402  11.307  23.284  0.00  0.00    +0.000 Cl
ATOM     34  H   UNL     1      -0.431  11.362  20.984  0.00  0.00    +0.000 HD
ENDBRANCH  21  30
ENDBRANCH  20  21
ENDBRANCH   1  20
TORSDOF 8
ENDMDL
MODEL 6
REMARK VINA RESULT:      -8.0      1.973      3.639
REMARK  Name = 
REMARK  9 active torsions:
REMARK  status: ('A' for Active; 'I' for Inactive)
REMARK    1  A    between atoms: C_1  and  C_2
REMARK    2  A    between atoms: C_9  and  C_11
REMARK    3  A    between atoms: C_11  and  O_12
REMARK    4  A    between atoms: O_12  and  C_13
REMARK    5  A    between atoms: C_13  and  C_15
REMARK    6  A    between atoms: C_18  and  S_19
REMARK    7  A    between atoms: S_19  and  N_22
REMARK    8  A    between atoms: N_22  and  C_23
REMARK    9  A    between atoms: C_23  and  C_24
REMARK                            x       y       z     vdW  Elec       q    Type
REMARK                         _______ _______ _______ _____ _____    ______ ____
ROOT
ATOM      1  C   UNL     1       1.492   8.547  20.557  0.00  0.00    +0.000 C 
ATOM      2  O   UNL     1       1.467   8.853  21.738  0.00  0.00    +0.000 OA
ENDROOT
BRANCH   1   3
ATOM      3  C   UNL     1       1.867   7.190  20.076  0.00  0.00    +0.000 A 
ATOM      4  C   UNL     1       2.357   7.084  18.766  0.00  0.00    +0.000 A 
ATOM      5  C   UNL     1       2.664   5.837  18.223  0.00  0.00    +0.000 A 
ATOM      6  C   UNL     1       2.488   4.680  18.992  0.00  0.00    +0.000 A 
ATOM      7  C   UNL     1       2.005   4.771  20.302  0.00  0.00    +0.000 A 
ATOM      8  C   UNL     1       1.704   6.028  20.848  0.00  0.00    +0.000 A 
BRANCH   6   9
ATOM      9  S   UNL     1       2.714   3.092  18.218  0.00  0.00    +0.000 S 
ATOM     10  O   UNL     1       2.189   2.085  19.118  0.00  0.00    +0.000 OA
ATOM     11  O   UNL     1       2.233   3.216  16.859  0.00  0.00    +0.000 OA
BRANCH   9  12
ATOM     12  N   UNL     1       4.391   2.936  18.137  0.00  0.00    +0.000 NA
ATOM     13  H   UNL     1       4.695   1.963  18.108  0.00  0.00    +0.000 HD
BRANCH  12  14
ATOM     14  C   UNL     1       5.045   3.759  17.112  0.00  0.00    +0.000 C 
BRANCH  14  15
ATOM     15  C   UNL     1       6.058   4.630  17.766  0.00  0.00    +0.000 A 
ATOM     16  C   UNL     1       7.134   5.353  17.291  0.00  0.00    +0.000 A 
ATOM     17  C   UNL     1       7.771   5.912  18.425  0.00  0.00    +0.000 A 
ATOM     18  C   UNL     1       7.033   5.514  19.514  0.00  0.00    +0.000 A 
ATOM     19  O   UNL     1       5.983   4.744  19.124  0.00  0.00    +0.000 OA
ENDBRANCH  14  15
ENDBRANCH  12  14
ENDBRANCH   9  12
ENDBRANCH   6   9
ENDBRANCH   1   3
BRANCH   1  20
ATOM     20  O   UNL     1       1.230   9.378  19.524  0.00  0.00    +0.000 OA
BRANCH  20  21
ATOM     21  C   UNL     1       0.570  10.601  19.863  0.00  0.00    +0.000 C 
BRANCH  21  30
ATOM     22  C   UNL     1      -6.215  13.568  20.150  0.00  0.00    +0.000 C 
ATOM     23  C   UNL     1      -5.191  12.778  19.376  0.00  0.00    +0.000 A 
ATOM     24  C   UNL     1      -5.443  12.325  18.073  0.00  0.00    +0.000 A 
ATOM     25 CL   UNL     1      -6.925  12.599  17.236  0.00  0.00    +0.000 Cl
ATOM     26  C   UNL     1      -4.451  11.621  17.410  0.00  0.00    +0.000 A 
ATOM     27  N   UNL     1      -3.246  11.335  17.940  0.00  0.00    +0.000 NA
ATOM     28  C   UNL     1      -2.979  11.749  19.191  0.00  0.00    +0.000 A 
ATOM     29  N   UNL     1      -1.712  11.452  19.738  0.00  0.00    +0.000 N 
ATOM     30  C   UNL     1      -0.718  10.751  19.066  0.00  0.00    +0.000 C 
ATOM     31  O   UNL     1      -0.800  10.245  17.951  0.00  0.00    +0.000 OA
ATOM     32  C   UNL     1      -3.929  12.472  19.940  0.00  0.00    +0.000 A 
ATOM     33 CL   UNL     1      -3.537  12.988  21.553  0.00  0.00    +0.000 Cl
ATOM     34  H   UNL     1      -1.533  11.780  20.680  0.00  0.00    +0.000 HD
ENDBRANCH  21  30
ENDBRANCH  20  21
ENDBRANCH   1  20
TORSDOF 8
ENDMDL
MODEL 7
REMARK VINA RESULT:      -7.9      6.358      9.166
REMARK  Name = 
REMARK  9 active torsions:
REMARK  status: ('A' for Active; 'I' for Inactive)
REMARK    1  A    between atoms: C_1  and  C_2
REMARK    2  A    between atoms: C_9  and  C_11
REMARK    3  A    between atoms: C_11  and  O_12
REMARK    4  A    between atoms: O_12  and  C_13
REMARK    5  A    between atoms: C_13  and  C_15
REMARK    6  A    between atoms: C_18  and  S_19
REMARK    7  A    between atoms: S_19  and  N_22
REMARK    8  A    between atoms: N_22  and  C_23
REMARK    9  A    between atoms: C_23  and  C_24
REMARK                            x       y       z     vdW  Elec       q    Type
REMARK                         _______ _______ _______ _____ _____    ______ ____
ROOT
ATOM      1  C   UNL     1       7.255   6.502  17.186  0.00  0.00    +0.000 C 
ATOM      2  O   UNL     1       7.903   6.545  16.153  0.00  0.00    +0.000 OA
ENDROOT
BRANCH   1   3
ATOM      3  C   UNL     1       6.330   5.386  17.519  0.00  0.00    +0.000 A 
ATOM      4  C   UNL     1       5.691   4.739  16.452  0.00  0.00    +0.000 A 
ATOM      5  C   UNL     1       4.759   3.729  16.691  0.00  0.00    +0.000 A 
ATOM      6  C   UNL     1       4.461   3.354  18.006  0.00  0.00    +0.000 A 
ATOM      7  C   UNL     1       5.094   3.987  19.081  0.00  0.00    +0.000 A 
ATOM      8  C   UNL     1       6.037   4.997  18.837  0.00  0.00    +0.000 A 
BRANCH   6   9
ATOM      9  S   UNL     1       3.139   2.194  18.290  0.00  0.00    +0.000 S 
ATOM     10  O   UNL     1       2.209   2.308  17.184  0.00  0.00    +0.000 OA
ATOM     11  O   UNL     1       3.757   0.930  18.631  0.00  0.00    +0.000 OA
BRANCH   9  12
ATOM     12  N   UNL     1       2.404   2.778  19.690  0.00  0.00    +0.000 NA
ATOM     13  H   UNL     1       3.075   3.157  20.358  0.00  0.00    +0.000 HD
BRANCH  12  14
ATOM     14  C   UNL     1       1.263   3.675  19.469  0.00  0.00    +0.000 C 
BRANCH  14  15
ATOM     15  C   UNL     1       1.741   5.082  19.503  0.00  0.00    +0.000 A 
ATOM     16  C   UNL     1       1.858   6.019  20.511  0.00  0.00    +0.000 A 
ATOM     17  C   UNL     1       2.298   7.215  19.895  0.00  0.00    +0.000 A 
ATOM     18  C   UNL     1       2.441   6.928  18.559  0.00  0.00    +0.000 A 
ATOM     19  O   UNL     1       2.116   5.632  18.311  0.00  0.00    +0.000 OA
ENDBRANCH  14  15
ENDBRANCH  12  14
ENDBRANCH   9  12
ENDBRANCH   6   9
ENDBRANCH   1   3
BRANCH   1  20
ATOM     20  O   UNL     1       7.242   7.453  18.145  0.00  0.00    +0.000 OA
BRANCH  20  21
ATOM     21  C   UNL     1       8.495   8.095  18.400  0.00  0.00    +0.000 C 
BRANCH  21  30
ATOM     22  C   UNL     1      12.164  14.477  19.250  0.00  0.00    +0.000 C 
ATOM     23  C   UNL     1      10.929  13.761  18.769  0.00  0.00    +0.000 A 
ATOM     24  C   UNL     1       9.882  14.446  18.136  0.00  0.00    +0.000 A 
ATOM     25 CL   UNL     1       9.881  16.148  17.860  0.00  0.00    +0.000 Cl
ATOM     26  C   UNL     1       8.782  13.725  17.701  0.00  0.00    +0.000 A 
ATOM     27  N   UNL     1       8.647  12.392  17.847  0.00  0.00    +0.000 NA
ATOM     28  C   UNL     1       9.632  11.711  18.458  0.00  0.00    +0.000 A 
ATOM     29  N   UNL     1       9.487  10.314  18.603  0.00  0.00    +0.000 N 
ATOM     30  C   UNL     1       8.385   9.594  18.158  0.00  0.00    +0.000 C 
ATOM     31  O   UNL     1       7.370  10.048  17.638  0.00  0.00    +0.000 OA
ATOM     32  C   UNL     1      10.787  12.362  18.933  0.00  0.00    +0.000 A 
ATOM     33 CL   UNL     1      12.034  11.437  19.715  0.00  0.00    +0.000 Cl
ATOM     34  H   UNL     1      10.245   9.821  19.062  0.00  0.00    +0.000 HD
ENDBRANCH  21  30
ENDBRANCH  20  21
ENDBRANCH   1  20
TORSDOF 8
ENDMDL
MODEL 8
REMARK VINA RESULT:      -7.9      2.054      2.805
REMARK  Name = 
REMARK  9 active torsions:
REMARK  status: ('A' for Active; 'I' for Inactive)
REMARK    1  A    between atoms: C_1  and  C_2
REMARK    2  A    between atoms: C_9  and  C_11
REMARK    3  A    between atoms: C_11  and  O_12
REMARK    4  A    between atoms: O_12  and  C_13
REMARK    5  A    between atoms: C_13  and  C_15
REMARK    6  A    between atoms: C_18  and  S_19
REMARK    7  A    between atoms: S_19  and  N_22
REMARK    8  A    between atoms: N_22  and  C_23
REMARK    9  A    between atoms: C_23  and  C_24
REMARK                            x       y       z     vdW  Elec       q    Type
REMARK                         _______ _______ _______ _____ _____    ______ ____
ROOT
ATOM      1  C   UNL     1       1.399   9.018  18.643  0.00  0.00    +0.000 C 
ATOM      2  O   UNL     1       0.897   9.474  17.628  0.00  0.00    +0.000 OA
ENDROOT
BRANCH   1   3
ATOM      3  C   UNL     1       2.396   7.913  18.632  0.00  0.00    +0.000 A 
ATOM      4  C   UNL     1       3.279   7.855  17.544  0.00  0.00    +0.000 A 
ATOM      5  C   UNL     1       4.195   6.809  17.431  0.00  0.00    +0.000 A 
ATOM      6  C   UNL     1       4.238   5.812  18.413  0.00  0.00    +0.000 A 
ATOM      7  C   UNL     1       3.367   5.860  19.506  0.00  0.00    +0.000 A 
ATOM      8  C   UNL     1       2.452   6.918  19.621  0.00  0.00    +0.000 A 
BRANCH   6   9
ATOM      9  S   UNL     1       5.288   4.396  18.153  0.00  0.00    +0.000 S 
ATOM     10  O   UNL     1       6.009   4.604  16.914  0.00  0.00    +0.000 OA
ATOM     11  O   UNL     1       5.981   4.154  19.401  0.00  0.00    +0.000 OA
BRANCH   9  12
ATOM     12  N   UNL     1       4.190   3.133  17.945  0.00  0.00    +0.000 NA
ATOM     13  H   UNL     1       4.303   2.656  17.051  0.00  0.00    +0.000 HD
BRANCH  12  14
ATOM     14  C   UNL     1       4.094   2.198  19.073  0.00  0.00    +0.000 C 
BRANCH  14  15
ATOM     15  C   UNL     1       2.901   2.545  19.889  0.00  0.00    +0.000 A 
ATOM     16  C   UNL     1       2.674   2.627  21.248  0.00  0.00    +0.000 A 
ATOM     17  C   UNL     1       1.298   2.924  21.407  0.00  0.00    +0.000 A 
ATOM     18  C   UNL     1       0.780   3.025  20.138  0.00  0.00    +0.000 A 
ATOM     19  O   UNL     1       1.747   2.808  19.208  0.00  0.00    +0.000 OA
ENDBRANCH  14  15
ENDBRANCH  12  14
ENDBRANCH   9  12
ENDBRANCH   6   9
ENDBRANCH   1   3
BRANCH   1  20
ATOM     20  O   UNL     1       1.109   9.403  19.905  0.00  0.00    +0.000 OA
BRANCH  20  21
ATOM     21  C   UNL     1      -0.246   9.802  20.136  0.00  0.00    +0.000 C 
BRANCH  21  30
ATOM     22  C   UNL     1      -4.810  14.927  22.934  0.00  0.00    +0.000 C 
ATOM     23  C   UNL     1      -3.433  14.317  22.899  0.00  0.00    +0.000 A 
ATOM     24  C   UNL     1      -2.401  14.780  23.728  0.00  0.00    +0.000 A 
ATOM     25 CL   UNL     1      -2.583  16.083  24.842  0.00  0.00    +0.000 Cl
ATOM     26  C   UNL     1      -1.163  14.163  23.659  0.00  0.00    +0.000 A 
ATOM     27  N   UNL     1      -0.877  13.134  22.837  0.00  0.00    +0.000 NA
ATOM     28  C   UNL     1      -1.845  12.674  22.024  0.00  0.00    +0.000 A 
ATOM     29  N   UNL     1      -1.541  11.591  21.170  0.00  0.00    +0.000 N 
ATOM     30  C   UNL     1      -0.299  10.971  21.110  0.00  0.00    +0.000 C 
ATOM     31  O   UNL     1       0.714  11.290  21.726  0.00  0.00    +0.000 OA
ATOM     32  C   UNL     1      -3.134  13.242  22.027  0.00  0.00    +0.000 A 
ATOM     33 CL   UNL     1      -4.352  12.610  20.959  0.00  0.00    +0.000 Cl
ATOM     34  H   UNL     1      -2.287  11.259  20.571  0.00  0.00    +0.000 HD
ENDBRANCH  21  30
ENDBRANCH  20  21
ENDBRANCH   1  20
TORSDOF 8
ENDMDL
MODEL 9
REMARK VINA RESULT:      -7.9      2.827      3.496
REMARK  Name = 
REMARK  9 active torsions:
REMARK  status: ('A' for Active; 'I' for Inactive)
REMARK    1  A    between atoms: C_1  and  C_2
REMARK    2  A    between atoms: C_9  and  C_11
REMARK    3  A    between atoms: C_11  and  O_12
REMARK    4  A    between atoms: O_12  and  C_13
REMARK    5  A    between atoms: C_13  and  C_15
REMARK    6  A    between atoms: C_18  and  S_19
REMARK    7  A    between atoms: S_19  and  N_22
REMARK    8  A    between atoms: N_22  and  C_23
REMARK    9  A    between atoms: C_23  and  C_24
REMARK                            x       y       z     vdW  Elec       q    Type
REMARK                         _______ _______ _______ _____ _____    ______ ____
ROOT
ATOM      1  C   UNL     1       1.790   8.953  18.343  0.00  0.00    +0.000 C 
ATOM      2  O   UNL     1       1.821   9.814  17.478  0.00  0.00    +0.000 OA
ENDROOT
BRANCH   1   3
ATOM      3  C   UNL     1       2.735   7.804  18.381  0.00  0.00    +0.000 A 
ATOM      4  C   UNL     1       3.671   7.706  17.340  0.00  0.00    +0.000 A 
ATOM      5  C   UNL     1       4.543   6.621  17.273  0.00  0.00    +0.000 A 
ATOM      6  C   UNL     1       4.490   5.622  18.253  0.00  0.00    +0.000 A 
ATOM      7  C   UNL     1       3.566   5.709  19.299  0.00  0.00    +0.000 A 
ATOM      8  C   UNL     1       2.695   6.807  19.368  0.00  0.00    +0.000 A 
BRANCH   6   9
ATOM      9  S   UNL     1       5.487   4.161  18.044  0.00  0.00    +0.000 S 
ATOM     10  O   UNL     1       5.069   3.514  16.816  0.00  0.00    +0.000 OA
ATOM     11  O   UNL     1       6.862   4.557  18.260  0.00  0.00    +0.000 OA
BRANCH   9  12
ATOM     12  N   UNL     1       5.040   3.196  19.353  0.00  0.00    +0.000 NA
ATOM     13  H   UNL     1       4.809   3.742  20.184  0.00  0.00    +0.000 HD
BRANCH  12  14
ATOM     14  C   UNL     1       4.032   2.171  19.057  0.00  0.00    +0.000 C 
BRANCH  14  15
ATOM     15  C   UNL     1       2.784   2.491  19.799  0.00  0.00    +0.000 A 
ATOM     16  C   UNL     1       1.480   2.720  19.407  0.00  0.00    +0.000 A 
ATOM     17  C   UNL     1       0.764   3.062  20.579  0.00  0.00    +0.000 A 
ATOM     18  C   UNL     1       1.669   3.000  21.612  0.00  0.00    +0.000 A 
ATOM     19  O   UNL     1       2.897   2.642  21.152  0.00  0.00    +0.000 OA
ENDBRANCH  14  15
ENDBRANCH  12  14
ENDBRANCH   9  12
ENDBRANCH   6   9
ENDBRANCH   1   3
BRANCH   1  20
ATOM     20  O   UNL     1       0.894   8.883  19.350  0.00  0.00    +0.000 OA
BRANCH  20  21
ATOM     21  C   UNL     1       1.164   9.717  20.482  0.00  0.00    +0.000 C 
BRANCH  21  30
ATOM     22  C   UNL     1       2.180  16.660  18.099  0.00  0.00    +0.000 C 
ATOM     23  C   UNL     1       1.260  15.634  18.708  0.00  0.00    +0.000 A 
ATOM     24  C   UNL     1      -0.075  15.934  19.018  0.00  0.00    +0.000 A 
ATOM     25 CL   UNL     1      -0.791  17.480  18.759  0.00  0.00    +0.000 Cl
ATOM     26  C   UNL     1      -0.872  14.939  19.559  0.00  0.00    +0.000 A 
ATOM     27  N   UNL     1      -0.447  13.686  19.814  0.00  0.00    +0.000 NA
ATOM     28  C   UNL     1       0.831  13.372  19.535  0.00  0.00    +0.000 A 
ATOM     29  N   UNL     1       1.268  12.055  19.798  0.00  0.00    +0.000 N 
ATOM     30  C   UNL     1       0.462  11.059  20.335  0.00  0.00    +0.000 C 
ATOM     31  O   UNL     1      -0.703  11.175  20.707  0.00  0.00    +0.000 OA
ATOM     32  C   UNL     1       1.713  14.321  18.983  0.00  0.00    +0.000 A 
ATOM     33 CL   UNL     1       3.356  13.866  18.639  0.00  0.00    +0.000 Cl
ATOM     34  H   UNL     1       2.233  11.842  19.575  0.00  0.00    +0.000 HD
ENDBRANCH  21  30
ENDBRANCH  20  21
ENDBRANCH   1  20
TORSDOF 8
ENDMDL
