MODEL 1
REMARK VINA RESULT:      -8.3      0.000      0.000
REMARK  Name = 
REMARK  7 active torsions:
REMARK  status: ('A' for Active; 'I' for Inactive)
REMARK    1  A    between atoms: C_1  and  O_2
REMARK    2  A    between atoms: O_2  and  C_3
REMARK    3  A    between atoms: C_5  and  C_6
REMARK    4  A    between atoms: C_16  and  C_17
REMARK    5  A    between atoms: C_19  and  C_20
REMARK    6  A    between atoms: C_20  and  C_21
REMARK    7  A    between atoms: C_20  and  C_22
REMARK                            x       y       z     vdW  Elec       q    Type
REMARK                         _______ _______ _______ _____ _____    ______ ____
ROOT
ATOM      1  C   UNL     1       2.346   5.416  20.025  0.00  0.00    +0.000 A 
ATOM      2  N   UNL     1       1.633   6.435  20.564  0.00  0.00    +0.000 NA
ATOM      3  C   UNL     1       1.743   7.700  20.068  0.00  0.00    +0.000 A 
ATOM      4  C   UNL     1       2.558   7.996  18.972  0.00  0.00    +0.000 A 
ATOM      5  C   UNL     1       3.244   6.939  18.380  0.00  0.00    +0.000 A 
ATOM      6  N   UNL     1       4.072   6.930  17.287  0.00  0.00    +0.000 NA
ATOM      7  C   UNL     1       4.454   5.674  17.141  0.00  0.00    +0.000 A 
ATOM      8  N   UNL     1       3.915   4.887  18.125  0.00  0.00    +0.000 N 
ATOM      9  C   UNL     1       3.125   5.671  18.918  0.00  0.00    +0.000 A 
ATOM     10  H   UNL     1       4.062   3.891  18.232  0.00  0.00    +0.000 HD
ENDROOT
BRANCH   3  11
ATOM     11  C   UNL     1       0.928   8.760  20.722  0.00  0.00    +0.000 A 
ATOM     12  C   UNL     1       0.820   8.771  22.136  0.00  0.00    +0.000 A 
ATOM     13  C   UNL     1       0.030   9.699  22.823  0.00  0.00    +0.000 A 
ATOM     14  C   UNL     1      -0.660  10.672  22.117  0.00  0.00    +0.000 A 
ATOM     15  C   UNL     1      -0.559  10.712  20.730  0.00  0.00    +0.000 A 
ATOM     16  C   UNL     1       0.215   9.766  20.034  0.00  0.00    +0.000 A 
ATOM     17 CL   UNL     1       0.164   9.899  18.307  0.00  0.00    +0.000 Cl
ENDBRANCH   3  11
BRANCH   7  18
ATOM     18  C   UNL     1       5.309   5.205  16.092  0.00  0.00    +0.000 A 
ATOM     19  C   UNL     1       4.911   4.491  14.981  0.00  0.00    +0.000 A 
ATOM     20  C   UNL     1       5.997   4.140  14.108  0.00  0.00    +0.000 A 
ATOM     21  C   UNL     1       7.191   4.621  14.614  0.00  0.00    +0.000 A 
ATOM     22  S   UNL     1       6.998   5.466  16.086  0.00  0.00    +0.000 S 
BRANCH  20  23
ATOM     23  C   UNL     1       5.863   3.358  12.821  0.00  0.00    +0.000 C 
ATOM     24  C   UNL     1       4.517   3.616  12.139  0.00  0.00    +0.000 C 
ATOM     25  C   UNL     1       7.018   3.647  11.860  0.00  0.00    +0.000 C 
ENDBRANCH  20  23
ENDBRANCH   7  18
BRANCH   1  27
ATOM     26  C   UNL     1       1.102   3.449  20.212  0.00  0.00    +0.000 C 
ATOM     27  O   UNL     1       2.299   4.143  20.549  0.00  0.00    +0.000 OA
ENDBRANCH   1  27
TORSDOF 4
ENDMDL
MODEL 2
REMARK VINA RESULT:      -8.3      3.042      8.711
REMARK  Name = 
REMARK  7 active torsions:
REMARK  status: ('A' for Active; 'I' for Inactive)
REMARK    1  A    between atoms: C_1  and  O_2
REMARK    2  A    between atoms: O_2  and  C_3
REMARK    3  A    between atoms: C_5  and  C_6
REMARK    4  A    between atoms: C_16  and  C_17
REMARK    5  A    between atoms: C_19  and  C_20
REMARK    6  A    between atoms: C_20  and  C_21
REMARK    7  A    between atoms: C_20  and  C_22
REMARK                            x       y       z     vdW  Elec       q    Type
REMARK                         _______ _______ _______ _____ _____    ______ ____
ROOT
ATOM      1  C   UNL     1       2.624   5.087  20.453  0.00  0.00    +0.000 A 
ATOM      2  N   UNL     1       3.545   4.734  19.522  0.00  0.00    +0.000 NA
ATOM      3  C   UNL     1       3.905   5.603  18.535  0.00  0.00    +0.000 A 
ATOM      4  C   UNL     1       3.375   6.893  18.457  0.00  0.00    +0.000 A 
ATOM      5  C   UNL     1       2.475   7.277  19.447  0.00  0.00    +0.000 A 
ATOM      6  N   UNL     1       1.837   8.477  19.638  0.00  0.00    +0.000 NA
ATOM      7  C   UNL     1       1.102   8.318  20.724  0.00  0.00    +0.000 A 
ATOM      8  N   UNL     1       1.231   7.045  21.215  0.00  0.00    +0.000 N 
ATOM      9  C   UNL     1       2.117   6.367  20.425  0.00  0.00    +0.000 A 
ATOM     10  H   UNL     1       0.766   6.677  22.035  0.00  0.00    +0.000 HD
ENDROOT
BRANCH   3  11
ATOM     11  C   UNL     1       4.918   5.132  17.552  0.00  0.00    +0.000 A 
ATOM     12  C   UNL     1       4.483   4.656  16.289  0.00  0.00    +0.000 A 
ATOM     13  C   UNL     1       5.367   4.145  15.333  0.00  0.00    +0.000 A 
ATOM     14  C   UNL     1       6.728   4.120  15.596  0.00  0.00    +0.000 A 
ATOM     15  C   UNL     1       7.197   4.603  16.814  0.00  0.00    +0.000 A 
ATOM     16  C   UNL     1       6.310   5.095  17.788  0.00  0.00    +0.000 A 
ATOM     17 CL   UNL     1       7.046   5.574  19.281  0.00  0.00    +0.000 Cl
ENDBRANCH   3  11
BRANCH   7  18
ATOM     18  C   UNL     1       0.288   9.342  21.307  0.00  0.00    +0.000 A 
ATOM     19  C   UNL     1      -0.370  10.342  20.621  0.00  0.00    +0.000 A 
ATOM     20  C   UNL     1      -1.095  11.240  21.476  0.00  0.00    +0.000 A 
ATOM     21  C   UNL     1      -0.950  10.863  22.798  0.00  0.00    +0.000 A 
ATOM     22  S   UNL     1       0.026   9.474  22.991  0.00  0.00    +0.000 S 
BRANCH  20  23
ATOM     23  C   UNL     1      -1.904  12.428  21.006  0.00  0.00    +0.000 C 
ATOM     24  C   UNL     1      -2.402  12.242  19.570  0.00  0.00    +0.000 C 
ATOM     25  C   UNL     1      -3.073  12.725  21.948  0.00  0.00    +0.000 C 
ENDBRANCH  20  23
ENDBRANCH   7  18
BRANCH   1  27
ATOM     26  C   UNL     1       1.328   3.201  20.913  0.00  0.00    +0.000 C 
ATOM     27  O   UNL     1       2.199   4.206  21.422  0.00  0.00    +0.000 OA
ENDBRANCH   1  27
TORSDOF 4
ENDMDL
MODEL 3
REMARK VINA RESULT:      -8.2      2.913      8.916
REMARK  Name = 
REMARK  7 active torsions:
REMARK  status: ('A' for Active; 'I' for Inactive)
REMARK    1  A    between atoms: C_1  and  O_2
REMARK    2  A    between atoms: O_2  and  C_3
REMARK    3  A    between atoms: C_5  and  C_6
REMARK    4  A    between atoms: C_16  and  C_17
REMARK    5  A    between atoms: C_19  and  C_20
REMARK    6  A    between atoms: C_20  and  C_21
REMARK    7  A    between atoms: C_20  and  C_22
REMARK                            x       y       z     vdW  Elec       q    Type
REMARK                         _______ _______ _______ _____ _____    ______ ____
ROOT
ATOM      1  C   UNL     1       2.732   5.763  19.996  0.00  0.00    +0.000 A 
ATOM      2  N   UNL     1       3.693   5.322  19.147  0.00  0.00    +0.000 NA
ATOM      3  C   UNL     1       4.062   6.067  18.067  0.00  0.00    +0.000 A 
ATOM      4  C   UNL     1       3.500   7.319  17.805  0.00  0.00    +0.000 A 
ATOM      5  C   UNL     1       2.556   7.799  18.710  0.00  0.00    +0.000 A 
ATOM      6  N   UNL     1       1.879   8.992  18.724  0.00  0.00    +0.000 NA
ATOM      7  C   UNL     1       1.113   8.951  19.799  0.00  0.00    +0.000 A 
ATOM      8  N   UNL     1       1.260   7.757  20.454  0.00  0.00    +0.000 N 
ATOM      9  C   UNL     1       2.191   7.012  19.786  0.00  0.00    +0.000 A 
ATOM     10  H   UNL     1       0.777   7.484  21.301  0.00  0.00    +0.000 HD
ENDROOT
BRANCH   3  11
ATOM     11  C   UNL     1       5.121   5.505  17.185  0.00  0.00    +0.000 A 
ATOM     12  C   UNL     1       4.788   5.142  15.855  0.00  0.00    +0.000 A 
ATOM     13  C   UNL     1       5.711   4.557  14.981  0.00  0.00    +0.000 A 
ATOM     14  C   UNL     1       7.015   4.341  15.400  0.00  0.00    +0.000 A 
ATOM     15  C   UNL     1       7.388   4.709  16.689  0.00  0.00    +0.000 A 
ATOM     16  C   UNL     1       6.457   5.274  17.579  0.00  0.00    +0.000 A 
ATOM     17 CL   UNL     1       7.058   5.592  19.172  0.00  0.00    +0.000 Cl
ENDBRANCH   3  11
BRANCH   7  18
ATOM     18  C   UNL     1       0.251  10.016  20.218  0.00  0.00    +0.000 A 
ATOM     19  C   UNL     1       0.094  10.469  21.511  0.00  0.00    +0.000 A 
ATOM     20  C   UNL     1      -0.857  11.540  21.631  0.00  0.00    +0.000 A 
ATOM     21  C   UNL     1      -1.381  11.854  20.391  0.00  0.00    +0.000 A 
ATOM     22  S   UNL     1      -0.742  10.888  19.134  0.00  0.00    +0.000 S 
BRANCH  20  23
ATOM     23  C   UNL     1      -1.235  12.230  22.922  0.00  0.00    +0.000 C 
ATOM     24  C   UNL     1      -0.873  13.717  22.897  0.00  0.00    +0.000 C 
ATOM     25  C   UNL     1      -2.717  12.041  23.251  0.00  0.00    +0.000 C 
ENDBRANCH  20  23
ENDBRANCH   7  18
BRANCH   1  27
ATOM     26  C   UNL     1       1.254   4.100  20.705  0.00  0.00    +0.000 C 
ATOM     27  O   UNL     1       2.298   5.001  21.058  0.00  0.00    +0.000 OA
ENDBRANCH   1  27
TORSDOF 4
ENDMDL
MODEL 4
REMARK VINA RESULT:      -8.1      0.840      1.063
REMARK  Name = 
REMARK  7 active torsions:
REMARK  status: ('A' for Active; 'I' for Inactive)
REMARK    1  A    between atoms: C_1  and  O_2
REMARK    2  A    between atoms: O_2  and  C_3
REMARK    3  A    between atoms: C_5  and  C_6
REMARK    4  A    between atoms: C_16  and  C_17
REMARK    5  A    between atoms: C_19  and  C_20
REMARK    6  A    between atoms: C_20  and  C_21
REMARK    7  A    between atoms: C_20  and  C_22
REMARK                            x       y       z     vdW  Elec       q    Type
REMARK                         _______ _______ _______ _____ _____    ______ ____
ROOT
ATOM      1  C   UNL     1       2.687   5.032  19.448  0.00  0.00    +0.000 A 
ATOM      2  N   UNL     1       2.046   6.059  20.058  0.00  0.00    +0.000 NA
ATOM      3  C   UNL     1       2.184   7.336  19.600  0.00  0.00    +0.000 A 
ATOM      4  C   UNL     1       2.955   7.638  18.475  0.00  0.00    +0.000 A 
ATOM      5  C   UNL     1       3.565   6.577  17.812  0.00  0.00    +0.000 A 
ATOM      6  N   UNL     1       4.336   6.575  16.678  0.00  0.00    +0.000 NA
ATOM      7  C   UNL     1       4.656   5.310  16.470  0.00  0.00    +0.000 A 
ATOM      8  N   UNL     1       4.136   4.510  17.452  0.00  0.00    +0.000 N 
ATOM      9  C   UNL     1       3.420   5.296  18.312  0.00  0.00    +0.000 A 
ATOM     10  H   UNL     1       4.245   3.506  17.517  0.00  0.00    +0.000 HD
ENDROOT
BRANCH   3  11
ATOM     11  C   UNL     1       1.449   8.403  20.332  0.00  0.00    +0.000 A 
ATOM     12  C   UNL     1       1.412   8.366  21.749  0.00  0.00    +0.000 A 
ATOM     13  C   UNL     1       0.697   9.299  22.508  0.00  0.00    +0.000 A 
ATOM     14  C   UNL     1       0.015  10.326  21.873  0.00  0.00    +0.000 A 
ATOM     15  C   UNL     1       0.049  10.413  20.484  0.00  0.00    +0.000 A 
ATOM     16  C   UNL     1       0.746   9.462  19.717  0.00  0.00    +0.000 A 
ATOM     17 CL   UNL     1       0.616   9.661  18.001  0.00  0.00    +0.000 Cl
ENDBRANCH   3  11
BRANCH   7  18
ATOM     18  C   UNL     1       5.437   4.846  15.362  0.00  0.00    +0.000 A 
ATOM     19  C   UNL     1       4.943   4.330  14.182  0.00  0.00    +0.000 A 
ATOM     20  C   UNL     1       5.969   3.927  13.260  0.00  0.00    +0.000 A 
ATOM     21  C   UNL     1       7.218   4.168  13.801  0.00  0.00    +0.000 A 
ATOM     22  S   UNL     1       7.147   4.857  15.363  0.00  0.00    +0.000 S 
BRANCH  20  23
ATOM     23  C   UNL     1       5.726   3.327  11.894  0.00  0.00    +0.000 C 
ATOM     24  C   UNL     1       6.337   1.928  11.772  0.00  0.00    +0.000 C 
ATOM     25  C   UNL     1       4.236   3.295  11.548  0.00  0.00    +0.000 C 
ENDBRANCH  20  23
ENDBRANCH   7  18
BRANCH   1  27
ATOM     26  C   UNL     1       1.538   3.554  20.843  0.00  0.00    +0.000 C 
ATOM     27  O   UNL     1       2.613   3.744  19.929  0.00  0.00    +0.000 OA
ENDBRANCH   1  27
TORSDOF 4
ENDMDL
MODEL 5
REMARK VINA RESULT:      -8.0      3.018      8.791
REMARK  Name = 
REMARK  7 active torsions:
REMARK  status: ('A' for Active; 'I' for Inactive)
REMARK    1  A    between atoms: C_1  and  O_2
REMARK    2  A    between atoms: O_2  and  C_3
REMARK    3  A    between atoms: C_5  and  C_6
REMARK    4  A    between atoms: C_16  and  C_17
REMARK    5  A    between atoms: C_19  and  C_20
REMARK    6  A    between atoms: C_20  and  C_21
REMARK    7  A    between atoms: C_20  and  C_22
REMARK                            x       y       z     vdW  Elec       q    Type
REMARK                         _______ _______ _______ _____ _____    ______ ____
ROOT
ATOM      1  C   UNL     1       2.581   5.364  20.350  0.00  0.00    +0.000 A 
ATOM      2  N   UNL     1       3.363   5.003  19.303  0.00  0.00    +0.000 NA
ATOM      3  C   UNL     1       3.528   5.838  18.238  0.00  0.00    +0.000 A 
ATOM      4  C   UNL     1       2.936   7.102  18.191  0.00  0.00    +0.000 A 
ATOM      5  C   UNL     1       2.183   7.498  19.293  0.00  0.00    +0.000 A 
ATOM      6  N   UNL     1       1.529   8.681  19.532  0.00  0.00    +0.000 NA
ATOM      7  C   UNL     1       0.977   8.545  20.725  0.00  0.00    +0.000 A 
ATOM      8  N   UNL     1       1.237   7.302  21.240  0.00  0.00    +0.000 N 
ATOM      9  C   UNL     1       2.020   6.622  20.350  0.00  0.00    +0.000 A 
ATOM     10  H   UNL     1       0.919   6.956  22.137  0.00  0.00    +0.000 HD
ENDROOT
BRANCH   3  11
ATOM     11  C   UNL     1       4.399   5.360  17.130  0.00  0.00    +0.000 A 
ATOM     12  C   UNL     1       5.058   6.313  16.312  0.00  0.00    +0.000 A 
ATOM     13  C   UNL     1       5.847   5.947  15.217  0.00  0.00    +0.000 A 
ATOM     14  C   UNL     1       6.031   4.606  14.917  0.00  0.00    +0.000 A 
ATOM     15  C   UNL     1       5.423   3.639  15.712  0.00  0.00    +0.000 A 
ATOM     16  C   UNL     1       4.608   4.003  16.799  0.00  0.00    +0.000 A 
ATOM     17 CL   UNL     1       3.854   2.683  17.631  0.00  0.00    +0.000 Cl
ENDBRANCH   3  11
BRANCH   7  18
ATOM     18  C   UNL     1       0.218   9.564  21.385  0.00  0.00    +0.000 A 
ATOM     19  C   UNL     1      -0.352  10.668  20.784  0.00  0.00    +0.000 A 
ATOM     20  C   UNL     1      -1.039  11.530  21.705  0.00  0.00    +0.000 A 
ATOM     21  C   UNL     1      -0.957  11.021  22.987  0.00  0.00    +0.000 A 
ATOM     22  S   UNL     1      -0.082   9.555  23.068  0.00  0.00    +0.000 S 
BRANCH  20  23
ATOM     23  C   UNL     1      -1.753  12.810  21.333  0.00  0.00    +0.000 C 
ATOM     24  C   UNL     1      -2.457  12.693  19.979  0.00  0.00    +0.000 C 
ATOM     25  C   UNL     1      -2.740  13.242  22.419  0.00  0.00    +0.000 C 
ENDBRANCH  20  23
ENDBRANCH   7  18
BRANCH   1  27
ATOM     26  C   UNL     1       1.568   3.380  21.047  0.00  0.00    +0.000 C 
ATOM     27  O   UNL     1       2.349   4.514  21.409  0.00  0.00    +0.000 OA
ENDBRANCH   1  27
TORSDOF 4
ENDMDL
MODEL 6
REMARK VINA RESULT:      -7.9      0.982      1.082
REMARK  Name = 
REMARK  7 active torsions:
REMARK  status: ('A' for Active; 'I' for Inactive)
REMARK    1  A    between atoms: C_1  and  O_2
REMARK    2  A    between atoms: O_2  and  C_3
REMARK    3  A    between atoms: C_5  and  C_6
REMARK    4  A    between atoms: C_16  and  C_17
REMARK    5  A    between atoms: C_19  and  C_20
REMARK    6  A    between atoms: C_20  and  C_21
REMARK    7  A    between atoms: C_20  and  C_22
REMARK                            x       y       z     vdW  Elec       q    Type
REMARK                         _______ _______ _______ _____ _____    ______ ____
ROOT
ATOM      1  C   UNL     1       2.273   6.423  19.936  0.00  0.00    +0.000 A 
ATOM      2  N   UNL     1       1.477   7.486  20.211  0.00  0.00    +0.000 NA
ATOM      3  C   UNL     1       1.527   8.609  19.441  0.00  0.00    +0.000 A 
ATOM      4  C   UNL     1       2.364   8.705  18.326  0.00  0.00    +0.000 A 
ATOM      5  C   UNL     1       3.136   7.591  18.007  0.00  0.00    +0.000 A 
ATOM      6  N   UNL     1       4.005   7.393  16.964  0.00  0.00    +0.000 NA
ATOM      7  C   UNL     1       4.469   6.166  17.119  0.00  0.00    +0.000 A 
ATOM      8  N   UNL     1       3.944   5.587  18.244  0.00  0.00    +0.000 N 
ATOM      9  C   UNL     1       3.076   6.473  18.818  0.00  0.00    +0.000 A 
ATOM     10  H   UNL     1       4.149   4.654  18.580  0.00  0.00    +0.000 HD
ENDROOT
BRANCH   3  11
ATOM     11  C   UNL     1       0.624   9.731  19.816  0.00  0.00    +0.000 A 
ATOM     12  C   UNL     1       0.790  10.356  21.078  0.00  0.00    +0.000 A 
ATOM     13  C   UNL     1      -0.053  11.378  21.528  0.00  0.00    +0.000 A 
ATOM     14  C   UNL     1      -1.078  11.834  20.714  0.00  0.00    +0.000 A 
ATOM     15  C   UNL     1      -1.257  11.265  19.457  0.00  0.00    +0.000 A 
ATOM     16  C   UNL     1      -0.428  10.220  19.011  0.00  0.00    +0.000 A 
ATOM     17 CL   UNL     1      -0.839   9.562  17.461  0.00  0.00    +0.000 Cl
ENDBRANCH   3  11
BRANCH   7  18
ATOM     18  C   UNL     1       5.392   5.532  16.225  0.00  0.00    +0.000 A 
ATOM     19  C   UNL     1       5.075   4.938  15.021  0.00  0.00    +0.000 A 
ATOM     20  C   UNL     1       6.209   4.365  14.350  0.00  0.00    +0.000 A 
ATOM     21  C   UNL     1       7.355   4.562  15.097  0.00  0.00    +0.000 A 
ATOM     22  S   UNL     1       7.065   5.410  16.552  0.00  0.00    +0.000 S 
BRANCH  20  23
ATOM     23  C   UNL     1       6.163   3.649  13.019  0.00  0.00    +0.000 C 
ATOM     24  C   UNL     1       4.744   3.606  12.447  0.00  0.00    +0.000 C 
ATOM     25  C   UNL     1       7.133   4.268  12.011  0.00  0.00    +0.000 C 
ENDBRANCH  20  23
ENDBRANCH   7  18
BRANCH   1  27
ATOM     26  C   UNL     1       1.177   4.440  20.500  0.00  0.00    +0.000 C 
ATOM     27  O   UNL     1       2.286   5.302  20.736  0.00  0.00    +0.000 OA
ENDBRANCH   1  27
TORSDOF 4
ENDMDL
MODEL 7
REMARK VINA RESULT:      -7.9      2.971      8.954
REMARK  Name = 
REMARK  7 active torsions:
REMARK  status: ('A' for Active; 'I' for Inactive)
REMARK    1  A    between atoms: C_1  and  O_2
REMARK    2  A    between atoms: O_2  and  C_3
REMARK    3  A    between atoms: C_5  and  C_6
REMARK    4  A    between atoms: C_16  and  C_17
REMARK    5  A    between atoms: C_19  and  C_20
REMARK    6  A    between atoms: C_20  and  C_21
REMARK    7  A    between atoms: C_20  and  C_22
REMARK                            x       y       z     vdW  Elec       q    Type
REMARK                         _______ _______ _______ _____ _____    ______ ____
ROOT
ATOM      1  C   UNL     1       2.420   5.975  20.167  0.00  0.00    +0.000 A 
ATOM      2  N   UNL     1       3.326   5.469  19.294  0.00  0.00    +0.000 NA
ATOM      3  C   UNL     1       3.692   6.172  18.186  0.00  0.00    +0.000 A 
ATOM      4  C   UNL     1       3.186   7.446  17.917  0.00  0.00    +0.000 A 
ATOM      5  C   UNL     1       2.302   7.992  18.844  0.00  0.00    +0.000 A 
ATOM      6  N   UNL     1       1.688   9.219  18.857  0.00  0.00    +0.000 NA
ATOM      7  C   UNL     1       0.960   9.239  19.959  0.00  0.00    +0.000 A 
ATOM      8  N   UNL     1       1.071   8.052  20.635  0.00  0.00    +0.000 N 
ATOM      9  C   UNL     1       1.937   7.247  19.950  0.00  0.00    +0.000 A 
ATOM     10  H   UNL     1       0.606   7.822  21.504  0.00  0.00    +0.000 HD
ENDROOT
BRANCH   3  11
ATOM     11  C   UNL     1       4.687   5.539  17.278  0.00  0.00    +0.000 A 
ATOM     12  C   UNL     1       5.885   6.236  16.976  0.00  0.00    +0.000 A 
ATOM     13  C   UNL     1       6.844   5.735  16.089  0.00  0.00    +0.000 A 
ATOM     14  C   UNL     1       6.651   4.498  15.493  0.00  0.00    +0.000 A 
ATOM     15  C   UNL     1       5.501   3.771  15.784  0.00  0.00    +0.000 A 
ATOM     16  C   UNL     1       4.523   4.282  16.656  0.00  0.00    +0.000 A 
ATOM     17 CL   UNL     1       3.113   3.293  16.843  0.00  0.00    +0.000 Cl
ENDBRANCH   3  11
BRANCH   7  18
ATOM     18  C   UNL     1       0.171  10.356  20.386  0.00  0.00    +0.000 A 
ATOM     19  C   UNL     1      -0.134  10.680  21.692  0.00  0.00    +0.000 A 
ATOM     20  C   UNL     1      -0.964  11.847  21.812  0.00  0.00    +0.000 A 
ATOM     21  C   UNL     1      -1.249  12.362  20.561  0.00  0.00    +0.000 A 
ATOM     22  S   UNL     1      -0.536  11.464  19.294  0.00  0.00    +0.000 S 
BRANCH  20  23
ATOM     23  C   UNL     1      -1.457  12.435  23.115  0.00  0.00    +0.000 C 
ATOM     24  C   UNL     1      -1.132  13.926  23.223  0.00  0.00    +0.000 C 
ATOM     25  C   UNL     1      -2.955  12.194  23.312  0.00  0.00    +0.000 C 
ENDBRANCH  20  23
ENDBRANCH   7  18
BRANCH   1  27
ATOM     26  C   UNL     1       2.230   3.861  21.138  0.00  0.00    +0.000 C 
ATOM     27  O   UNL     1       1.988   5.259  21.261  0.00  0.00    +0.000 OA
ENDBRANCH   1  27
TORSDOF 4
ENDMDL
MODEL 8
REMARK VINA RESULT:      -7.9      3.082      8.564
REMARK  Name = 
REMARK  7 active torsions:
REMARK  status: ('A' for Active; 'I' for Inactive)
REMARK    1  A    between atoms: C_1  and  O_2
REMARK    2  A    between atoms: O_2  and  C_3
REMARK    3  A    between atoms: C_5  and  C_6
REMARK    4  A    between atoms: C_16  and  C_17
REMARK    5  A    between atoms: C_19  and  C_20
REMARK    6  A    between atoms: C_20  and  C_21
REMARK    7  A    between atoms: C_20  and  C_22
REMARK                            x       y       z     vdW  Elec       q    Type
REMARK                         _______ _______ _______ _____ _____    ______ ____
ROOT
ATOM      1  C   UNL     1       2.658   5.989  19.859  0.00  0.00    +0.000 A 
ATOM      2  N   UNL     1       3.634   5.469  19.076  0.00  0.00    +0.000 NA
ATOM      3  C   UNL     1       4.066   6.135  17.968  0.00  0.00    +0.000 A 
ATOM      4  C   UNL     1       3.554   7.385  17.610  0.00  0.00    +0.000 A 
ATOM      5  C   UNL     1       2.595   7.948  18.448  0.00  0.00    +0.000 A 
ATOM      6  N   UNL     1       1.956   9.160  18.365  0.00  0.00    +0.000 NA
ATOM      7  C   UNL     1       1.150   9.207  19.410  0.00  0.00    +0.000 A 
ATOM      8  N   UNL     1       1.235   8.051  20.141  0.00  0.00    +0.000 N 
ATOM      9  C   UNL     1       2.165   7.239  19.555  0.00  0.00    +0.000 A 
ATOM     10  H   UNL     1       0.714   7.845  20.984  0.00  0.00    +0.000 HD
ENDROOT
BRANCH   3  11
ATOM     11  C   UNL     1       5.137   5.490  17.161  0.00  0.00    +0.000 A 
ATOM     12  C   UNL     1       4.844   5.064  15.841  0.00  0.00    +0.000 A 
ATOM     13  C   UNL     1       5.778   4.400  15.039  0.00  0.00    +0.000 A 
ATOM     14  C   UNL     1       7.056   4.164  15.522  0.00  0.00    +0.000 A 
ATOM     15  C   UNL     1       7.392   4.590  16.804  0.00  0.00    +0.000 A 
ATOM     16  C   UNL     1       6.448   5.236  17.622  0.00  0.00    +0.000 A 
ATOM     17 CL   UNL     1       6.998   5.623  19.219  0.00  0.00    +0.000 Cl
ENDBRANCH   3  11
BRANCH   7  18
ATOM     18  C   UNL     1       0.309  10.321  19.732  0.00  0.00    +0.000 A 
ATOM     19  C   UNL     1      -0.918  10.599  19.168  0.00  0.00    +0.000 A 
ATOM     20  C   UNL     1      -1.523  11.799  19.676  0.00  0.00    +0.000 A 
ATOM     21  C   UNL     1      -0.705  12.381  20.626  0.00  0.00    +0.000 A 
ATOM     22  S   UNL     1       0.738  11.503  20.890  0.00  0.00    +0.000 S 
BRANCH  20  23
ATOM     23  C   UNL     1      -2.862  12.352  19.241  0.00  0.00    +0.000 C 
ATOM     24  C   UNL     1      -3.589  11.395  18.293  0.00  0.00    +0.000 C 
ATOM     25  C   UNL     1      -3.747  12.699  20.440  0.00  0.00    +0.000 C 
ENDBRANCH  20  23
ENDBRANCH   7  18
BRANCH   1  27
ATOM     26  C   UNL     1       1.180   4.338  20.594  0.00  0.00    +0.000 C 
ATOM     27  O   UNL     1       2.161   5.307  20.948  0.00  0.00    +0.000 OA
ENDBRANCH   1  27
TORSDOF 4
ENDMDL
MODEL 9
REMARK VINA RESULT:      -7.8      1.216      1.645
REMARK  Name = 
REMARK  7 active torsions:
REMARK  status: ('A' for Active; 'I' for Inactive)
REMARK    1  A    between atoms: C_1  and  O_2
REMARK    2  A    between atoms: O_2  and  C_3
REMARK    3  A    between atoms: C_5  and  C_6
REMARK    4  A    between atoms: C_16  and  C_17
REMARK    5  A    between atoms: C_19  and  C_20
REMARK    6  A    between atoms: C_20  and  C_21
REMARK    7  A    between atoms: C_20  and  C_22
REMARK                            x       y       z     vdW  Elec       q    Type
REMARK                         _______ _______ _______ _____ _____    ______ ____
ROOT
ATOM      1  C   UNL     1       2.266   6.322  20.040  0.00  0.00    +0.000 A 
ATOM      2  N   UNL     1       1.456   7.382  20.280  0.00  0.00    +0.000 NA
ATOM      3  C   UNL     1       1.484   8.477  19.469  0.00  0.00    +0.000 A 
ATOM      4  C   UNL     1       2.312   8.543  18.345  0.00  0.00    +0.000 A 
ATOM      5  C   UNL     1       3.100   7.430  18.063  0.00  0.00    +0.000 A 
ATOM      6  N   UNL     1       3.965   7.206  17.022  0.00  0.00    +0.000 NA
ATOM      7  C   UNL     1       4.449   5.993  17.219  0.00  0.00    +0.000 A 
ATOM      8  N   UNL     1       3.939   5.448  18.369  0.00  0.00    +0.000 N 
ATOM      9  C   UNL     1       3.061   6.342  18.915  0.00  0.00    +0.000 A 
ATOM     10  H   UNL     1       4.159   4.532  18.737  0.00  0.00    +0.000 HD
ENDROOT
BRANCH   3  11
ATOM     11  C   UNL     1       0.566   9.598  19.808  0.00  0.00    +0.000 A 
ATOM     12  C   UNL     1      -0.106  10.279  18.762  0.00  0.00    +0.000 A 
ATOM     13  C   UNL     1      -0.941  11.377  18.993  0.00  0.00    +0.000 A 
ATOM     14  C   UNL     1      -1.158  11.817  20.290  0.00  0.00    +0.000 A 
ATOM     15  C   UNL     1      -0.537  11.158  21.347  0.00  0.00    +0.000 A 
ATOM     16  C   UNL     1       0.322  10.069  21.117  0.00  0.00    +0.000 A 
ATOM     17 CL   UNL     1       1.084   9.419  22.531  0.00  0.00    +0.000 Cl
ENDBRANCH   3  11
BRANCH   7  18
ATOM     18  C   UNL     1       5.375   5.340  16.343  0.00  0.00    +0.000 A 
ATOM     19  C   UNL     1       5.103   4.886  15.069  0.00  0.00    +0.000 A 
ATOM     20  C   UNL     1       6.226   4.252  14.436  0.00  0.00    +0.000 A 
ATOM     21  C   UNL     1       7.320   4.262  15.282  0.00  0.00    +0.000 A 
ATOM     22  S   UNL     1       6.994   5.013  16.782  0.00  0.00    +0.000 S 
BRANCH  20  23
ATOM     23  C   UNL     1       6.222   3.658  13.046  0.00  0.00    +0.000 C 
ATOM     24  C   UNL     1       4.807   3.584  12.466  0.00  0.00    +0.000 C 
ATOM     25  C   UNL     1       7.152   4.422  12.101  0.00  0.00    +0.000 C 
ENDBRANCH  20  23
ENDBRANCH   7  18
BRANCH   1  27
ATOM     26  C   UNL     1       1.292   4.270  20.582  0.00  0.00    +0.000 C 
ATOM     27  O   UNL     1       2.300   5.231  20.880  0.00  0.00    +0.000 OA
ENDBRANCH   1  27
TORSDOF 4
ENDMDL
