MODEL 1
REMARK VINA RESULT:      -8.3      0.000      0.000
REMARK  Name = 
REMARK  9 active torsions:
REMARK  status: ('A' for Active; 'I' for Inactive)
REMARK    1  A    between atoms: C_2  and  C_3
REMARK    2  A    between atoms: C_2  and  C_13
REMARK    3  A    between atoms: C_3  and  C_4
REMARK    4  A    between atoms: C_4  and  C_5
REMARK    5  A    between atoms: C_5  and  C_6
REMARK    6  A    between atoms: C_6  and  C_7
REMARK    7  A    between atoms: N_15  and  C_16
REMARK    8  A    between atoms: C_16  and  C_17
REMARK    9  A    between atoms: C_17  and  C_18
REMARK                            x       y       z     vdW  Elec       q    Type
REMARK                         _______ _______ _______ _____ _____    ______ ____
ROOT
ATOM      1  O   UNL     1       7.513   4.860  15.500  0.00  0.00    +0.000 OA
ATOM      2  C   UNL     1       6.826   5.606  16.179  0.00  0.00    +0.000 C 
ENDROOT
BRANCH   2   3
ATOM      3  C   UNL     1       7.467   6.387  17.342  0.00  0.00    +0.000 C 
ATOM      4  O   UNL     1       7.773   5.802  18.373  0.00  0.00    +0.000 OA
ATOM      5  N   UNL     1       7.666   7.742  17.138  0.00  0.00    +0.000 N 
ATOM      6  H   UNL     1       7.402   8.162  16.248  0.00  0.00    +0.000 HD
BRANCH   5   7
ATOM      7  C   UNL     1       8.255   8.533  18.199  0.00  0.00    +0.000 C 
BRANCH   7   8
ATOM      8  C   UNL     1       8.234  10.038  17.937  0.00  0.00    +0.000 C 
BRANCH   8   9
ATOM      9  C   UNL     1       9.409  10.697  18.621  0.00  0.00    +0.000 A 
ATOM     10  C   UNL     1       9.417  10.856  20.014  0.00  0.00    +0.000 A 
ATOM     11  C   UNL     1      10.413  11.615  20.631  0.00  0.00    +0.000 A 
ATOM     12  C   UNL     1      11.426  12.190  19.868  0.00  0.00    +0.000 A 
ATOM     13  C   UNL     1      11.453  11.998  18.488  0.00  0.00    +0.000 A 
ATOM     14  C   UNL     1      10.446  11.259  17.865  0.00  0.00    +0.000 A 
ENDBRANCH   8   9
ENDBRANCH   7   8
ENDBRANCH   5   7
ENDBRANCH   2   3
BRANCH   2  15
ATOM     15  C   UNL     1       5.328   5.780  15.979  0.00  0.00    +0.000 C 
BRANCH  15  16
ATOM     16  C   UNL     1       4.535   5.300  17.196  0.00  0.00    +0.000 C 
BRANCH  16  17
ATOM     17  C   UNL     1       3.839   6.459  17.909  0.00  0.00    +0.000 C 
BRANCH  17  18
ATOM     18  C   UNL     1       2.325   6.247  17.952  0.00  0.00    +0.000 C 
BRANCH  18  19
ATOM     19  C   UNL     1       1.974   5.050  18.795  0.00  0.00    +0.000 A 
ATOM     20  C   UNL     1       1.512   3.869  18.197  0.00  0.00    +0.000 A 
ATOM     21  C   UNL     1       1.102   2.793  18.985  0.00  0.00    +0.000 A 
ATOM     22  C   UNL     1       1.179   2.879  20.375  0.00  0.00    +0.000 A 
ATOM     23  C   UNL     1       1.661   4.040  20.977  0.00  0.00    +0.000 A 
ATOM     24  C   UNL     1       2.048   5.125  20.192  0.00  0.00    +0.000 A 
ENDBRANCH  18  19
ENDBRANCH  17  18
ENDBRANCH  16  17
ENDBRANCH  15  16
ENDBRANCH   2  15
TORSDOF 9
ENDMDL
MODEL 2
REMARK VINA RESULT:      -8.2      1.149      1.818
REMARK  Name = 
REMARK  9 active torsions:
REMARK  status: ('A' for Active; 'I' for Inactive)
REMARK    1  A    between atoms: C_2  and  C_3
REMARK    2  A    between atoms: C_2  and  C_13
REMARK    3  A    between atoms: C_3  and  C_4
REMARK    4  A    between atoms: C_4  and  C_5
REMARK    5  A    between atoms: C_5  and  C_6
REMARK    6  A    between atoms: C_6  and  C_7
REMARK    7  A    between atoms: N_15  and  C_16
REMARK    8  A    between atoms: C_16  and  C_17
REMARK    9  A    between atoms: C_17  and  C_18
REMARK                            x       y       z     vdW  Elec       q    Type
REMARK                         _______ _______ _______ _____ _____    ______ ____
ROOT
ATOM      1  O   UNL     1       7.914   4.961  17.253  0.00  0.00    +0.000 OA
ATOM      2  C   UNL     1       7.314   5.780  17.929  0.00  0.00    +0.000 C 
ENDROOT
BRANCH   2   3
ATOM      3  C   UNL     1       7.514   7.285  17.664  0.00  0.00    +0.000 C 
ATOM      4  O   UNL     1       6.912   7.826  16.746  0.00  0.00    +0.000 OA
ATOM      5  N   UNL     1       8.387   7.948  18.509  0.00  0.00    +0.000 N 
ATOM      6  H   UNL     1       8.843   7.439  19.264  0.00  0.00    +0.000 HD
BRANCH   5   7
ATOM      7  C   UNL     1       8.625   9.362  18.303  0.00  0.00    +0.000 C 
BRANCH   7   8
ATOM      8  C   UNL     1       9.147  10.091  19.540  0.00  0.00    +0.000 C 
BRANCH   8   9
ATOM      9  C   UNL     1      10.224  11.074  19.143  0.00  0.00    +0.000 A 
ATOM     10  C   UNL     1      11.025  11.677  20.122  0.00  0.00    +0.000 A 
ATOM     11  C   UNL     1      11.899  12.710  19.780  0.00  0.00    +0.000 A 
ATOM     12  C   UNL     1      12.007  13.124  18.455  0.00  0.00    +0.000 A 
ATOM     13  C   UNL     1      11.249  12.498  17.467  0.00  0.00    +0.000 A 
ATOM     14  C   UNL     1      10.357  11.480  17.808  0.00  0.00    +0.000 A 
ENDBRANCH   8   9
ENDBRANCH   7   8
ENDBRANCH   5   7
ENDBRANCH   2   3
BRANCH   2  15
ATOM     15  C   UNL     1       6.395   5.403  19.083  0.00  0.00    +0.000 C 
BRANCH  15  16
ATOM     16  C   UNL     1       5.219   4.546  18.612  0.00  0.00    +0.000 C 
BRANCH  16  17
ATOM     17  C   UNL     1       4.477   5.198  17.445  0.00  0.00    +0.000 C 
BRANCH  17  18
ATOM     18  C   UNL     1       3.197   5.885  17.923  0.00  0.00    +0.000 C 
BRANCH  18  19
ATOM     19  C   UNL     1       2.297   4.909  18.635  0.00  0.00    +0.000 A 
ATOM     20  C   UNL     1       1.981   5.089  19.988  0.00  0.00    +0.000 A 
ATOM     21  C   UNL     1       1.220   4.137  20.667  0.00  0.00    +0.000 A 
ATOM     22  C   UNL     1       0.745   3.014  19.991  0.00  0.00    +0.000 A 
ATOM     23  C   UNL     1       1.034   2.840  18.638  0.00  0.00    +0.000 A 
ATOM     24  C   UNL     1       1.814   3.778  17.965  0.00  0.00    +0.000 A 
ENDBRANCH  18  19
ENDBRANCH  17  18
ENDBRANCH  16  17
ENDBRANCH  15  16
ENDBRANCH   2  15
TORSDOF 9
ENDMDL
MODEL 3
REMARK VINA RESULT:      -7.8      1.502      9.279
REMARK  Name = 
REMARK  9 active torsions:
REMARK  status: ('A' for Active; 'I' for Inactive)
REMARK    1  A    between atoms: C_2  and  C_3
REMARK    2  A    between atoms: C_2  and  C_13
REMARK    3  A    between atoms: C_3  and  C_4
REMARK    4  A    between atoms: C_4  and  C_5
REMARK    5  A    between atoms: C_5  and  C_6
REMARK    6  A    between atoms: C_6  and  C_7
REMARK    7  A    between atoms: N_15  and  C_16
REMARK    8  A    between atoms: C_16  and  C_17
REMARK    9  A    between atoms: C_17  and  C_18
REMARK                            x       y       z     vdW  Elec       q    Type
REMARK                         _______ _______ _______ _____ _____    ______ ____
ROOT
ATOM      1  O   UNL     1       7.880   4.894  18.849  0.00  0.00    +0.000 OA
ATOM      2  C   UNL     1       7.130   5.636  18.236  0.00  0.00    +0.000 C 
ENDROOT
BRANCH   2   3
ATOM      3  C   UNL     1       5.616   5.598  18.521  0.00  0.00    +0.000 C 
ATOM      4  O   UNL     1       5.209   5.725  19.668  0.00  0.00    +0.000 OA
ATOM      5  N   UNL     1       4.788   5.420  17.425  0.00  0.00    +0.000 N 
ATOM      6  H   UNL     1       5.193   5.337  16.495  0.00  0.00    +0.000 HD
BRANCH   5   7
ATOM      7  C   UNL     1       3.355   5.366  17.631  0.00  0.00    +0.000 C 
BRANCH   7   8
ATOM      8  C   UNL     1       2.765   3.961  17.518  0.00  0.00    +0.000 C 
BRANCH   8   9
ATOM      9  C   UNL     1       2.470   3.413  18.895  0.00  0.00    +0.000 A 
ATOM     10  C   UNL     1       1.220   3.635  19.490  0.00  0.00    +0.000 A 
ATOM     11  C   UNL     1       1.002   3.284  20.823  0.00  0.00    +0.000 A 
ATOM     12  C   UNL     1       2.016   2.678  21.561  0.00  0.00    +0.000 A 
ATOM     13  C   UNL     1       3.247   2.412  20.964  0.00  0.00    +0.000 A 
ATOM     14  C   UNL     1       3.477   2.782  19.638  0.00  0.00    +0.000 A 
ENDBRANCH   8   9
ENDBRANCH   7   8
ENDBRANCH   5   7
ENDBRANCH   2   3
BRANCH   2  15
ATOM     15  C   UNL     1       7.599   6.585  17.143  0.00  0.00    +0.000 C 
BRANCH  15  16
ATOM     16  C   UNL     1       7.286   8.042  17.486  0.00  0.00    +0.000 C 
BRANCH  16  17
ATOM     17  C   UNL     1       8.429   8.698  18.261  0.00  0.00    +0.000 C 
BRANCH  17  18
ATOM     18  C   UNL     1       8.429  10.214  18.060  0.00  0.00    +0.000 C 
BRANCH  18  19
ATOM     19  C   UNL     1       9.667  10.835  18.650  0.00  0.00    +0.000 A 
ATOM     20  C   UNL     1       9.754  11.080  20.027  0.00  0.00    +0.000 A 
ATOM     21  C   UNL     1      10.865  11.736  20.558  0.00  0.00    +0.000 A 
ATOM     22  C   UNL     1      11.909  12.126  19.721  0.00  0.00    +0.000 A 
ATOM     23  C   UNL     1      11.843  11.863  18.353  0.00  0.00    +0.000 A 
ATOM     24  C   UNL     1      10.723  11.229  17.818  0.00  0.00    +0.000 A 
ENDBRANCH  18  19
ENDBRANCH  17  18
ENDBRANCH  16  17
ENDBRANCH  15  16
ENDBRANCH   2  15
TORSDOF 9
ENDMDL
MODEL 4
REMARK VINA RESULT:      -7.7      1.830      8.943
REMARK  Name = 
REMARK  9 active torsions:
REMARK  status: ('A' for Active; 'I' for Inactive)
REMARK    1  A    between atoms: C_2  and  C_3
REMARK    2  A    between atoms: C_2  and  C_13
REMARK    3  A    between atoms: C_3  and  C_4
REMARK    4  A    between atoms: C_4  and  C_5
REMARK    5  A    between atoms: C_5  and  C_6
REMARK    6  A    between atoms: C_6  and  C_7
REMARK    7  A    between atoms: N_15  and  C_16
REMARK    8  A    between atoms: C_16  and  C_17
REMARK    9  A    between atoms: C_17  and  C_18
REMARK                            x       y       z     vdW  Elec       q    Type
REMARK                         _______ _______ _______ _____ _____    ______ ____
ROOT
ATOM      1  O   UNL     1       7.555   5.557  20.272  0.00  0.00    +0.000 OA
ATOM      2  C   UNL     1       7.141   5.488  19.126  0.00  0.00    +0.000 C 
ENDROOT
BRANCH   2   3
ATOM      3  C   UNL     1       5.998   4.513  18.784  0.00  0.00    +0.000 C 
ATOM      4  O   UNL     1       5.483   3.844  19.670  0.00  0.00    +0.000 OA
ATOM      5  N   UNL     1       5.613   4.458  17.455  0.00  0.00    +0.000 N 
ATOM      6  H   UNL     1       6.075   5.056  16.771  0.00  0.00    +0.000 HD
BRANCH   5   7
ATOM      7  C   UNL     1       4.551   3.552  17.069  0.00  0.00    +0.000 C 
BRANCH   7   8
ATOM      8  C   UNL     1       3.207   4.238  16.829  0.00  0.00    +0.000 C 
BRANCH   8   9
ATOM      9  C   UNL     1       2.334   4.106  18.056  0.00  0.00    +0.000 A 
ATOM     10  C   UNL     1       2.345   5.102  19.041  0.00  0.00    +0.000 A 
ATOM     11  C   UNL     1       1.677   4.905  20.251  0.00  0.00    +0.000 A 
ATOM     12  C   UNL     1       0.966   3.728  20.472  0.00  0.00    +0.000 A 
ATOM     13  C   UNL     1       0.912   2.751  19.480  0.00  0.00    +0.000 A 
ATOM     14  C   UNL     1       1.596   2.935  18.278  0.00  0.00    +0.000 A 
ENDBRANCH   8   9
ENDBRANCH   7   8
ENDBRANCH   5   7
ENDBRANCH   2   3
BRANCH   2  15
ATOM     15  C   UNL     1       7.731   6.287  17.973  0.00  0.00    +0.000 C 
BRANCH  15  16
ATOM     16  C   UNL     1       6.859   7.490  17.614  0.00  0.00    +0.000 C 
BRANCH  16  17
ATOM     17  C   UNL     1       7.667   8.787  17.589  0.00  0.00    +0.000 C 
BRANCH  17  18
ATOM     18  C   UNL     1       8.703   8.810  18.714  0.00  0.00    +0.000 C 
BRANCH  18  19
ATOM     19  C   UNL     1       9.171  10.215  18.986  0.00  0.00    +0.000 A 
ATOM     20  C   UNL     1       9.231  11.158  17.950  0.00  0.00    +0.000 A 
ATOM     21  C   UNL     1       9.750  12.432  18.186  0.00  0.00    +0.000 A 
ATOM     22  C   UNL     1      10.185  12.781  19.464  0.00  0.00    +0.000 A 
ATOM     23  C   UNL     1      10.106  11.858  20.505  0.00  0.00    +0.000 A 
ATOM     24  C   UNL     1       9.610  10.577  20.266  0.00  0.00    +0.000 A 
ENDBRANCH  18  19
ENDBRANCH  17  18
ENDBRANCH  16  17
ENDBRANCH  15  16
ENDBRANCH   2  15
TORSDOF 9
ENDMDL
MODEL 5
REMARK VINA RESULT:      -7.5      1.305      9.244
REMARK  Name = 
REMARK  9 active torsions:
REMARK  status: ('A' for Active; 'I' for Inactive)
REMARK    1  A    between atoms: C_2  and  C_3
REMARK    2  A    between atoms: C_2  and  C_13
REMARK    3  A    between atoms: C_3  and  C_4
REMARK    4  A    between atoms: C_4  and  C_5
REMARK    5  A    between atoms: C_5  and  C_6
REMARK    6  A    between atoms: C_6  and  C_7
REMARK    7  A    between atoms: N_15  and  C_16
REMARK    8  A    between atoms: C_16  and  C_17
REMARK    9  A    between atoms: C_17  and  C_18
REMARK                            x       y       z     vdW  Elec       q    Type
REMARK                         _______ _______ _______ _____ _____    ______ ____
ROOT
ATOM      1  O   UNL     1       7.372   5.389  20.174  0.00  0.00    +0.000 OA
ATOM      2  C   UNL     1       7.172   5.751  19.027  0.00  0.00    +0.000 C 
ENDROOT
BRANCH   2   3
ATOM      3  C   UNL     1       5.875   5.331  18.307  0.00  0.00    +0.000 C 
ATOM      4  O   UNL     1       5.709   4.161  17.987  0.00  0.00    +0.000 OA
ATOM      5  N   UNL     1       4.952   6.334  18.065  0.00  0.00    +0.000 N 
ATOM      6  H   UNL     1       5.149   7.285  18.372  0.00  0.00    +0.000 HD
BRANCH   5   7
ATOM      7  C   UNL     1       3.719   6.002  17.382  0.00  0.00    +0.000 C 
BRANCH   7   8
ATOM      8  C   UNL     1       2.461   6.278  18.204  0.00  0.00    +0.000 C 
BRANCH   8   9
ATOM      9  C   UNL     1       2.083   5.049  18.997  0.00  0.00    +0.000 A 
ATOM     10  C   UNL     1       1.515   3.940  18.355  0.00  0.00    +0.000 A 
ATOM     11  C   UNL     1       1.007   2.877  19.101  0.00  0.00    +0.000 A 
ATOM     12  C   UNL     1       1.092   2.895  20.491  0.00  0.00    +0.000 A 
ATOM     13  C   UNL     1       1.696   3.972  21.137  0.00  0.00    +0.000 A 
ATOM     14  C   UNL     1       2.186   5.048  20.395  0.00  0.00    +0.000 A 
ENDBRANCH   8   9
ENDBRANCH   7   8
ENDBRANCH   5   7
ENDBRANCH   2   3
BRANCH   2  15
ATOM     15  C   UNL     1       8.168   6.571  18.220  0.00  0.00    +0.000 C 
BRANCH  15  16
ATOM     16  C   UNL     1       8.315   7.988  18.775  0.00  0.00    +0.000 C 
BRANCH  16  17
ATOM     17  C   UNL     1       8.304   9.036  17.662  0.00  0.00    +0.000 C 
BRANCH  17  18
ATOM     18  C   UNL     1       8.172  10.446  18.236  0.00  0.00    +0.000 C 
BRANCH  18  19
ATOM     19  C   UNL     1       9.507  10.966  18.699  0.00  0.00    +0.000 A 
ATOM     20  C   UNL     1       9.748  11.197  20.060  0.00  0.00    +0.000 A 
ATOM     21  C   UNL     1      10.954  11.763  20.477  0.00  0.00    +0.000 A 
ATOM     22  C   UNL     1      11.938  12.074  19.539  0.00  0.00    +0.000 A 
ATOM     23  C   UNL     1      11.716  11.824  18.185  0.00  0.00    +0.000 A 
ATOM     24  C   UNL     1      10.503  11.281  17.766  0.00  0.00    +0.000 A 
ENDBRANCH  18  19
ENDBRANCH  17  18
ENDBRANCH  16  17
ENDBRANCH  15  16
ENDBRANCH   2  15
TORSDOF 9
ENDMDL
MODEL 6
REMARK VINA RESULT:      -7.4      1.702     10.039
REMARK  Name = 
REMARK  9 active torsions:
REMARK  status: ('A' for Active; 'I' for Inactive)
REMARK    1  A    between atoms: C_2  and  C_3
REMARK    2  A    between atoms: C_2  and  C_13
REMARK    3  A    between atoms: C_3  and  C_4
REMARK    4  A    between atoms: C_4  and  C_5
REMARK    5  A    between atoms: C_5  and  C_6
REMARK    6  A    between atoms: C_6  and  C_7
REMARK    7  A    between atoms: N_15  and  C_16
REMARK    8  A    between atoms: C_16  and  C_17
REMARK    9  A    between atoms: C_17  and  C_18
REMARK                            x       y       z     vdW  Elec       q    Type
REMARK                         _______ _______ _______ _____ _____    ______ ____
ROOT
ATOM      1  O   UNL     1       8.220   6.668  18.989  0.00  0.00    +0.000 OA
ATOM      2  C   UNL     1       7.771   7.240  18.010  0.00  0.00    +0.000 C 
ENDROOT
BRANCH   2   3
ATOM      3  C   UNL     1       6.975   6.444  16.958  0.00  0.00    +0.000 C 
ATOM      4  O   UNL     1       7.508   6.129  15.902  0.00  0.00    +0.000 OA
ATOM      5  N   UNL     1       5.669   6.124  17.287  0.00  0.00    +0.000 N 
ATOM      6  H   UNL     1       5.293   6.405  18.191  0.00  0.00    +0.000 HD
BRANCH   5   7
ATOM      7  C   UNL     1       4.866   5.386  16.333  0.00  0.00    +0.000 C 
BRANCH   7   8
ATOM      8  C   UNL     1       4.829   3.880  16.588  0.00  0.00    +0.000 C 
BRANCH   8   9
ATOM      9  C   UNL     1       3.662   3.537  17.484  0.00  0.00    +0.000 A 
ATOM     10  C   UNL     1       3.601   2.288  18.118  0.00  0.00    +0.000 A 
ATOM     11  C   UNL     1       2.450   1.900  18.804  0.00  0.00    +0.000 A 
ATOM     12  C   UNL     1       1.364   2.768  18.892  0.00  0.00    +0.000 A 
ATOM     13  C   UNL     1       1.432   4.030  18.305  0.00  0.00    +0.000 A 
ATOM     14  C   UNL     1       2.574   4.413  17.599  0.00  0.00    +0.000 A 
ENDBRANCH   8   9
ENDBRANCH   7   8
ENDBRANCH   5   7
ENDBRANCH   2   3
BRANCH   2  15
ATOM     15  C   UNL     1       7.996   8.719  17.726  0.00  0.00    +0.000 C 
BRANCH  15  16
ATOM     16  C   UNL     1       8.922   9.359  18.761  0.00  0.00    +0.000 C 
BRANCH  16  17
ATOM     17  C   UNL     1       9.411  10.734  18.308  0.00  0.00    +0.000 C 
BRANCH  17  18
ATOM     18  C   UNL     1      10.428  11.308  19.295  0.00  0.00    +0.000 C 
BRANCH  18  19
ATOM     19  C   UNL     1      10.735  12.747  18.976  0.00  0.00    +0.000 A 
ATOM     20  C   UNL     1      10.582  13.235  17.671  0.00  0.00    +0.000 A 
ATOM     21  C   UNL     1      10.952  14.544  17.360  0.00  0.00    +0.000 A 
ATOM     22  C   UNL     1      11.450  15.382  18.356  0.00  0.00    +0.000 A 
ATOM     23  C   UNL     1      11.583  14.913  19.662  0.00  0.00    +0.000 A 
ATOM     24  C   UNL     1      11.236  13.598  19.969  0.00  0.00    +0.000 A 
ENDBRANCH  18  19
ENDBRANCH  17  18
ENDBRANCH  16  17
ENDBRANCH  15  16
ENDBRANCH   2  15
TORSDOF 9
ENDMDL
MODEL 7
REMARK VINA RESULT:      -7.4      1.460      9.675
REMARK  Name = 
REMARK  9 active torsions:
REMARK  status: ('A' for Active; 'I' for Inactive)
REMARK    1  A    between atoms: C_2  and  C_3
REMARK    2  A    between atoms: C_2  and  C_13
REMARK    3  A    between atoms: C_3  and  C_4
REMARK    4  A    between atoms: C_4  and  C_5
REMARK    5  A    between atoms: C_5  and  C_6
REMARK    6  A    between atoms: C_6  and  C_7
REMARK    7  A    between atoms: N_15  and  C_16
REMARK    8  A    between atoms: C_16  and  C_17
REMARK    9  A    between atoms: C_17  and  C_18
REMARK                            x       y       z     vdW  Elec       q    Type
REMARK                         _______ _______ _______ _____ _____    ______ ____
ROOT
ATOM      1  O   UNL     1       7.906   5.392  17.612  0.00  0.00    +0.000 OA
ATOM      2  C   UNL     1       7.106   6.262  17.311  0.00  0.00    +0.000 C 
ENDROOT
BRANCH   2   3
ATOM      3  C   UNL     1       5.666   5.875  16.923  0.00  0.00    +0.000 C 
ATOM      4  O   UNL     1       5.395   5.636  15.753  0.00  0.00    +0.000 OA
ATOM      5  N   UNL     1       4.744   5.818  17.955  0.00  0.00    +0.000 N 
ATOM      6  H   UNL     1       5.042   6.014  18.908  0.00  0.00    +0.000 HD
BRANCH   5   7
ATOM      7  C   UNL     1       3.371   5.470  17.650  0.00  0.00    +0.000 C 
BRANCH   7   8
ATOM      8  C   UNL     1       3.081   3.971  17.717  0.00  0.00    +0.000 C 
BRANCH   8   9
ATOM      9  C   UNL     1       2.584   3.603  19.096  0.00  0.00    +0.000 A 
ATOM     10  C   UNL     1       3.451   3.012  20.025  0.00  0.00    +0.000 A 
ATOM     11  C   UNL     1       2.958   2.514  21.232  0.00  0.00    +0.000 A 
ATOM     12  C   UNL     1       1.603   2.633  21.535  0.00  0.00    +0.000 A 
ATOM     13  C   UNL     1       0.742   3.260  20.638  0.00  0.00    +0.000 A 
ATOM     14  C   UNL     1       1.227   3.740  19.420  0.00  0.00    +0.000 A 
ENDBRANCH   8   9
ENDBRANCH   7   8
ENDBRANCH   5   7
ENDBRANCH   2   3
BRANCH   2  15
ATOM     15  C   UNL     1       7.461   7.741  17.243  0.00  0.00    +0.000 C 
BRANCH  15  16
ATOM     16  C   UNL     1       8.296   8.178  18.447  0.00  0.00    +0.000 C 
BRANCH  16  17
ATOM     17  C   UNL     1       8.701   9.649  18.351  0.00  0.00    +0.000 C 
BRANCH  17  18
ATOM     18  C   UNL     1       9.464  10.091  19.600  0.00  0.00    +0.000 C 
BRANCH  18  19
ATOM     19  C   UNL     1      10.345  11.275  19.300  0.00  0.00    +0.000 A 
ATOM     20  C   UNL     1      10.565  12.262  20.270  0.00  0.00    +0.000 A 
ATOM     21  C   UNL     1      11.309  13.402  19.961  0.00  0.00    +0.000 A 
ATOM     22  C   UNL     1      11.861  13.548  18.689  0.00  0.00    +0.000 A 
ATOM     23  C   UNL     1      11.670  12.559  17.726  0.00  0.00    +0.000 A 
ATOM     24  C   UNL     1      10.907  11.431  18.027  0.00  0.00    +0.000 A 
ENDBRANCH  18  19
ENDBRANCH  17  18
ENDBRANCH  16  17
ENDBRANCH  15  16
ENDBRANCH   2  15
TORSDOF 9
ENDMDL
MODEL 8
REMARK VINA RESULT:      -7.3      1.727      9.375
REMARK  Name = 
REMARK  9 active torsions:
REMARK  status: ('A' for Active; 'I' for Inactive)
REMARK    1  A    between atoms: C_2  and  C_3
REMARK    2  A    between atoms: C_2  and  C_13
REMARK    3  A    between atoms: C_3  and  C_4
REMARK    4  A    between atoms: C_4  and  C_5
REMARK    5  A    between atoms: C_5  and  C_6
REMARK    6  A    between atoms: C_6  and  C_7
REMARK    7  A    between atoms: N_15  and  C_16
REMARK    8  A    between atoms: C_16  and  C_17
REMARK    9  A    between atoms: C_17  and  C_18
REMARK                            x       y       z     vdW  Elec       q    Type
REMARK                         _______ _______ _______ _____ _____    ______ ____
ROOT
ATOM      1  O   UNL     1       7.577   5.789  15.903  0.00  0.00    +0.000 OA
ATOM      2  C   UNL     1       6.976   6.347  16.805  0.00  0.00    +0.000 C 
ENDROOT
BRANCH   2   3
ATOM      3  C   UNL     1       5.436   6.398  16.782  0.00  0.00    +0.000 C 
ATOM      4  O   UNL     1       4.855   6.792  15.778  0.00  0.00    +0.000 OA
ATOM      5  N   UNL     1       4.788   5.979  17.931  0.00  0.00    +0.000 N 
ATOM      6  H   UNL     1       5.334   5.648  18.725  0.00  0.00    +0.000 HD
BRANCH   5   7
ATOM      7  C   UNL     1       3.341   6.014  17.974  0.00  0.00    +0.000 C 
BRANCH   7   8
ATOM      8  C   UNL     1       2.678   4.669  17.680  0.00  0.00    +0.000 C 
BRANCH   8   9
ATOM      9  C   UNL     1       2.478   3.901  18.966  0.00  0.00    +0.000 A 
ATOM     10  C   UNL     1       1.309   4.077  19.719  0.00  0.00    +0.000 A 
ATOM     11  C   UNL     1       1.195   3.506  20.987  0.00  0.00    +0.000 A 
ATOM     12  C   UNL     1       2.230   2.727  21.498  0.00  0.00    +0.000 A 
ATOM     13  C   UNL     1       3.377   2.508  20.738  0.00  0.00    +0.000 A 
ATOM     14  C   UNL     1       3.504   3.096  19.478  0.00  0.00    +0.000 A 
ENDBRANCH   8   9
ENDBRANCH   7   8
ENDBRANCH   5   7
ENDBRANCH   2   3
BRANCH   2  15
ATOM     15  C   UNL     1       7.668   7.060  17.958  0.00  0.00    +0.000 C 
BRANCH  15  16
ATOM     16  C   UNL     1       7.692   8.575  17.753  0.00  0.00    +0.000 C 
BRANCH  16  17
ATOM     17  C   UNL     1       9.038   9.179  18.155  0.00  0.00    +0.000 C 
BRANCH  17  18
ATOM     18  C   UNL     1       8.844  10.394  19.063  0.00  0.00    +0.000 C 
BRANCH  18  19
ATOM     19  C   UNL     1       9.546  11.602  18.501  0.00  0.00    +0.000 A 
ATOM     20  C   UNL     1       8.893  12.840  18.438  0.00  0.00    +0.000 A 
ATOM     21  C   UNL     1       9.513  13.936  17.835  0.00  0.00    +0.000 A 
ATOM     22  C   UNL     1      10.801  13.808  17.318  0.00  0.00    +0.000 A 
ATOM     23  C   UNL     1      11.469  12.587  17.399  0.00  0.00    +0.000 A 
ATOM     24  C   UNL     1      10.841  11.486  17.979  0.00  0.00    +0.000 A 
ENDBRANCH  18  19
ENDBRANCH  17  18
ENDBRANCH  16  17
ENDBRANCH  15  16
ENDBRANCH   2  15
TORSDOF 9
ENDMDL
MODEL 9
REMARK VINA RESULT:      -7.3      2.074      8.341
REMARK  Name = 
REMARK  9 active torsions:
REMARK  status: ('A' for Active; 'I' for Inactive)
REMARK    1  A    between atoms: C_2  and  C_3
REMARK    2  A    between atoms: C_2  and  C_13
REMARK    3  A    between atoms: C_3  and  C_4
REMARK    4  A    between atoms: C_4  and  C_5
REMARK    5  A    between atoms: C_5  and  C_6
REMARK    6  A    between atoms: C_6  and  C_7
REMARK    7  A    between atoms: N_15  and  C_16
REMARK    8  A    between atoms: C_16  and  C_17
REMARK    9  A    between atoms: C_17  and  C_18
REMARK                            x       y       z     vdW  Elec       q    Type
REMARK                         _______ _______ _______ _____ _____    ______ ____
ROOT
ATOM      1  O   UNL     1       8.014   4.420  17.243  0.00  0.00    +0.000 OA
ATOM      2  C   UNL     1       7.265   5.291  17.653  0.00  0.00    +0.000 C 
ENDROOT
BRANCH   2   3
ATOM      3  C   UNL     1       5.742   5.131  17.485  0.00  0.00    +0.000 C 
ATOM      4  O   UNL     1       5.289   4.665  16.447  0.00  0.00    +0.000 OA
ATOM      5  N   UNL     1       4.959   5.534  18.554  0.00  0.00    +0.000 N 
ATOM      6  H   UNL     1       5.403   5.899  19.395  0.00  0.00    +0.000 HD
BRANCH   5   7
ATOM      7  C   UNL     1       3.519   5.419  18.451  0.00  0.00    +0.000 C 
BRANCH   7   8
ATOM      8  C   UNL     1       2.766   5.921  19.682  0.00  0.00    +0.000 C 
BRANCH   8   9
ATOM      9  C   UNL     1       2.243   7.317  19.433  0.00  0.00    +0.000 A 
ATOM     10  C   UNL     1       1.590   8.019  20.455  0.00  0.00    +0.000 A 
ATOM     11  C   UNL     1       0.955   9.232  20.183  0.00  0.00    +0.000 A 
ATOM     12  C   UNL     1       0.997   9.769  18.899  0.00  0.00    +0.000 A 
ATOM     13  C   UNL     1       1.684   9.101  17.887  0.00  0.00    +0.000 A 
ATOM     14  C   UNL     1       2.301   7.877  18.150  0.00  0.00    +0.000 A 
ENDBRANCH   8   9
ENDBRANCH   7   8
ENDBRANCH   5   7
ENDBRANCH   2   3
BRANCH   2  15
ATOM     15  C   UNL     1       7.753   6.583  18.292  0.00  0.00    +0.000 C 
BRANCH  15  16
ATOM     16  C   UNL     1       7.885   7.707  17.264  0.00  0.00    +0.000 C 
BRANCH  16  17
ATOM     17  C   UNL     1       7.811   9.086  17.921  0.00  0.00    +0.000 C 
BRANCH  17  18
ATOM     18  C   UNL     1       8.971   9.293  18.894  0.00  0.00    +0.000 C 
BRANCH  18  19
ATOM     19  C   UNL     1       9.466  10.714  18.846  0.00  0.00    +0.000 A 
ATOM     20  C   UNL     1      10.469  11.149  19.724  0.00  0.00    +0.000 A 
ATOM     21  C   UNL     1      10.862  12.488  19.737  0.00  0.00    +0.000 A 
ATOM     22  C   UNL     1      10.278  13.394  18.853  0.00  0.00    +0.000 A 
ATOM     23  C   UNL     1       9.298  12.965  17.959  0.00  0.00    +0.000 A 
ATOM     24  C   UNL     1       8.887  11.633  17.961  0.00  0.00    +0.000 A 
ENDBRANCH  18  19
ENDBRANCH  17  18
ENDBRANCH  16  17
ENDBRANCH  15  16
ENDBRANCH   2  15
TORSDOF 9
ENDMDL
