MODEL 1
REMARK VINA RESULT:      -8.1      0.000      0.000
REMARK  Name = 
REMARK  8 active torsions:
REMARK  status: ('A' for Active; 'I' for Inactive)
REMARK    1  A    between atoms: C_1  and  C_2
REMARK    2  A    between atoms: N_10  and  C_11
REMARK    3  A    between atoms: C_11  and  C_12
REMARK    4  A    between atoms: C_12  and  O_13
REMARK    5  A    between atoms: O_13  and  C_14
REMARK    6  A    between atoms: C_14  and  S_15
REMARK    7  A    between atoms: N_16  and  C_17
REMARK    8  A    between atoms: C_20  and  N_21
REMARK                            x       y       z     vdW  Elec       q    Type
REMARK                         _______ _______ _______ _____ _____    ______ ____
ROOT
ATOM      1  C   UNL     1       2.163   5.394  19.984  0.00  0.00    +0.000 C 
ENDROOT
BRANCH   1   2
ATOM      2  C   UNL     1       3.247   4.317  19.973  0.00  0.00    +0.000 C 
BRANCH   2  12
ATOM      3  C   UNL     1       6.358   3.902  13.244  0.00  0.00    +0.000 C 
ATOM      4  C   UNL     1       6.200   4.155  14.716  0.00  0.00    +0.000 A 
ATOM      5  C   UNL     1       7.285   4.617  15.500  0.00  0.00    +0.000 A 
ATOM      6  C   UNL     1       7.141   4.857  16.875  0.00  0.00    +0.000 A 
ATOM      7  C   UNL     1       5.898   4.628  17.433  0.00  0.00    +0.000 A 
ATOM      8  C   UNL     1       4.838   4.176  16.670  0.00  0.00    +0.000 A 
ATOM      9  C   UNL     1       4.953   3.926  15.316  0.00  0.00    +0.000 A 
ATOM     10  C   UNL     1       3.689   4.019  17.555  0.00  0.00    +0.000 C 
ATOM     11  O   UNL     1       2.613   3.575  17.207  0.00  0.00    +0.000 OA
ATOM     12  N   UNL     1       4.091   4.421  18.796  0.00  0.00    +0.000 N 
ATOM     13  C   UNL     1       5.417   4.755  18.815  0.00  0.00    +0.000 C 
ATOM     14  O   UNL     1       6.117   5.067  19.758  0.00  0.00    +0.000 OA
ENDBRANCH   2  12
ENDBRANCH   1   2
BRANCH   1  15
ATOM     15  O   UNL     1       2.725   6.662  19.605  0.00  0.00    +0.000 OA
BRANCH  15  16
ATOM     16  C   UNL     1       1.946   7.761  19.842  0.00  0.00    +0.000 C 
ATOM     17  N   UNL     1       1.362   7.904  20.992  0.00  0.00    +0.000 NA
BRANCH  17  18
ATOM     18  C   UNL     1       0.560   8.993  21.361  0.00  0.00    +0.000 A 
ATOM     19  C   UNL     1      -0.003   9.895  20.450  0.00  0.00    +0.000 A 
ATOM     20  C   UNL     1      -0.749  10.995  20.886  0.00  0.00    +0.000 A 
ATOM     21  C   UNL     1      -1.013  11.153  22.249  0.00  0.00    +0.000 A 
ATOM     22  C   UNL     1      -0.561  10.200  23.168  0.00  0.00    +0.000 A 
ATOM     23  C   UNL     1       0.226   9.132  22.717  0.00  0.00    +0.000 A 
BRANCH  21  24
ATOM     24  N   UNL     1      -1.759  12.328  22.713  0.00  0.00    +0.000 N 
ATOM     25  O   UNL     1      -1.111  13.266  23.198  0.00  0.00    +0.000 OA
ATOM     26  O   UNL     1      -2.993  12.310  22.601  0.00  0.00    +0.000 OA
ENDBRANCH  21  24
ENDBRANCH  17  18
BRANCH  16  27
ATOM     27  S   UNL     1       1.865   8.865  18.482  0.00  0.00    +0.000 S 
ATOM     28  H   UNL     1       3.100   8.605  18.035  0.00  0.00    +0.000 HD
ENDBRANCH  16  27
ENDBRANCH  15  16
ENDBRANCH   1  15
TORSDOF 7
ENDMDL
MODEL 2
REMARK VINA RESULT:      -8.1      6.945      8.329
REMARK  Name = 
REMARK  8 active torsions:
REMARK  status: ('A' for Active; 'I' for Inactive)
REMARK    1  A    between atoms: C_1  and  C_2
REMARK    2  A    between atoms: N_10  and  C_11
REMARK    3  A    between atoms: C_11  and  C_12
REMARK    4  A    between atoms: C_12  and  O_13
REMARK    5  A    between atoms: O_13  and  C_14
REMARK    6  A    between atoms: C_14  and  S_15
REMARK    7  A    between atoms: N_16  and  C_17
REMARK    8  A    between atoms: C_20  and  N_21
REMARK                            x       y       z     vdW  Elec       q    Type
REMARK                         _______ _______ _______ _____ _____    ______ ____
ROOT
ATOM      1  C   UNL     1       7.701   8.744  17.827  0.00  0.00    +0.000 C 
ENDROOT
BRANCH   1   2
ATOM      2  C   UNL     1       7.911   7.329  17.288  0.00  0.00    +0.000 C 
BRANCH   2  12
ATOM      3  C   UNL     1       1.434   3.779  18.046  0.00  0.00    +0.000 C 
ATOM      4  C   UNL     1       2.841   4.230  18.320  0.00  0.00    +0.000 A 
ATOM      5  C   UNL     1       3.549   3.770  19.457  0.00  0.00    +0.000 A 
ATOM      6  C   UNL     1       4.863   4.186  19.714  0.00  0.00    +0.000 A 
ATOM      7  C   UNL     1       5.441   5.060  18.813  0.00  0.00    +0.000 A 
ATOM      8  C   UNL     1       4.752   5.510  17.704  0.00  0.00    +0.000 A 
ATOM      9  C   UNL     1       3.455   5.122  17.428  0.00  0.00    +0.000 A 
ATOM     10  C   UNL     1       5.627   6.425  16.978  0.00  0.00    +0.000 C 
ATOM     11  O   UNL     1       5.298   7.045  15.986  0.00  0.00    +0.000 OA
ATOM     12  N   UNL     1       6.814   6.451  17.653  0.00  0.00    +0.000 N 
ATOM     13  C   UNL     1       6.765   5.696  18.792  0.00  0.00    +0.000 C 
ATOM     14  O   UNL     1       7.601   5.568  19.664  0.00  0.00    +0.000 OA
ENDBRANCH   2  12
ENDBRANCH   1   2
BRANCH   1  15
ATOM     15  O   UNL     1       8.726   9.064  18.782  0.00  0.00    +0.000 OA
BRANCH  15  16
ATOM     16  C   UNL     1       9.083  10.382  18.863  0.00  0.00    +0.000 C 
ATOM     17  N   UNL     1       9.028  11.134  17.807  0.00  0.00    +0.000 NA
BRANCH  17  18
ATOM     18  C   UNL     1       9.345  12.499  17.768  0.00  0.00    +0.000 A 
ATOM     19  C   UNL     1      10.596  13.001  17.392  0.00  0.00    +0.000 A 
ATOM     20  C   UNL     1      10.867  14.373  17.427  0.00  0.00    +0.000 A 
ATOM     21  C   UNL     1       9.847  15.269  17.760  0.00  0.00    +0.000 A 
ATOM     22  C   UNL     1       8.557  14.799  18.025  0.00  0.00    +0.000 A 
ATOM     23  C   UNL     1       8.318  13.418  18.033  0.00  0.00    +0.000 A 
BRANCH  21  24
ATOM     24  N   UNL     1      10.140  16.704  17.839  0.00  0.00    +0.000 N 
ATOM     25  O   UNL     1      11.327  17.054  17.771  0.00  0.00    +0.000 OA
ATOM     26  O   UNL     1       9.185  17.482  17.979  0.00  0.00    +0.000 OA
ENDBRANCH  21  24
ENDBRANCH  17  18
BRANCH  16  27
ATOM     27  S   UNL     1       9.577  10.874  20.472  0.00  0.00    +0.000 S 
ATOM     28  H   UNL     1      10.590  10.002  20.565  0.00  0.00    +0.000 HD
ENDBRANCH  16  27
ENDBRANCH  15  16
ENDBRANCH   1  15
TORSDOF 7
ENDMDL
MODEL 3
REMARK VINA RESULT:      -8.0      3.033     10.365
REMARK  Name = 
REMARK  8 active torsions:
REMARK  status: ('A' for Active; 'I' for Inactive)
REMARK    1  A    between atoms: C_1  and  C_2
REMARK    2  A    between atoms: N_10  and  C_11
REMARK    3  A    between atoms: C_11  and  C_12
REMARK    4  A    between atoms: C_12  and  O_13
REMARK    5  A    between atoms: O_13  and  C_14
REMARK    6  A    between atoms: C_14  and  S_15
REMARK    7  A    between atoms: N_16  and  C_17
REMARK    8  A    between atoms: C_20  and  N_21
REMARK                            x       y       z     vdW  Elec       q    Type
REMARK                         _______ _______ _______ _____ _____    ______ ____
ROOT
ATOM      1  C   UNL     1       0.529  10.008  18.562  0.00  0.00    +0.000 C 
ENDROOT
BRANCH   1   2
ATOM      2  C   UNL     1       0.648  11.462  19.020  0.00  0.00    +0.000 C 
BRANCH   2  12
ATOM      3  C   UNL     1      -4.156  12.546  24.577  0.00  0.00    +0.000 C 
ATOM      4  C   UNL     1      -3.587  12.500  23.187  0.00  0.00    +0.000 A 
ATOM      5  C   UNL     1      -4.368  12.868  22.064  0.00  0.00    +0.000 A 
ATOM      6  C   UNL     1      -3.839  12.830  20.766  0.00  0.00    +0.000 A 
ATOM      7  C   UNL     1      -2.527  12.421  20.625  0.00  0.00    +0.000 A 
ATOM      8  C   UNL     1      -1.765  12.060  21.719  0.00  0.00    +0.000 A 
ATOM      9  C   UNL     1      -2.260  12.083  23.008  0.00  0.00    +0.000 A 
ATOM     10  C   UNL     1      -0.448  11.663  21.231  0.00  0.00    +0.000 C 
ATOM     11  O   UNL     1       0.441  11.229  21.937  0.00  0.00    +0.000 OA
ATOM     12  N   UNL     1      -0.460  11.843  19.878  0.00  0.00    +0.000 N 
ATOM     13  C   UNL     1      -1.688  12.249  19.432  0.00  0.00    +0.000 C 
ATOM     14  O   UNL     1      -2.074  12.416  18.293  0.00  0.00    +0.000 OA
ENDBRANCH   2  12
ENDBRANCH   1   2
BRANCH   1  15
ATOM     15  O   UNL     1       1.825   9.495  18.213  0.00  0.00    +0.000 OA
BRANCH  15  16
ATOM     16  C   UNL     1       2.127   8.249  18.690  0.00  0.00    +0.000 C 
ATOM     17  N   UNL     1       2.711   7.384  17.919  0.00  0.00    +0.000 NA
BRANCH  17  18
ATOM     18  C   UNL     1       3.089   6.088  18.298  0.00  0.00    +0.000 A 
ATOM     19  C   UNL     1       4.278   5.787  18.973  0.00  0.00    +0.000 A 
ATOM     20  C   UNL     1       4.625   4.466  19.275  0.00  0.00    +0.000 A 
ATOM     21  C   UNL     1       3.733   3.432  18.975  0.00  0.00    +0.000 A 
ATOM     22  C   UNL     1       2.488   3.721  18.407  0.00  0.00    +0.000 A 
ATOM     23  C   UNL     1       2.179   5.045  18.068  0.00  0.00    +0.000 A 
BRANCH  21  24
ATOM     24  N   UNL     1       4.113   2.043  19.252  0.00  0.00    +0.000 N 
ATOM     25  O   UNL     1       4.886   1.835  20.198  0.00  0.00    +0.000 OA
ATOM     26  O   UNL     1       3.648   1.159  18.517  0.00  0.00    +0.000 OA
ENDBRANCH  21  24
ENDBRANCH  17  18
BRANCH  16  27
ATOM     27  S   UNL     1       1.659   8.010  20.363  0.00  0.00    +0.000 S 
ATOM     28  H   UNL     1       1.252   6.745  20.201  0.00  0.00    +0.000 HD
ENDBRANCH  16  27
ENDBRANCH  15  16
ENDBRANCH   1  15
TORSDOF 7
ENDMDL
MODEL 4
REMARK VINA RESULT:      -7.9      2.869     10.353
REMARK  Name = 
REMARK  8 active torsions:
REMARK  status: ('A' for Active; 'I' for Inactive)
REMARK    1  A    between atoms: C_1  and  C_2
REMARK    2  A    between atoms: N_10  and  C_11
REMARK    3  A    between atoms: C_11  and  C_12
REMARK    4  A    between atoms: C_12  and  O_13
REMARK    5  A    between atoms: O_13  and  C_14
REMARK    6  A    between atoms: C_14  and  S_15
REMARK    7  A    between atoms: N_16  and  C_17
REMARK    8  A    between atoms: C_20  and  N_21
REMARK                            x       y       z     vdW  Elec       q    Type
REMARK                         _______ _______ _______ _____ _____    ______ ____
ROOT
ATOM      1  C   UNL     1       0.683  10.131  18.550  0.00  0.00    +0.000 C 
ENDROOT
BRANCH   1   2
ATOM      2  C   UNL     1       0.835  11.539  19.124  0.00  0.00    +0.000 C 
BRANCH   2  12
ATOM      3  C   UNL     1      -4.117  12.484  24.576  0.00  0.00    +0.000 C 
ATOM      4  C   UNL     1      -3.510  12.473  23.201  0.00  0.00    +0.000 A 
ATOM      5  C   UNL     1      -4.260  12.872  22.068  0.00  0.00    +0.000 A 
ATOM      6  C   UNL     1      -3.697  12.867  20.783  0.00  0.00    +0.000 A 
ATOM      7  C   UNL     1      -2.382  12.460  20.668  0.00  0.00    +0.000 A 
ATOM      8  C   UNL     1      -1.649  12.069  21.772  0.00  0.00    +0.000 A 
ATOM      9  C   UNL     1      -2.179  12.060  23.047  0.00  0.00    +0.000 A 
ATOM     10  C   UNL     1      -0.319  11.684  21.309  0.00  0.00    +0.000 C 
ATOM     11  O   UNL     1       0.550  11.231  22.027  0.00  0.00    +0.000 OA
ATOM     12  N   UNL     1      -0.295  11.899  19.961  0.00  0.00    +0.000 N 
ATOM     13  C   UNL     1      -1.510  12.318  19.493  0.00  0.00    +0.000 C 
ATOM     14  O   UNL     1      -1.865  12.516  18.349  0.00  0.00    +0.000 OA
ENDBRANCH   2  12
ENDBRANCH   1   2
BRANCH   1  15
ATOM     15  O   UNL     1       1.976   9.575  18.260  0.00  0.00    +0.000 OA
BRANCH  15  16
ATOM     16  C   UNL     1       2.173   8.277  18.646  0.00  0.00    +0.000 C 
ATOM     17  N   UNL     1       2.785   7.452  17.854  0.00  0.00    +0.000 NA
BRANCH  17  18
ATOM     18  C   UNL     1       3.066   6.109  18.144  0.00  0.00    +0.000 A 
ATOM     19  C   UNL     1       2.124   5.078  18.063  0.00  0.00    +0.000 A 
ATOM     20  C   UNL     1       2.452   3.766  18.420  0.00  0.00    +0.000 A 
ATOM     21  C   UNL     1       3.767   3.459  18.783  0.00  0.00    +0.000 A 
ATOM     22  C   UNL     1       4.753   4.450  18.757  0.00  0.00    +0.000 A 
ATOM     23  C   UNL     1       4.394   5.767  18.445  0.00  0.00    +0.000 A 
BRANCH  21  24
ATOM     24  N   UNL     1       4.104   2.093  19.198  0.00  0.00    +0.000 N 
ATOM     25  O   UNL     1       3.672   1.158  18.508  0.00  0.00    +0.000 OA
ATOM     26  O   UNL     1       4.793   1.953  20.219  0.00  0.00    +0.000 OA
ENDBRANCH  21  24
ENDBRANCH  17  18
BRANCH  16  27
ATOM     27  S   UNL     1       1.540   7.920  20.242  0.00  0.00    +0.000 S 
ATOM     28  H   UNL     1       0.263   7.823  19.851  0.00  0.00    +0.000 HD
ENDBRANCH  16  27
ENDBRANCH  15  16
ENDBRANCH   1  15
TORSDOF 7
ENDMDL
MODEL 5
REMARK VINA RESULT:      -7.9      7.056      8.516
REMARK  Name = 
REMARK  8 active torsions:
REMARK  status: ('A' for Active; 'I' for Inactive)
REMARK    1  A    between atoms: C_1  and  C_2
REMARK    2  A    between atoms: N_10  and  C_11
REMARK    3  A    between atoms: C_11  and  C_12
REMARK    4  A    between atoms: C_12  and  O_13
REMARK    5  A    between atoms: O_13  and  C_14
REMARK    6  A    between atoms: C_14  and  S_15
REMARK    7  A    between atoms: N_16  and  C_17
REMARK    8  A    between atoms: C_20  and  N_21
REMARK                            x       y       z     vdW  Elec       q    Type
REMARK                         _______ _______ _______ _____ _____    ______ ____
ROOT
ATOM      1  C   UNL     1       7.706   8.721  17.984  0.00  0.00    +0.000 C 
ENDROOT
BRANCH   1   2
ATOM      2  C   UNL     1       7.849   7.358  17.308  0.00  0.00    +0.000 C 
BRANCH   2  12
ATOM      3  C   UNL     1       1.396   3.762  18.061  0.00  0.00    +0.000 C 
ATOM      4  C   UNL     1       2.804   4.215  18.330  0.00  0.00    +0.000 A 
ATOM      5  C   UNL     1       3.524   3.738  19.452  0.00  0.00    +0.000 A 
ATOM      6  C   UNL     1       4.839   4.156  19.704  0.00  0.00    +0.000 A 
ATOM      7  C   UNL     1       5.404   5.049  18.814  0.00  0.00    +0.000 A 
ATOM      8  C   UNL     1       4.702   5.516  17.720  0.00  0.00    +0.000 A 
ATOM      9  C   UNL     1       3.406   5.126  17.449  0.00  0.00    +0.000 A 
ATOM     10  C   UNL     1       5.567   6.448  17.003  0.00  0.00    +0.000 C 
ATOM     11  O   UNL     1       5.226   7.084  16.026  0.00  0.00    +0.000 OA
ATOM     12  N   UNL     1       6.760   6.468  17.667  0.00  0.00    +0.000 N 
ATOM     13  C   UNL     1       6.725   5.692  18.793  0.00  0.00    +0.000 C 
ATOM     14  O   UNL     1       7.570   5.552  19.655  0.00  0.00    +0.000 OA
ENDBRANCH   2  12
ENDBRANCH   1   2
BRANCH   1  15
ATOM     15  O   UNL     1       8.877   9.007  18.768  0.00  0.00    +0.000 OA
BRANCH  15  16
ATOM     16  C   UNL     1       9.184  10.330  18.930  0.00  0.00    +0.000 C 
ATOM     17  N   UNL     1       9.327  11.094  17.891  0.00  0.00    +0.000 NA
BRANCH  17  18
ATOM     18  C   UNL     1       9.618  12.465  17.929  0.00  0.00    +0.000 A 
ATOM     19  C   UNL     1       8.665  13.460  18.172  0.00  0.00    +0.000 A 
ATOM     20  C   UNL     1       9.008  14.816  18.141  0.00  0.00    +0.000 A 
ATOM     21  C   UNL     1      10.343  15.185  17.950  0.00  0.00    +0.000 A 
ATOM     22  C   UNL     1      11.332  14.205  17.823  0.00  0.00    +0.000 A 
ATOM     23  C   UNL     1      10.961  12.854  17.807  0.00  0.00    +0.000 A 
BRANCH  21  24
ATOM     24  N   UNL     1      10.699  16.606  17.876  0.00  0.00    +0.000 N 
ATOM     25  O   UNL     1      10.442  17.209  16.824  0.00  0.00    +0.000 OA
ATOM     26  O   UNL     1      11.244  17.118  18.864  0.00  0.00    +0.000 OA
ENDBRANCH  21  24
ENDBRANCH  17  18
BRANCH  16  27
ATOM     27  S   UNL     1       9.334  10.811  20.610  0.00  0.00    +0.000 S 
ATOM     28  H   UNL     1       8.269  10.117  21.034  0.00  0.00    +0.000 HD
ENDBRANCH  16  27
ENDBRANCH  15  16
ENDBRANCH   1  15
TORSDOF 7
ENDMDL
MODEL 6
REMARK VINA RESULT:      -7.8      2.649      9.842
REMARK  Name = 
REMARK  8 active torsions:
REMARK  status: ('A' for Active; 'I' for Inactive)
REMARK    1  A    between atoms: C_1  and  C_2
REMARK    2  A    between atoms: N_10  and  C_11
REMARK    3  A    between atoms: C_11  and  C_12
REMARK    4  A    between atoms: C_12  and  O_13
REMARK    5  A    between atoms: O_13  and  C_14
REMARK    6  A    between atoms: C_14  and  S_15
REMARK    7  A    between atoms: N_16  and  C_17
REMARK    8  A    between atoms: C_20  and  N_21
REMARK                            x       y       z     vdW  Elec       q    Type
REMARK                         _______ _______ _______ _____ _____    ______ ____
ROOT
ATOM      1  C   UNL     1       1.226   6.800  20.722  0.00  0.00    +0.000 C 
ENDROOT
BRANCH   1   2
ATOM      2  C   UNL     1       1.860   8.146  20.374  0.00  0.00    +0.000 C 
BRANCH   2  12
ATOM      3  C   UNL     1      -2.612  13.208  23.459  0.00  0.00    +0.000 C 
ATOM      4  C   UNL     1      -1.922  12.379  22.412  0.00  0.00    +0.000 A 
ATOM      5  C   UNL     1      -2.223  12.539  21.037  0.00  0.00    +0.000 A 
ATOM      6  C   UNL     1      -1.579  11.770  20.057  0.00  0.00    +0.000 A 
ATOM      7  C   UNL     1      -0.638  10.853  20.485  0.00  0.00    +0.000 A 
ATOM      8  C   UNL     1      -0.345  10.695  21.826  0.00  0.00    +0.000 A 
ATOM      9  C   UNL     1      -0.966  11.435  22.813  0.00  0.00    +0.000 A 
ATOM     10  C   UNL     1       0.664   9.646  21.940  0.00  0.00    +0.000 C 
ATOM     11  O   UNL     1       1.092   9.220  22.994  0.00  0.00    +0.000 OA
ATOM     12  N   UNL     1       0.963   9.250  20.668  0.00  0.00    +0.000 N 
ATOM     13  C   UNL     1       0.189   9.893  19.741  0.00  0.00    +0.000 C 
ATOM     14  O   UNL     1       0.128   9.722  18.541  0.00  0.00    +0.000 OA
ENDBRANCH   2  12
ENDBRANCH   1   2
BRANCH   1  15
ATOM     15  O   UNL     1       2.227   5.768  20.713  0.00  0.00    +0.000 OA
BRANCH  15  16
ATOM     16  C   UNL     1       2.808   5.504  19.503  0.00  0.00    +0.000 C 
ATOM     17  N   UNL     1       3.999   5.950  19.245  0.00  0.00    +0.000 NA
BRANCH  17  18
ATOM     18  C   UNL     1       4.706   5.728  18.055  0.00  0.00    +0.000 A 
ATOM     19  C   UNL     1       4.608   6.544  16.923  0.00  0.00    +0.000 A 
ATOM     20  C   UNL     1       5.298   6.237  15.746  0.00  0.00    +0.000 A 
ATOM     21  C   UNL     1       6.170   5.144  15.723  0.00  0.00    +0.000 A 
ATOM     22  C   UNL     1       6.374   4.383  16.878  0.00  0.00    +0.000 A 
ATOM     23  C   UNL     1       5.636   4.677  18.032  0.00  0.00    +0.000 A 
BRANCH  21  24
ATOM     24  N   UNL     1       6.862   4.794  14.477  0.00  0.00    +0.000 N 
ATOM     25  O   UNL     1       6.448   3.812  13.845  0.00  0.00    +0.000 OA
ATOM     26  O   UNL     1       7.825   5.495  14.136  0.00  0.00    +0.000 OA
ENDBRANCH  21  24
ENDBRANCH  17  18
BRANCH  16  27
ATOM     27  S   UNL     1       1.798   4.543  18.439  0.00  0.00    +0.000 S 
ATOM     28  H   UNL     1       2.669   3.533  18.317  0.00  0.00    +0.000 HD
ENDBRANCH  16  27
ENDBRANCH  15  16
ENDBRANCH   1  15
TORSDOF 7
ENDMDL
MODEL 7
REMARK VINA RESULT:      -7.7      2.646     10.427
REMARK  Name = 
REMARK  8 active torsions:
REMARK  status: ('A' for Active; 'I' for Inactive)
REMARK    1  A    between atoms: C_1  and  C_2
REMARK    2  A    between atoms: N_10  and  C_11
REMARK    3  A    between atoms: C_11  and  C_12
REMARK    4  A    between atoms: C_12  and  O_13
REMARK    5  A    between atoms: O_13  and  C_14
REMARK    6  A    between atoms: C_14  and  S_15
REMARK    7  A    between atoms: N_16  and  C_17
REMARK    8  A    between atoms: C_20  and  N_21
REMARK                            x       y       z     vdW  Elec       q    Type
REMARK                         _______ _______ _______ _____ _____    ______ ____
ROOT
ATOM      1  C   UNL     1       1.055   8.419  20.234  0.00  0.00    +0.000 C 
ENDROOT
BRANCH   1   2
ATOM      2  C   UNL     1       1.416   9.410  21.340  0.00  0.00    +0.000 C 
BRANCH   2  12
ATOM      3  C   UNL     1      -4.378  13.267  23.926  0.00  0.00    +0.000 C 
ATOM      4  C   UNL     1      -3.307  12.777  22.992  0.00  0.00    +0.000 A 
ATOM      5  C   UNL     1      -3.200  13.282  21.673  0.00  0.00    +0.000 A 
ATOM      6  C   UNL     1      -2.199  12.829  20.800  0.00  0.00    +0.000 A 
ATOM      7  C   UNL     1      -1.322  11.875  21.278  0.00  0.00    +0.000 A 
ATOM      8  C   UNL     1      -1.426  11.381  22.564  0.00  0.00    +0.000 A 
ATOM      9  C   UNL     1      -2.404  11.804  23.444  0.00  0.00    +0.000 A 
ATOM     10  C   UNL     1      -0.374  10.386  22.745  0.00  0.00    +0.000 C 
ATOM     11  O   UNL     1      -0.231   9.716  23.748  0.00  0.00    +0.000 OA
ATOM     12  N   UNL     1       0.340  10.355  21.582  0.00  0.00    +0.000 N 
ATOM     13  C   UNL     1      -0.195  11.185  20.636  0.00  0.00    +0.000 C 
ATOM     14  O   UNL     1       0.129  11.336  19.475  0.00  0.00    +0.000 OA
ENDBRANCH   2  12
ENDBRANCH   1   2
BRANCH   1  15
ATOM     15  O   UNL     1       1.935   7.284  20.284  0.00  0.00    +0.000 OA
BRANCH  15  16
ATOM     16  C   UNL     1       2.713   7.076  19.178  0.00  0.00    +0.000 C 
ATOM     17  N   UNL     1       3.557   6.091  19.156  0.00  0.00    +0.000 NA
BRANCH  17  18
ATOM     18  C   UNL     1       4.390   5.763  18.076  0.00  0.00    +0.000 A 
ATOM     19  C   UNL     1       5.621   6.378  17.824  0.00  0.00    +0.000 A 
ATOM     20  C   UNL     1       6.381   6.045  16.697  0.00  0.00    +0.000 A 
ATOM     21  C   UNL     1       5.947   5.020  15.852  0.00  0.00    +0.000 A 
ATOM     22  C   UNL     1       4.778   4.310  16.149  0.00  0.00    +0.000 A 
ATOM     23  C   UNL     1       4.007   4.692  17.254  0.00  0.00    +0.000 A 
BRANCH  21  24
ATOM     24  N   UNL     1       6.719   4.697  14.647  0.00  0.00    +0.000 N 
ATOM     25  O   UNL     1       7.702   5.406  14.387  0.00  0.00    +0.000 OA
ATOM     26  O   UNL     1       6.338   3.743  13.954  0.00  0.00    +0.000 OA
ENDBRANCH  21  24
ENDBRANCH  17  18
BRANCH  16  27
ATOM     27  S   UNL     1       2.422   8.234  17.894  0.00  0.00    +0.000 S 
ATOM     28  H   UNL     1       1.752   9.105  18.659  0.00  0.00    +0.000 HD
ENDBRANCH  16  27
ENDBRANCH  15  16
ENDBRANCH   1  15
TORSDOF 7
ENDMDL
MODEL 8
REMARK VINA RESULT:      -7.6      2.995      4.516
REMARK  Name = 
REMARK  8 active torsions:
REMARK  status: ('A' for Active; 'I' for Inactive)
REMARK    1  A    between atoms: C_1  and  C_2
REMARK    2  A    between atoms: N_10  and  C_11
REMARK    3  A    between atoms: C_11  and  C_12
REMARK    4  A    between atoms: C_12  and  O_13
REMARK    5  A    between atoms: O_13  and  C_14
REMARK    6  A    between atoms: C_14  and  S_15
REMARK    7  A    between atoms: N_16  and  C_17
REMARK    8  A    between atoms: C_20  and  N_21
REMARK                            x       y       z     vdW  Elec       q    Type
REMARK                         _______ _______ _______ _____ _____    ______ ____
ROOT
ATOM      1  C   UNL     1       1.488   9.620  18.109  0.00  0.00    +0.000 C 
ENDROOT
BRANCH   1   2
ATOM      2  C   UNL     1       2.821   8.878  18.020  0.00  0.00    +0.000 C 
BRANCH   2  12
ATOM      3  C   UNL     1       1.697   2.613  21.845  0.00  0.00    +0.000 C 
ATOM      4  C   UNL     1       2.166   3.547  20.765  0.00  0.00    +0.000 A 
ATOM      5  C   UNL     1       2.934   3.076  19.673  0.00  0.00    +0.000 A 
ATOM      6  C   UNL     1       3.371   3.944  18.661  0.00  0.00    +0.000 A 
ATOM      7  C   UNL     1       3.019   5.276  18.771  0.00  0.00    +0.000 A 
ATOM      8  C   UNL     1       2.270   5.737  19.836  0.00  0.00    +0.000 A 
ATOM      9  C   UNL     1       1.831   4.907  20.849  0.00  0.00    +0.000 A 
ATOM     10  C   UNL     1       2.092   7.175  19.664  0.00  0.00    +0.000 C 
ATOM     11  O   UNL     1       1.531   7.896  20.465  0.00  0.00    +0.000 OA
ATOM     12  N   UNL     1       2.700   7.509  18.488  0.00  0.00    +0.000 N 
ATOM     13  C   UNL     1       3.322   6.432  17.916  0.00  0.00    +0.000 C 
ATOM     14  O   UNL     1       4.023   6.388  16.926  0.00  0.00    +0.000 OA
ENDBRANCH   2  12
ENDBRANCH   1   2
BRANCH   1  15
ATOM     15  O   UNL     1       1.715  11.006  18.417  0.00  0.00    +0.000 OA
BRANCH  15  16
ATOM     16  C   UNL     1       0.999  11.514  19.466  0.00  0.00    +0.000 C 
ATOM     17  N   UNL     1      -0.131  10.970  19.802  0.00  0.00    +0.000 NA
BRANCH  17  18
ATOM     18  C   UNL     1      -0.942  11.385  20.868  0.00  0.00    +0.000 A 
ATOM     19  C   UNL     1      -0.763  10.974  22.193  0.00  0.00    +0.000 A 
ATOM     20  C   UNL     1      -1.641  11.380  23.204  0.00  0.00    +0.000 A 
ATOM     21  C   UNL     1      -2.668  12.280  22.904  0.00  0.00    +0.000 A 
ATOM     22  C   UNL     1      -2.795  12.797  21.610  0.00  0.00    +0.000 A 
ATOM     23  C   UNL     1      -1.936  12.340  20.602  0.00  0.00    +0.000 A 
BRANCH  21  24
ATOM     24  N   UNL     1      -3.616  12.674  23.952  0.00  0.00    +0.000 N 
ATOM     25  O   UNL     1      -3.630  13.864  24.297  0.00  0.00    +0.000 OA
ATOM     26  O   UNL     1      -4.340  11.793  24.437  0.00  0.00    +0.000 OA
ENDBRANCH  21  24
ENDBRANCH  17  18
BRANCH  16  27
ATOM     27  S   UNL     1       1.768  12.888  20.236  0.00  0.00    +0.000 S 
ATOM     28  H   UNL     1       2.681  13.077  19.274  0.00  0.00    +0.000 HD
ENDBRANCH  16  27
ENDBRANCH  15  16
ENDBRANCH   1  15
TORSDOF 7
ENDMDL
MODEL 9
REMARK VINA RESULT:      -7.6      2.208      2.533
REMARK  Name = 
REMARK  8 active torsions:
REMARK  status: ('A' for Active; 'I' for Inactive)
REMARK    1  A    between atoms: C_1  and  C_2
REMARK    2  A    between atoms: N_10  and  C_11
REMARK    3  A    between atoms: C_11  and  C_12
REMARK    4  A    between atoms: C_12  and  O_13
REMARK    5  A    between atoms: O_13  and  C_14
REMARK    6  A    between atoms: C_14  and  S_15
REMARK    7  A    between atoms: N_16  and  C_17
REMARK    8  A    between atoms: C_20  and  N_21
REMARK                            x       y       z     vdW  Elec       q    Type
REMARK                         _______ _______ _______ _____ _____    ______ ____
ROOT
ATOM      1  C   UNL     1       2.179   5.605  19.774  0.00  0.00    +0.000 C 
ENDROOT
BRANCH   1   2
ATOM      2  C   UNL     1       3.296   4.561  19.776  0.00  0.00    +0.000 C 
BRANCH   2  12
ATOM      3  C   UNL     1       6.270   3.735  13.023  0.00  0.00    +0.000 C 
ATOM      4  C   UNL     1       6.117   4.140  14.462  0.00  0.00    +0.000 A 
ATOM      5  C   UNL     1       7.154   4.822  15.145  0.00  0.00    +0.000 A 
ATOM      6  C   UNL     1       7.013   5.205  16.487  0.00  0.00    +0.000 A 
ATOM      7  C   UNL     1       5.823   4.892  17.115  0.00  0.00    +0.000 A 
ATOM      8  C   UNL     1       4.812   4.226  16.452  0.00  0.00    +0.000 A 
ATOM      9  C   UNL     1       4.924   3.832  15.133  0.00  0.00    +0.000 A 
ATOM     10  C   UNL     1       3.713   4.034  17.393  0.00  0.00    +0.000 C 
ATOM     11  O   UNL     1       2.694   3.422  17.141  0.00  0.00    +0.000 OA
ATOM     12  N   UNL     1       4.091   4.628  18.563  0.00  0.00    +0.000 N 
ATOM     13  C   UNL     1       5.364   5.123  18.492  0.00  0.00    +0.000 C 
ATOM     14  O   UNL     1       6.041   5.629  19.364  0.00  0.00    +0.000 OA
ENDBRANCH   2  12
ENDBRANCH   1   2
BRANCH   1  15
ATOM     15  O   UNL     1       2.489   6.654  18.841  0.00  0.00    +0.000 OA
BRANCH  15  16
ATOM     16  C   UNL     1       1.980   7.889  19.134  0.00  0.00    +0.000 C 
ATOM     17  N   UNL     1       1.923   8.801  18.213  0.00  0.00    +0.000 NA
BRANCH  17  18
ATOM     18  C   UNL     1       1.405  10.093  18.384  0.00  0.00    +0.000 A 
ATOM     19  C   UNL     1       2.178  11.258  18.341  0.00  0.00    +0.000 A 
ATOM     20  C   UNL     1       1.610  12.515  18.575  0.00  0.00    +0.000 A 
ATOM     21  C   UNL     1       0.230  12.622  18.770  0.00  0.00    +0.000 A 
ATOM     22  C   UNL     1      -0.581  11.484  18.700  0.00  0.00    +0.000 A 
ATOM     23  C   UNL     1       0.014  10.230  18.514  0.00  0.00    +0.000 A 
BRANCH  21  24
ATOM     24  N   UNL     1      -0.362  13.933  19.058  0.00  0.00    +0.000 N 
ATOM     25  O   UNL     1      -1.425  13.957  19.694  0.00  0.00    +0.000 OA
ATOM     26  O   UNL     1       0.229  14.939  18.640  0.00  0.00    +0.000 OA
ENDBRANCH  21  24
ENDBRANCH  17  18
BRANCH  16  27
ATOM     27  S   UNL     1       1.450   8.049  20.797  0.00  0.00    +0.000 S 
ATOM     28  H   UNL     1       0.703   6.937  20.799  0.00  0.00    +0.000 HD
ENDBRANCH  16  27
ENDBRANCH  15  16
ENDBRANCH   1  15
TORSDOF 7
ENDMDL
