MODEL 1
REMARK VINA RESULT:      -6.7      0.000      0.000
REMARK  Name = 
REMARK  18 active torsions:
REMARK  status: ('A' for Active; 'I' for Inactive)
REMARK    1  A    between atoms: C_1  and  C_2
REMARK    2  A    between atoms: C_2  and  C_3
REMARK    3  A    between atoms: C_3  and  C_4
REMARK    4  A    between atoms: C_4  and  C_5
REMARK    5  A    between atoms: C_5  and  C_6
REMARK    6  A    between atoms: C_6  and  C_7
REMARK    7  A    between atoms: C_7  and  C_8
REMARK    8  A    between atoms: C_8  and  C_9
REMARK    9  A    between atoms: C_9  and  C_10
REMARK   10  A    between atoms: C_10  and  C_11
REMARK   11  A    between atoms: C_11  and  C_12
REMARK   12  A    between atoms: C_12  and  O_13
REMARK   13  A    between atoms: O_13  and  N_14
REMARK   14  A    between atoms: C_15  and  C_16
REMARK   15  A    between atoms: C_18  and  O_19
REMARK   16  A    between atoms: O_19  and  C_20
REMARK   17  A    between atoms: C_23  and  O_24
REMARK   18  A    between atoms: O_24  and  C_25
REMARK                            x       y       z     vdW  Elec       q    Type
REMARK                         _______ _______ _______ _____ _____    ______ ____
ROOT
ATOM      1  C   UNL     1      -0.391  10.445  18.373  0.00  0.00    +0.000 A 
ATOM      2  C   UNL     1      -1.170   9.985  17.313  0.00  0.00    +0.000 A 
ATOM      3  C   UNL     1      -2.518  10.349  17.158  0.00  0.00    +0.000 A 
ATOM      4  C   UNL     1      -3.086  11.240  18.090  0.00  0.00    +0.000 A 
ATOM      5  C   UNL     1      -2.273  11.757  19.156  0.00  0.00    +0.000 A 
ATOM      6  C   UNL     1      -0.927  11.338  19.324  0.00  0.00    +0.000 A 
ATOM      7  C   UNL     1      -2.932  12.775  20.021  0.00  0.00    +0.000 C 
ATOM      8  O   UNL     1      -2.376  13.774  20.456  0.00  0.00    +0.000 OA
ATOM      9  C   UNL     1      -4.370  12.634  20.283  0.00  0.00    +0.000 C 
ATOM     10  C   UNL     1      -5.134  12.115  19.328  0.00  0.00    +0.000 C 
ATOM     11  C   UNL     1      -4.516  11.689  18.062  0.00  0.00    +0.000 C 
ATOM     12  O   UNL     1      -5.218  11.771  17.066  0.00  0.00    +0.000 OA
ENDROOT
BRANCH   1  14
ATOM     13  N   UNL     1       1.495   9.042  17.683  0.00  0.00    +0.000 NA
ATOM     14  C   UNL     1       1.010   9.944  18.483  0.00  0.00    +0.000 C 
BRANCH  13  15
ATOM     15  O   UNL     1       2.835   8.785  18.039  0.00  0.00    +0.000 OA
BRANCH  15  16
ATOM     16  C   UNL     1       3.156   7.437  17.686  0.00  0.00    +0.000 C 
BRANCH  16  17
ATOM     17  C   UNL     1       2.263   6.453  18.446  0.00  0.00    +0.000 C 
BRANCH  17  18
ATOM     18  C   UNL     1       2.701   6.171  19.886  0.00  0.00    +0.000 C 
BRANCH  18  19
ATOM     19  C   UNL     1       1.666   5.365  20.666  0.00  0.00    +0.000 C 
BRANCH  19  20
ATOM     20  C   UNL     1       1.999   3.875  20.665  0.00  0.00    +0.000 C 
BRANCH  20  21
ATOM     21  C   UNL     1       0.923   3.097  19.914  0.00  0.00    +0.000 C 
BRANCH  21  22
ATOM     22  C   UNL     1       1.544   2.145  18.898  0.00  0.00    +0.000 C 
BRANCH  22  23
ATOM     23  C   UNL     1       2.171   2.919  17.743  0.00  0.00    +0.000 C 
BRANCH  23  24
ATOM     24  C   UNL     1       3.694   2.845  17.802  0.00  0.00    +0.000 C 
BRANCH  24  25
ATOM     25  C   UNL     1       4.323   3.803  16.795  0.00  0.00    +0.000 C 
BRANCH  25  27
ATOM     26  C   UNL     1       5.557   4.407  18.893  0.00  0.00    +0.000 C 
ATOM     27  C   UNL     1       5.565   4.472  17.376  0.00  0.00    +0.000 C 
ENDBRANCH  25  27
ENDBRANCH  24  25
ENDBRANCH  23  24
ENDBRANCH  22  23
ENDBRANCH  21  22
ENDBRANCH  20  21
ENDBRANCH  19  20
ENDBRANCH  18  19
ENDBRANCH  17  18
ENDBRANCH  16  17
ENDBRANCH  15  16
ENDBRANCH  13  15
ENDBRANCH   1  14
BRANCH   3  28
ATOM     28  O   UNL     1      -3.017   9.670  16.086  0.00  0.00    +0.000 OA
ATOM     29  C   UNL     1      -2.994  10.160  14.764  0.00  0.00    +0.000 C 
ENDBRANCH   3  28
BRANCH   6  30
ATOM     30  O   UNL     1      -0.021  11.610  20.309  0.00  0.00    +0.000 OA
ATOM     31  C   UNL     1      -0.153  11.208  21.657  0.00  0.00    +0.000 C 
ENDBRANCH   6  30
TORSDOF 15
ENDMDL
MODEL 2
REMARK VINA RESULT:      -6.4      1.503      2.955
REMARK  Name = 
REMARK  18 active torsions:
REMARK  status: ('A' for Active; 'I' for Inactive)
REMARK    1  A    between atoms: C_1  and  C_2
REMARK    2  A    between atoms: C_2  and  C_3
REMARK    3  A    between atoms: C_3  and  C_4
REMARK    4  A    between atoms: C_4  and  C_5
REMARK    5  A    between atoms: C_5  and  C_6
REMARK    6  A    between atoms: C_6  and  C_7
REMARK    7  A    between atoms: C_7  and  C_8
REMARK    8  A    between atoms: C_8  and  C_9
REMARK    9  A    between atoms: C_9  and  C_10
REMARK   10  A    between atoms: C_10  and  C_11
REMARK   11  A    between atoms: C_11  and  C_12
REMARK   12  A    between atoms: C_12  and  O_13
REMARK   13  A    between atoms: O_13  and  N_14
REMARK   14  A    between atoms: C_15  and  C_16
REMARK   15  A    between atoms: C_18  and  O_19
REMARK   16  A    between atoms: O_19  and  C_20
REMARK   17  A    between atoms: C_23  and  O_24
REMARK   18  A    between atoms: O_24  and  C_25
REMARK                            x       y       z     vdW  Elec       q    Type
REMARK                         _______ _______ _______ _____ _____    ______ ____
ROOT
ATOM      1  C   UNL     1       0.075  10.763  19.483  0.00  0.00    +0.000 A 
ATOM      2  C   UNL     1      -0.946  11.090  18.593  0.00  0.00    +0.000 A 
ATOM      3  C   UNL     1      -2.112  11.759  19.001  0.00  0.00    +0.000 A 
ATOM      4  C   UNL     1      -2.231  12.141  20.352  0.00  0.00    +0.000 A 
ATOM      5  C   UNL     1      -1.160  11.851  21.263  0.00  0.00    +0.000 A 
ATOM      6  C   UNL     1      -0.011  11.130  20.842  0.00  0.00    +0.000 A 
ATOM      7  C   UNL     1      -1.332  12.392  22.640  0.00  0.00    +0.000 C 
ATOM      8  O   UNL     1      -0.430  12.881  23.307  0.00  0.00    +0.000 OA
ATOM      9  C   UNL     1      -2.690  12.446  23.197  0.00  0.00    +0.000 C 
ATOM     10  C   UNL     1      -3.701  12.668  22.365  0.00  0.00    +0.000 C 
ATOM     11  C   UNL     1      -3.430  12.833  20.928  0.00  0.00    +0.000 C 
ATOM     12  O   UNL     1      -4.195  13.562  20.316  0.00  0.00    +0.000 OA
ENDROOT
BRANCH   1  14
ATOM     13  N   UNL     1       1.226   9.401  17.804  0.00  0.00    +0.000 NA
ATOM     14  C   UNL     1       1.241   9.991  18.961  0.00  0.00    +0.000 C 
BRANCH  13  15
ATOM     15  O   UNL     1       2.468   8.765  17.597  0.00  0.00    +0.000 OA
BRANCH  15  16
ATOM     16  C   UNL     1       2.290   7.352  17.726  0.00  0.00    +0.000 C 
BRANCH  16  17
ATOM     17  C   UNL     1       2.930   6.843  19.021  0.00  0.00    +0.000 C 
BRANCH  17  18
ATOM     18  C   UNL     1       4.164   5.958  18.820  0.00  0.00    +0.000 C 
BRANCH  18  19
ATOM     19  C   UNL     1       4.659   5.963  17.376  0.00  0.00    +0.000 C 
BRANCH  19  20
ATOM     20  C   UNL     1       4.636   4.562  16.770  0.00  0.00    +0.000 C 
BRANCH  20  21
ATOM     21  C   UNL     1       4.035   3.570  17.762  0.00  0.00    +0.000 C 
BRANCH  21  22
ATOM     22  C   UNL     1       2.724   2.997  17.236  0.00  0.00    +0.000 C 
BRANCH  22  23
ATOM     23  C   UNL     1       1.532   3.621  17.957  0.00  0.00    +0.000 C 
BRANCH  23  24
ATOM     24  C   UNL     1       0.916   2.635  18.944  0.00  0.00    +0.000 C 
BRANCH  24  25
ATOM     25  C   UNL     1       0.620   3.315  20.277  0.00  0.00    +0.000 C 
BRANCH  25  27
ATOM     26  C   UNL     1       2.707   2.700  21.523  0.00  0.00    +0.000 C 
ATOM     27  C   UNL     1       1.899   3.837  20.923  0.00  0.00    +0.000 C 
ENDBRANCH  25  27
ENDBRANCH  24  25
ENDBRANCH  23  24
ENDBRANCH  22  23
ENDBRANCH  21  22
ENDBRANCH  20  21
ENDBRANCH  19  20
ENDBRANCH  18  19
ENDBRANCH  17  18
ENDBRANCH  16  17
ENDBRANCH  15  16
ENDBRANCH  13  15
ENDBRANCH   1  14
BRANCH   3  28
ATOM     28  O   UNL     1      -2.942  11.851  17.924  0.00  0.00    +0.000 OA
ATOM     29  C   UNL     1      -3.914  10.884  17.593  0.00  0.00    +0.000 C 
ENDBRANCH   3  28
BRANCH   6  30
ATOM     30  O   UNL     1       1.058  10.658  21.549  0.00  0.00    +0.000 OA
ATOM     31  C   UNL     1       1.046   9.487  22.339  0.00  0.00    +0.000 C 
ENDBRANCH   6  30
TORSDOF 15
ENDMDL
MODEL 3
REMARK VINA RESULT:      -6.3      1.392      2.340
REMARK  Name = 
REMARK  18 active torsions:
REMARK  status: ('A' for Active; 'I' for Inactive)
REMARK    1  A    between atoms: C_1  and  C_2
REMARK    2  A    between atoms: C_2  and  C_3
REMARK    3  A    between atoms: C_3  and  C_4
REMARK    4  A    between atoms: C_4  and  C_5
REMARK    5  A    between atoms: C_5  and  C_6
REMARK    6  A    between atoms: C_6  and  C_7
REMARK    7  A    between atoms: C_7  and  C_8
REMARK    8  A    between atoms: C_8  and  C_9
REMARK    9  A    between atoms: C_9  and  C_10
REMARK   10  A    between atoms: C_10  and  C_11
REMARK   11  A    between atoms: C_11  and  C_12
REMARK   12  A    between atoms: C_12  and  O_13
REMARK   13  A    between atoms: O_13  and  N_14
REMARK   14  A    between atoms: C_15  and  C_16
REMARK   15  A    between atoms: C_18  and  O_19
REMARK   16  A    between atoms: O_19  and  C_20
REMARK   17  A    between atoms: C_23  and  O_24
REMARK   18  A    between atoms: O_24  and  C_25
REMARK                            x       y       z     vdW  Elec       q    Type
REMARK                         _______ _______ _______ _____ _____    ______ ____
ROOT
ATOM      1  C   UNL     1      -0.359  10.307  18.408  0.00  0.00    +0.000 A 
ATOM      2  C   UNL     1      -1.138   9.869  17.337  0.00  0.00    +0.000 A 
ATOM      3  C   UNL     1      -2.464  10.293  17.151  0.00  0.00    +0.000 A 
ATOM      4  C   UNL     1      -3.009  11.220  18.062  0.00  0.00    +0.000 A 
ATOM      5  C   UNL     1      -2.195  11.712  19.138  0.00  0.00    +0.000 A 
ATOM      6  C   UNL     1      -0.873  11.234  19.338  0.00  0.00    +0.000 A 
ATOM      7  C   UNL     1      -2.824  12.769  19.978  0.00  0.00    +0.000 C 
ATOM      8  O   UNL     1      -2.231  13.747  20.413  0.00  0.00    +0.000 OA
ATOM      9  C   UNL     1      -4.272  12.697  20.212  0.00  0.00    +0.000 C 
ATOM     10  C   UNL     1      -5.039  12.202  19.248  0.00  0.00    +0.000 C 
ATOM     11  C   UNL     1      -4.417  11.733  17.999  0.00  0.00    +0.000 C 
ATOM     12  O   UNL     1      -5.093  11.835  16.988  0.00  0.00    +0.000 OA
ENDROOT
BRANCH   1  14
ATOM     13  N   UNL     1       1.646   9.179  17.567  0.00  0.00    +0.000 NA
ATOM     14  C   UNL     1       1.014   9.743  18.553  0.00  0.00    +0.000 C 
BRANCH  13  15
ATOM     15  O   UNL     1       2.914   8.756  18.017  0.00  0.00    +0.000 OA
BRANCH  15  16
ATOM     16  C   UNL     1       3.129   7.408  17.590  0.00  0.00    +0.000 C 
BRANCH  16  17
ATOM     17  C   UNL     1       2.496   6.422  18.576  0.00  0.00    +0.000 C 
BRANCH  17  18
ATOM     18  C   UNL     1       2.045   5.096  17.955  0.00  0.00    +0.000 C 
BRANCH  18  19
ATOM     19  C   UNL     1       2.707   3.887  18.610  0.00  0.00    +0.000 C 
BRANCH  19  20
ATOM     20  C   UNL     1       4.208   3.853  18.337  0.00  0.00    +0.000 C 
BRANCH  20  21
ATOM     21  C   UNL     1       4.472   3.403  16.903  0.00  0.00    +0.000 C 
BRANCH  21  22
ATOM     22  C   UNL     1       5.083   4.530  16.078  0.00  0.00    +0.000 C 
BRANCH  22  23
ATOM     23  C   UNL     1       6.592   4.347  15.946  0.00  0.00    +0.000 C 
BRANCH  23  24
ATOM     24  C   UNL     1       7.318   4.925  17.156  0.00  0.00    +0.000 C 
BRANCH  24  25
ATOM     25  C   UNL     1       6.857   6.351  17.436  0.00  0.00    +0.000 C 
BRANCH  25  27
ATOM     26  C   UNL     1       8.052   8.536  17.736  0.00  0.00    +0.000 C 
ATOM     27  C   UNL     1       7.897   7.115  18.250  0.00  0.00    +0.000 C 
ENDBRANCH  25  27
ENDBRANCH  24  25
ENDBRANCH  23  24
ENDBRANCH  22  23
ENDBRANCH  21  22
ENDBRANCH  20  21
ENDBRANCH  19  20
ENDBRANCH  18  19
ENDBRANCH  17  18
ENDBRANCH  16  17
ENDBRANCH  15  16
ENDBRANCH  13  15
ENDBRANCH   1  14
BRANCH   3  28
ATOM     28  O   UNL     1      -2.972   9.625  16.077  0.00  0.00    +0.000 OA
ATOM     29  C   UNL     1      -2.942  10.118  14.756  0.00  0.00    +0.000 C 
ENDBRANCH   3  28
BRANCH   6  30
ATOM     30  O   UNL     1       0.024  11.476  20.339  0.00  0.00    +0.000 OA
ATOM     31  C   UNL     1       0.845  12.623  20.423  0.00  0.00    +0.000 C 
ENDBRANCH   6  30
TORSDOF 15
ENDMDL
MODEL 4
REMARK VINA RESULT:      -6.0      0.819      2.346
REMARK  Name = 
REMARK  18 active torsions:
REMARK  status: ('A' for Active; 'I' for Inactive)
REMARK    1  A    between atoms: C_1  and  C_2
REMARK    2  A    between atoms: C_2  and  C_3
REMARK    3  A    between atoms: C_3  and  C_4
REMARK    4  A    between atoms: C_4  and  C_5
REMARK    5  A    between atoms: C_5  and  C_6
REMARK    6  A    between atoms: C_6  and  C_7
REMARK    7  A    between atoms: C_7  and  C_8
REMARK    8  A    between atoms: C_8  and  C_9
REMARK    9  A    between atoms: C_9  and  C_10
REMARK   10  A    between atoms: C_10  and  C_11
REMARK   11  A    between atoms: C_11  and  C_12
REMARK   12  A    between atoms: C_12  and  O_13
REMARK   13  A    between atoms: O_13  and  N_14
REMARK   14  A    between atoms: C_15  and  C_16
REMARK   15  A    between atoms: C_18  and  O_19
REMARK   16  A    between atoms: O_19  and  C_20
REMARK   17  A    between atoms: C_23  and  O_24
REMARK   18  A    between atoms: O_24  and  C_25
REMARK                            x       y       z     vdW  Elec       q    Type
REMARK                         _______ _______ _______ _____ _____    ______ ____
ROOT
ATOM      1  C   UNL     1      -0.597  10.092  18.120  0.00  0.00    +0.000 A 
ATOM      2  C   UNL     1      -1.588   9.855  17.169  0.00  0.00    +0.000 A 
ATOM      3  C   UNL     1      -2.849  10.472  17.228  0.00  0.00    +0.000 A 
ATOM      4  C   UNL     1      -3.101  11.389  18.268  0.00  0.00    +0.000 A 
ATOM      5  C   UNL     1      -2.066  11.675  19.222  0.00  0.00    +0.000 A 
ATOM      6  C   UNL     1      -0.816  11.003  19.173  0.00  0.00    +0.000 A 
ATOM      7  C   UNL     1      -2.392  12.737  20.214  0.00  0.00    +0.000 C 
ATOM      8  O   UNL     1      -1.599  13.585  20.601  0.00  0.00    +0.000 OA
ATOM      9  C   UNL     1      -3.780  12.848  20.678  0.00  0.00    +0.000 C 
ATOM     10  C   UNL     1      -4.753  12.544  19.826  0.00  0.00    +0.000 C 
ATOM     11  C   UNL     1      -4.408  12.096  18.467  0.00  0.00    +0.000 C 
ATOM     12  O   UNL     1      -5.210  12.373  17.590  0.00  0.00    +0.000 OA
ENDROOT
BRANCH   1  14
ATOM     13  N   UNL     1       1.790   9.887  17.611  0.00  0.00    +0.000 NA
ATOM     14  C   UNL     1       0.682   9.333  18.004  0.00  0.00    +0.000 C 
BRANCH  13  15
ATOM     15  O   UNL     1       2.813   8.917  17.610  0.00  0.00    +0.000 OA
BRANCH  15  16
ATOM     16  C   UNL     1       2.285   7.687  18.113  0.00  0.00    +0.000 C 
BRANCH  16  17
ATOM     17  C   UNL     1       3.406   6.665  18.328  0.00  0.00    +0.000 C 
BRANCH  17  18
ATOM     18  C   UNL     1       4.635   6.868  17.437  0.00  0.00    +0.000 C 
BRANCH  18  19
ATOM     19  C   UNL     1       4.788   5.768  16.390  0.00  0.00    +0.000 C 
BRANCH  19  20
ATOM     20  C   UNL     1       5.421   4.512  16.984  0.00  0.00    +0.000 C 
BRANCH  20  21
ATOM     21  C   UNL     1       4.566   3.985  18.133  0.00  0.00    +0.000 C 
BRANCH  21  22
ATOM     22  C   UNL     1       3.880   2.678  17.751  0.00  0.00    +0.000 C 
BRANCH  22  23
ATOM     23  C   UNL     1       2.469   2.939  17.232  0.00  0.00    +0.000 C 
BRANCH  23  24
ATOM     24  C   UNL     1       1.582   3.512  18.333  0.00  0.00    +0.000 C 
BRANCH  24  25
ATOM     25  C   UNL     1       1.461   2.534  19.497  0.00  0.00    +0.000 C 
BRANCH  25  27
ATOM     26  C   UNL     1       2.235   4.146  21.254  0.00  0.00    +0.000 C 
ATOM     27  C   UNL     1       1.095   3.258  20.788  0.00  0.00    +0.000 C 
ENDBRANCH  25  27
ENDBRANCH  24  25
ENDBRANCH  23  24
ENDBRANCH  22  23
ENDBRANCH  21  22
ENDBRANCH  20  21
ENDBRANCH  19  20
ENDBRANCH  18  19
ENDBRANCH  17  18
ENDBRANCH  16  17
ENDBRANCH  15  16
ENDBRANCH  13  15
ENDBRANCH   1  14
BRANCH   3  28
ATOM     28  O   UNL     1      -3.611   9.970  16.216  0.00  0.00    +0.000 OA
ATOM     29  C   UNL     1      -3.320  10.148  14.847  0.00  0.00    +0.000 C 
ENDBRANCH   3  28
BRANCH   6  30
ATOM     30  O   UNL     1       0.251  11.037  20.025  0.00  0.00    +0.000 OA
ATOM     31  C   UNL     1       0.253  10.508  21.335  0.00  0.00    +0.000 C 
ENDBRANCH   6  30
TORSDOF 15
ENDMDL
MODEL 5
REMARK VINA RESULT:      -6.0      5.806     10.081
REMARK  Name = 
REMARK  18 active torsions:
REMARK  status: ('A' for Active; 'I' for Inactive)
REMARK    1  A    between atoms: C_1  and  C_2
REMARK    2  A    between atoms: C_2  and  C_3
REMARK    3  A    between atoms: C_3  and  C_4
REMARK    4  A    between atoms: C_4  and  C_5
REMARK    5  A    between atoms: C_5  and  C_6
REMARK    6  A    between atoms: C_6  and  C_7
REMARK    7  A    between atoms: C_7  and  C_8
REMARK    8  A    between atoms: C_8  and  C_9
REMARK    9  A    between atoms: C_9  and  C_10
REMARK   10  A    between atoms: C_10  and  C_11
REMARK   11  A    between atoms: C_11  and  C_12
REMARK   12  A    between atoms: C_12  and  O_13
REMARK   13  A    between atoms: O_13  and  N_14
REMARK   14  A    between atoms: C_15  and  C_16
REMARK   15  A    between atoms: C_18  and  O_19
REMARK   16  A    between atoms: O_19  and  C_20
REMARK   17  A    between atoms: C_23  and  O_24
REMARK   18  A    between atoms: O_24  and  C_25
REMARK                            x       y       z     vdW  Elec       q    Type
REMARK                         _______ _______ _______ _____ _____    ______ ____
ROOT
ATOM      1  C   UNL     1       5.020   5.756  18.157  0.00  0.00    +0.000 A 
ATOM      2  C   UNL     1       4.036   6.544  18.750  0.00  0.00    +0.000 A 
ATOM      3  C   UNL     1       2.796   6.020  19.153  0.00  0.00    +0.000 A 
ATOM      4  C   UNL     1       2.559   4.642  18.979  0.00  0.00    +0.000 A 
ATOM      5  C   UNL     1       3.589   3.815  18.414  0.00  0.00    +0.000 A 
ATOM      6  C   UNL     1       4.817   4.373  17.969  0.00  0.00    +0.000 A 
ATOM      7  C   UNL     1       3.285   2.358  18.376  0.00  0.00    +0.000 C 
ATOM      8  O   UNL     1       4.100   1.477  18.614  0.00  0.00    +0.000 OA
ATOM      9  C   UNL     1       1.895   1.947  18.144  0.00  0.00    +0.000 C 
ATOM     10  C   UNL     1       0.925   2.721  18.618  0.00  0.00    +0.000 C 
ATOM     11  C   UNL     1       1.274   3.957  19.337  0.00  0.00    +0.000 C 
ATOM     12  O   UNL     1       0.495   4.313  20.206  0.00  0.00    +0.000 OA
ENDROOT
BRANCH   1  14
ATOM     13  N   UNL     1       6.277   7.583  17.118  0.00  0.00    +0.000 NA
ATOM     14  C   UNL     1       6.275   6.424  17.704  0.00  0.00    +0.000 C 
BRANCH  13  15
ATOM     15  O   UNL     1       7.607   7.944  16.818  0.00  0.00    +0.000 OA
BRANCH  15  16
ATOM     16  C   UNL     1       8.270   8.313  18.030  0.00  0.00    +0.000 C 
BRANCH  16  17
ATOM     17  C   UNL     1       8.508   9.825  18.077  0.00  0.00    +0.000 C 
BRANCH  17  18
ATOM     18  C   UNL     1       9.288  10.312  19.302  0.00  0.00    +0.000 C 
BRANCH  18  19
ATOM     19  C   UNL     1      10.543  11.094  18.924  0.00  0.00    +0.000 C 
BRANCH  19  20
ATOM     20  C   UNL     1      10.286  12.031  17.746  0.00  0.00    +0.000 C 
BRANCH  20  21
ATOM     21  C   UNL     1       9.612  13.311  18.229  0.00  0.00    +0.000 C 
BRANCH  21  22
ATOM     22  C   UNL     1      10.426  13.977  19.331  0.00  0.00    +0.000 C 
BRANCH  22  23
ATOM     23  C   UNL     1       9.512  14.543  20.415  0.00  0.00    +0.000 C 
BRANCH  23  24
ATOM     24  C   UNL     1       9.779  13.869  21.757  0.00  0.00    +0.000 C 
BRANCH  24  25
ATOM     25  C   UNL     1       8.890  12.642  21.935  0.00  0.00    +0.000 C 
BRANCH  25  27
ATOM     26  C   UNL     1       8.080  11.645  24.088  0.00  0.00    +0.000 C 
ATOM     27  C   UNL     1       7.952  12.812  23.125  0.00  0.00    +0.000 C 
ENDBRANCH  25  27
ENDBRANCH  24  25
ENDBRANCH  23  24
ENDBRANCH  22  23
ENDBRANCH  21  22
ENDBRANCH  20  21
ENDBRANCH  19  20
ENDBRANCH  18  19
ENDBRANCH  17  18
ENDBRANCH  16  17
ENDBRANCH  15  16
ENDBRANCH  13  15
ENDBRANCH   1  14
BRANCH   3  28
ATOM     28  O   UNL     1       2.032   7.051  19.611  0.00  0.00    +0.000 OA
ATOM     29  C   UNL     1       1.770   7.292  20.976  0.00  0.00    +0.000 C 
ENDBRANCH   3  28
BRANCH   6  30
ATOM     30  O   UNL     1       5.872   3.805  17.314  0.00  0.00    +0.000 OA
ATOM     31  C   UNL     1       5.916   3.552  15.925  0.00  0.00    +0.000 C 
ENDBRANCH   6  30
TORSDOF 15
ENDMDL
MODEL 6
REMARK VINA RESULT:      -5.9      1.811      2.855
REMARK  Name = 
REMARK  18 active torsions:
REMARK  status: ('A' for Active; 'I' for Inactive)
REMARK    1  A    between atoms: C_1  and  C_2
REMARK    2  A    between atoms: C_2  and  C_3
REMARK    3  A    between atoms: C_3  and  C_4
REMARK    4  A    between atoms: C_4  and  C_5
REMARK    5  A    between atoms: C_5  and  C_6
REMARK    6  A    between atoms: C_6  and  C_7
REMARK    7  A    between atoms: C_7  and  C_8
REMARK    8  A    between atoms: C_8  and  C_9
REMARK    9  A    between atoms: C_9  and  C_10
REMARK   10  A    between atoms: C_10  and  C_11
REMARK   11  A    between atoms: C_11  and  C_12
REMARK   12  A    between atoms: C_12  and  O_13
REMARK   13  A    between atoms: O_13  and  N_14
REMARK   14  A    between atoms: C_15  and  C_16
REMARK   15  A    between atoms: C_18  and  O_19
REMARK   16  A    between atoms: O_19  and  C_20
REMARK   17  A    between atoms: C_23  and  O_24
REMARK   18  A    between atoms: O_24  and  C_25
REMARK                            x       y       z     vdW  Elec       q    Type
REMARK                         _______ _______ _______ _____ _____    ______ ____
ROOT
ATOM      1  C   UNL     1      -0.131  10.151  18.469  0.00  0.00    +0.000 A 
ATOM      2  C   UNL     1      -0.942   9.765  17.403  0.00  0.00    +0.000 A 
ATOM      3  C   UNL     1      -2.244  10.265  17.232  0.00  0.00    +0.000 A 
ATOM      4  C   UNL     1      -2.728  11.214  18.154  0.00  0.00    +0.000 A 
ATOM      5  C   UNL     1      -1.878  11.652  19.226  0.00  0.00    +0.000 A 
ATOM      6  C   UNL     1      -0.582  11.099  19.410  0.00  0.00    +0.000 A 
ATOM      7  C   UNL     1      -2.438  12.736  20.079  0.00  0.00    +0.000 C 
ATOM      8  O   UNL     1      -1.787  13.676  20.516  0.00  0.00    +0.000 OA
ATOM      9  C   UNL     1      -3.885  12.744  20.327  0.00  0.00    +0.000 C 
ATOM     10  C   UNL     1      -4.688  12.300  19.366  0.00  0.00    +0.000 C 
ATOM     11  C   UNL     1      -4.105  11.806  18.108  0.00  0.00    +0.000 C 
ATOM     12  O   UNL     1      -4.784  11.954  17.106  0.00  0.00    +0.000 OA
ENDROOT
BRANCH   1  14
ATOM     13  N   UNL     1       1.652   8.637  17.742  0.00  0.00    +0.000 NA
ATOM     14  C   UNL     1       1.211   9.510  18.597  0.00  0.00    +0.000 C 
BRANCH  13  15
ATOM     15  O   UNL     1       2.943   8.223  18.132  0.00  0.00    +0.000 OA
BRANCH  15  16
ATOM     16  C   UNL     1       3.099   6.837  17.818  0.00  0.00    +0.000 C 
BRANCH  16  17
ATOM     17  C   UNL     1       3.341   6.019  19.090  0.00  0.00    +0.000 C 
BRANCH  17  18
ATOM     18  C   UNL     1       4.813   5.717  19.386  0.00  0.00    +0.000 C 
BRANCH  18  19
ATOM     19  C   UNL     1       5.314   4.474  18.656  0.00  0.00    +0.000 C 
BRANCH  19  20
ATOM     20  C   UNL     1       4.179   3.752  17.935  0.00  0.00    +0.000 C 
BRANCH  20  21
ATOM     21  C   UNL     1       4.548   3.521  16.472  0.00  0.00    +0.000 C 
BRANCH  21  22
ATOM     22  C   UNL     1       5.934   4.077  16.162  0.00  0.00    +0.000 C 
BRANCH  22  23
ATOM     23  C   UNL     1       5.868   5.093  15.027  0.00  0.00    +0.000 C 
BRANCH  23  24
ATOM     24  C   UNL     1       5.295   4.461  13.763  0.00  0.00    +0.000 C 
BRANCH  24  25
ATOM     25  C   UNL     1       6.402   3.845  12.914  0.00  0.00    +0.000 C 
BRANCH  25  27
ATOM     26  C   UNL     1       4.432   3.145  11.529  0.00  0.00    +0.000 C 
ATOM     27  C   UNL     1       5.844   2.791  11.963  0.00  0.00    +0.000 C 
ENDBRANCH  25  27
ENDBRANCH  24  25
ENDBRANCH  23  24
ENDBRANCH  22  23
ENDBRANCH  21  22
ENDBRANCH  20  21
ENDBRANCH  19  20
ENDBRANCH  18  19
ENDBRANCH  17  18
ENDBRANCH  16  17
ENDBRANCH  15  16
ENDBRANCH  13  15
ENDBRANCH   1  14
BRANCH   3  28
ATOM     28  O   UNL     1      -2.799   9.634  16.159  0.00  0.00    +0.000 OA
ATOM     29  C   UNL     1      -2.804  10.162  14.851  0.00  0.00    +0.000 C 
ENDBRANCH   3  28
BRANCH   6  30
ATOM     30  O   UNL     1       0.336  11.283  20.404  0.00  0.00    +0.000 OA
ATOM     31  C   UNL     1       0.176  10.849  21.738  0.00  0.00    +0.000 C 
ENDBRANCH   6  30
TORSDOF 15
ENDMDL
MODEL 7
REMARK VINA RESULT:      -5.9      0.856      2.506
REMARK  Name = 
REMARK  18 active torsions:
REMARK  status: ('A' for Active; 'I' for Inactive)
REMARK    1  A    between atoms: C_1  and  C_2
REMARK    2  A    between atoms: C_2  and  C_3
REMARK    3  A    between atoms: C_3  and  C_4
REMARK    4  A    between atoms: C_4  and  C_5
REMARK    5  A    between atoms: C_5  and  C_6
REMARK    6  A    between atoms: C_6  and  C_7
REMARK    7  A    between atoms: C_7  and  C_8
REMARK    8  A    between atoms: C_8  and  C_9
REMARK    9  A    between atoms: C_9  and  C_10
REMARK   10  A    between atoms: C_10  and  C_11
REMARK   11  A    between atoms: C_11  and  C_12
REMARK   12  A    between atoms: C_12  and  O_13
REMARK   13  A    between atoms: O_13  and  N_14
REMARK   14  A    between atoms: C_15  and  C_16
REMARK   15  A    between atoms: C_18  and  O_19
REMARK   16  A    between atoms: O_19  and  C_20
REMARK   17  A    between atoms: C_23  and  O_24
REMARK   18  A    between atoms: O_24  and  C_25
REMARK                            x       y       z     vdW  Elec       q    Type
REMARK                         _______ _______ _______ _____ _____    ______ ____
ROOT
ATOM      1  C   UNL     1      -0.317  10.373  18.394  0.00  0.00    +0.000 A 
ATOM      2  C   UNL     1      -1.104   9.922  17.336  0.00  0.00    +0.000 A 
ATOM      3  C   UNL     1      -2.446  10.309  17.180  0.00  0.00    +0.000 A 
ATOM      4  C   UNL     1      -2.998  11.212  18.110  0.00  0.00    +0.000 A 
ATOM      5  C   UNL     1      -2.177  11.719  19.173  0.00  0.00    +0.000 A 
ATOM      6  C   UNL     1      -0.838  11.278  19.342  0.00  0.00    +0.000 A 
ATOM      7  C   UNL     1      -2.819  12.751  20.035  0.00  0.00    +0.000 C 
ATOM      8  O   UNL     1      -2.246  13.743  20.466  0.00  0.00    +0.000 OA
ATOM      9  C   UNL     1      -4.259  12.635  20.298  0.00  0.00    +0.000 C 
ATOM     10  C   UNL     1      -5.031  12.126  19.345  0.00  0.00    +0.000 C 
ATOM     11  C   UNL     1      -4.421  11.685  18.079  0.00  0.00    +0.000 C 
ATOM     12  O   UNL     1      -5.121  11.775  17.084  0.00  0.00    +0.000 OA
ENDROOT
BRANCH   1  14
ATOM     13  N   UNL     1       1.458   8.752  17.924  0.00  0.00    +0.000 NA
ATOM     14  C   UNL     1       1.075   9.849  18.506  0.00  0.00    +0.000 C 
BRANCH  13  15
ATOM     15  O   UNL     1       2.819   8.529  18.215  0.00  0.00    +0.000 OA
BRANCH  15  16
ATOM     16  C   UNL     1       3.206   7.264  17.672  0.00  0.00    +0.000 C 
BRANCH  16  17
ATOM     17  C   UNL     1       4.187   7.451  16.511  0.00  0.00    +0.000 C 
BRANCH  17  18
ATOM     18  C   UNL     1       5.054   6.226  16.202  0.00  0.00    +0.000 C 
BRANCH  18  19
ATOM     19  C   UNL     1       6.231   6.085  17.163  0.00  0.00    +0.000 C 
BRANCH  19  20
ATOM     20  C   UNL     1       6.245   4.714  17.835  0.00  0.00    +0.000 C 
BRANCH  20  21
ATOM     21  C   UNL     1       5.763   4.832  19.278  0.00  0.00    +0.000 C 
BRANCH  21  22
ATOM     22  C   UNL     1       4.276   4.514  19.387  0.00  0.00    +0.000 C 
BRANCH  22  23
ATOM     23  C   UNL     1       3.917   3.303  18.531  0.00  0.00    +0.000 C 
BRANCH  23  24
ATOM     24  C   UNL     1       2.737   3.614  17.616  0.00  0.00    +0.000 C 
BRANCH  24  25
ATOM     25  C   UNL     1       1.414   3.321  18.317  0.00  0.00    +0.000 C 
BRANCH  25  27
ATOM     26  C   UNL     1       1.116   3.003  20.786  0.00  0.00    +0.000 C 
ATOM     27  C   UNL     1       1.616   2.376  19.497  0.00  0.00    +0.000 C 
ENDBRANCH  25  27
ENDBRANCH  24  25
ENDBRANCH  23  24
ENDBRANCH  22  23
ENDBRANCH  21  22
ENDBRANCH  20  21
ENDBRANCH  19  20
ENDBRANCH  18  19
ENDBRANCH  17  18
ENDBRANCH  16  17
ENDBRANCH  15  16
ENDBRANCH  13  15
ENDBRANCH   1  14
BRANCH   3  28
ATOM     28  O   UNL     1      -2.956   9.634  16.111  0.00  0.00    +0.000 OA
ATOM     29  C   UNL     1      -2.985  10.146  14.797  0.00  0.00    +0.000 C 
ENDBRANCH   3  28
BRANCH   6  30
ATOM     30  O   UNL     1       0.073  11.539  20.326  0.00  0.00    +0.000 OA
ATOM     31  C   UNL     1      -0.039  11.096  21.663  0.00  0.00    +0.000 C 
ENDBRANCH   6  30
TORSDOF 15
ENDMDL
MODEL 8
REMARK VINA RESULT:      -5.9      4.511      9.172
REMARK  Name = 
REMARK  18 active torsions:
REMARK  status: ('A' for Active; 'I' for Inactive)
REMARK    1  A    between atoms: C_1  and  C_2
REMARK    2  A    between atoms: C_2  and  C_3
REMARK    3  A    between atoms: C_3  and  C_4
REMARK    4  A    between atoms: C_4  and  C_5
REMARK    5  A    between atoms: C_5  and  C_6
REMARK    6  A    between atoms: C_6  and  C_7
REMARK    7  A    between atoms: C_7  and  C_8
REMARK    8  A    between atoms: C_8  and  C_9
REMARK    9  A    between atoms: C_9  and  C_10
REMARK   10  A    between atoms: C_10  and  C_11
REMARK   11  A    between atoms: C_11  and  C_12
REMARK   12  A    between atoms: C_12  and  O_13
REMARK   13  A    between atoms: O_13  and  N_14
REMARK   14  A    between atoms: C_15  and  C_16
REMARK   15  A    between atoms: C_18  and  O_19
REMARK   16  A    between atoms: O_19  and  C_20
REMARK   17  A    between atoms: C_23  and  O_24
REMARK   18  A    between atoms: O_24  and  C_25
REMARK                            x       y       z     vdW  Elec       q    Type
REMARK                         _______ _______ _______ _____ _____    ______ ____
ROOT
ATOM      1  C   UNL     1       4.252   3.480  17.542  0.00  0.00    +0.000 A 
ATOM      2  C   UNL     1       4.480   3.739  16.191  0.00  0.00    +0.000 A 
ATOM      3  C   UNL     1       5.465   4.641  15.755  0.00  0.00    +0.000 A 
ATOM      4  C   UNL     1       6.269   5.278  16.721  0.00  0.00    +0.000 A 
ATOM      5  C   UNL     1       6.072   4.978  18.112  0.00  0.00    +0.000 A 
ATOM      6  C   UNL     1       5.039   4.099  18.535  0.00  0.00    +0.000 A 
ATOM      7  C   UNL     1       7.043   5.615  19.044  0.00  0.00    +0.000 C 
ATOM      8  O   UNL     1       7.525   5.060  20.022  0.00  0.00    +0.000 OA
ATOM      9  C   UNL     1       7.543   6.955  18.713  0.00  0.00    +0.000 C 
ATOM     10  C   UNL     1       7.690   7.271  17.430  0.00  0.00    +0.000 C 
ATOM     11  C   UNL     1       7.335   6.283  16.399  0.00  0.00    +0.000 C 
ATOM     12  O   UNL     1       7.972   6.338  15.359  0.00  0.00    +0.000 OA
ENDROOT
BRANCH   1  14
ATOM     13  N   UNL     1       1.899   2.802  17.593  0.00  0.00    +0.000 NA
ATOM     14  C   UNL     1       3.137   2.556  17.900  0.00  0.00    +0.000 C 
BRANCH  13  15
ATOM     15  O   UNL     1       1.090   1.747  18.061  0.00  0.00    +0.000 OA
BRANCH  15  16
ATOM     16  C   UNL     1       0.197   2.255  19.055  0.00  0.00    +0.000 C 
BRANCH  16  17
ATOM     17  C   UNL     1       0.978   2.887  20.211  0.00  0.00    +0.000 C 
BRANCH  17  18
ATOM     18  C   UNL     1       0.832   4.407  20.327  0.00  0.00    +0.000 C 
BRANCH  18  19
ATOM     19  C   UNL     1       2.018   5.057  21.034  0.00  0.00    +0.000 C 
BRANCH  19  20
ATOM     20  C   UNL     1       2.419   6.370  20.366  0.00  0.00    +0.000 C 
BRANCH  20  21
ATOM     21  C   UNL     1       2.235   6.268  18.854  0.00  0.00    +0.000 C 
BRANCH  21  22
ATOM     22  C   UNL     1       2.917   7.429  18.140  0.00  0.00    +0.000 C 
BRANCH  22  23
ATOM     23  C   UNL     1       1.892   8.296  17.416  0.00  0.00    +0.000 C 
BRANCH  23  24
ATOM     24  C   UNL     1       1.844   9.698  18.016  0.00  0.00    +0.000 C 
BRANCH  24  25
ATOM     25  C   UNL     1       0.732   9.805  19.054  0.00  0.00    +0.000 C 
BRANCH  25  27
ATOM     26  C   UNL     1      -1.537  10.210  18.066  0.00  0.00    +0.000 C 
ATOM     27  C   UNL     1      -0.295  10.859  18.652  0.00  0.00    +0.000 C 
ENDBRANCH  25  27
ENDBRANCH  24  25
ENDBRANCH  23  24
ENDBRANCH  22  23
ENDBRANCH  21  22
ENDBRANCH  20  21
ENDBRANCH  19  20
ENDBRANCH  18  19
ENDBRANCH  17  18
ENDBRANCH  16  17
ENDBRANCH  15  16
ENDBRANCH  13  15
ENDBRANCH   1  14
BRANCH   3  28
ATOM     28  O   UNL     1       5.378   4.735  14.398  0.00  0.00    +0.000 OA
ATOM     29  C   UNL     1       6.037   3.866  13.504  0.00  0.00    +0.000 C 
ENDBRANCH   3  28
BRANCH   6  30
ATOM     30  O   UNL     1       4.608   3.762  19.786  0.00  0.00    +0.000 OA
ATOM     31  C   UNL     1       4.700   2.469  20.347  0.00  0.00    +0.000 C 
ENDBRANCH   6  30
TORSDOF 15
ENDMDL
MODEL 9
REMARK VINA RESULT:      -5.9      0.914      1.298
REMARK  Name = 
REMARK  18 active torsions:
REMARK  status: ('A' for Active; 'I' for Inactive)
REMARK    1  A    between atoms: C_1  and  C_2
REMARK    2  A    between atoms: C_2  and  C_3
REMARK    3  A    between atoms: C_3  and  C_4
REMARK    4  A    between atoms: C_4  and  C_5
REMARK    5  A    between atoms: C_5  and  C_6
REMARK    6  A    between atoms: C_6  and  C_7
REMARK    7  A    between atoms: C_7  and  C_8
REMARK    8  A    between atoms: C_8  and  C_9
REMARK    9  A    between atoms: C_9  and  C_10
REMARK   10  A    between atoms: C_10  and  C_11
REMARK   11  A    between atoms: C_11  and  C_12
REMARK   12  A    between atoms: C_12  and  O_13
REMARK   13  A    between atoms: O_13  and  N_14
REMARK   14  A    between atoms: C_15  and  C_16
REMARK   15  A    between atoms: C_18  and  O_19
REMARK   16  A    between atoms: O_19  and  C_20
REMARK   17  A    between atoms: C_23  and  O_24
REMARK   18  A    between atoms: O_24  and  C_25
REMARK                            x       y       z     vdW  Elec       q    Type
REMARK                         _______ _______ _______ _____ _____    ______ ____
ROOT
ATOM      1  C   UNL     1      -0.798  10.441  18.604  0.00  0.00    +0.000 A 
ATOM      2  C   UNL     1      -1.496  10.012  17.476  0.00  0.00    +0.000 A 
ATOM      3  C   UNL     1      -2.817  10.414  17.214  0.00  0.00    +0.000 A 
ATOM      4  C   UNL     1      -3.439  11.308  18.107  0.00  0.00    +0.000 A 
ATOM      5  C   UNL     1      -2.707  11.792  19.244  0.00  0.00    +0.000 A 
ATOM      6  C   UNL     1      -1.390  11.336  19.519  0.00  0.00    +0.000 A 
ATOM      7  C   UNL     1      -3.411  12.816  20.064  0.00  0.00    +0.000 C 
ATOM      8  O   UNL     1      -2.869  13.796  20.558  0.00  0.00    +0.000 OA
ATOM      9  C   UNL     1      -4.869  12.710  20.203  0.00  0.00    +0.000 C 
ATOM     10  C   UNL     1      -5.562  12.221  19.180  0.00  0.00    +0.000 C 
ATOM     11  C   UNL     1      -4.850  11.794  17.964  0.00  0.00    +0.000 C 
ATOM     12  O   UNL     1      -5.463  11.906  16.914  0.00  0.00    +0.000 OA
ENDROOT
BRANCH   1  14
ATOM     13  N   UNL     1       1.224   9.244  17.912  0.00  0.00    +0.000 NA
ATOM     14  C   UNL     1       0.576   9.902  18.826  0.00  0.00    +0.000 C 
BRANCH  13  15
ATOM     15  O   UNL     1       2.486   8.874  18.420  0.00  0.00    +0.000 OA
BRANCH  15  16
ATOM     16  C   UNL     1       3.026   7.833  17.603  0.00  0.00    +0.000 C 
BRANCH  16  17
ATOM     17  C   UNL     1       3.315   6.584  18.441  0.00  0.00    +0.000 C 
BRANCH  17  18
ATOM     18  C   UNL     1       2.072   5.793  18.860  0.00  0.00    +0.000 C 
BRANCH  18  19
ATOM     19  C   UNL     1       1.609   4.815  17.784  0.00  0.00    +0.000 C 
BRANCH  19  20
ATOM     20  C   UNL     1       1.072   3.523  18.393  0.00  0.00    +0.000 C 
BRANCH  20  21
ATOM     21  C   UNL     1       2.060   2.974  19.418  0.00  0.00    +0.000 C 
BRANCH  21  22
ATOM     22  C   UNL     1       2.880   1.831  18.830  0.00  0.00    +0.000 C 
BRANCH  22  23
ATOM     23  C   UNL     1       3.918   2.360  17.845  0.00  0.00    +0.000 C 
BRANCH  23  24
ATOM     24  C   UNL     1       4.901   3.295  18.541  0.00  0.00    +0.000 C 
BRANCH  24  25
ATOM     25  C   UNL     1       5.494   4.293  17.551  0.00  0.00    +0.000 C 
BRANCH  25  27
ATOM     26  C   UNL     1       6.080   3.915  15.143  0.00  0.00    +0.000 C 
ATOM     27  C   UNL     1       4.950   4.062  16.145  0.00  0.00    +0.000 C 
ENDBRANCH  25  27
ENDBRANCH  24  25
ENDBRANCH  23  24
ENDBRANCH  22  23
ENDBRANCH  21  22
ENDBRANCH  20  21
ENDBRANCH  19  20
ENDBRANCH  18  19
ENDBRANCH  17  18
ENDBRANCH  16  17
ENDBRANCH  15  16
ENDBRANCH  13  15
ENDBRANCH   1  14
BRANCH   3  28
ATOM     28  O   UNL     1      -3.240   9.760  16.095  0.00  0.00    +0.000 OA
ATOM     29  C   UNL     1      -3.075  10.254  14.784  0.00  0.00    +0.000 C 
ENDBRANCH   3  28
BRANCH   6  30
ATOM     30  O   UNL     1      -0.565  11.573  20.581  0.00  0.00    +0.000 OA
ATOM     31  C   UNL     1       0.273  12.703  20.712  0.00  0.00    +0.000 C 
ENDBRANCH   6  30
TORSDOF 15
ENDMDL
