MODEL 1
REMARK VINA RESULT:      -6.6      0.000      0.000
REMARK  Name = 
REMARK  23 active torsions:
REMARK  status: ('A' for Active; 'I' for Inactive)
REMARK    1  A    between atoms: C_1  and  C_2
REMARK    2  A    between atoms: C_2  and  C_3
REMARK    3  A    between atoms: C_3  and  C_4
REMARK    4  A    between atoms: C_4  and  C_5
REMARK    5  A    between atoms: C_5  and  C_6
REMARK    6  A    between atoms: C_8  and  O_9
REMARK    7  A    between atoms: O_9  and  C_10
REMARK    8  A    between atoms: C_10  and  C_11
REMARK    9  A    between atoms: C_11  and  C_12
REMARK   10  A    between atoms: C_12  and  C_13
REMARK   11  A    between atoms: C_15  and  O_16
REMARK   12  A    between atoms: O_16  and  C_17
REMARK   13  A    between atoms: C_17  and  C_18
REMARK   14  A    between atoms: C_18  and  C_19
REMARK   15  A    between atoms: C_19  and  C_20
REMARK   16  A    between atoms: C_20  and  C_21
REMARK   17  A    between atoms: C_21  and  C_22
REMARK   18  A    between atoms: C_22  and  C_23
REMARK   19  A    between atoms: C_23  and  C_24
REMARK   20  A    between atoms: C_24  and  C_25
REMARK   21  A    between atoms: C_25  and  C_26
REMARK   22  A    between atoms: C_26  and  C_27
REMARK   23  A    between atoms: N_29  and  C_30
REMARK                            x       y       z     vdW  Elec       q    Type
REMARK                         _______ _______ _______ _____ _____    ______ ____
ROOT
ATOM      1  O   UNL     1       8.094   5.689  18.367  0.00  0.00    +0.000 OA
ENDROOT
BRANCH   1   6
ATOM      2  C   UNL     1       4.584   4.640  17.744  0.00  0.00    +0.000 A 
ATOM      3  C   UNL     1       4.759   4.072  16.478  0.00  0.00    +0.000 A 
ATOM      4  C   UNL     1       6.026   4.009  15.894  0.00  0.00    +0.000 A 
ATOM      5  C   UNL     1       7.120   4.587  16.541  0.00  0.00    +0.000 A 
ATOM      6  C   UNL     1       6.959   5.165  17.799  0.00  0.00    +0.000 A 
ATOM      7  C   UNL     1       5.694   5.196  18.392  0.00  0.00    +0.000 A 
BRANCH   4   8
ATOM      8  O   UNL     1       6.087   3.353  14.694  0.00  0.00    +0.000 OA
BRANCH   8   9
ATOM      9  C   UNL     1       5.769   4.159  13.557  0.00  0.00    +0.000 C 
BRANCH   9  10
ATOM     10  C   UNL     1       6.286   3.458  12.305  0.00  0.00    +0.000 C 
BRANCH  10  11
ATOM     11  C   UNL     1       5.217   2.535  11.725  0.00  0.00    +0.000 C 
ATOM     12  C   UNL     1       4.075   3.314  11.100  0.00  0.00    +0.000 C 
ENDBRANCH  10  11
ENDBRANCH   9  10
ENDBRANCH   8   9
ENDBRANCH   4   8
BRANCH   2  13
ATOM     13  C   UNL     1       3.239   4.647  18.426  0.00  0.00    +0.000 C 
BRANCH  13  14
ATOM     14  C   UNL     1       3.136   5.641  19.588  0.00  0.00    +0.000 C 
BRANCH  14  15
ATOM     15  C   UNL     1       2.245   6.853  19.293  0.00  0.00    +0.000 C 
BRANCH  15  17
ATOM     16  C   UNL     1       2.143   8.953  17.890  0.00  0.00    +0.000 C 
ATOM     17  C   UNL     1       2.699   7.543  18.006  0.00  0.00    +0.000 C 
ENDBRANCH  15  17
ENDBRANCH  14  15
ENDBRANCH  13  14
ENDBRANCH   2  13
ENDBRANCH   1   6
BRANCH   1  18
ATOM     18  C   UNL     1       7.956   7.061  18.729  0.00  0.00    +0.000 C 
BRANCH  18  19
ATOM     19  C   UNL     1       7.961   7.936  17.481  0.00  0.00    +0.000 C 
BRANCH  19  20
ATOM     20  C   UNL     1       8.016   9.423  17.844  0.00  0.00    +0.000 C 
BRANCH  20  21
ATOM     21  C   UNL     1       9.089   9.704  18.891  0.00  0.00    +0.000 C 
BRANCH  21  22
ATOM     22  C   UNL     1       9.281  11.192  19.136  0.00  0.00    +0.000 C 
BRANCH  22  23
ATOM     23  C   UNL     1      10.773  11.497  19.228  0.00  0.00    +0.000 C 
BRANCH  23  24
ATOM     24  C   UNL     1      11.398  11.541  17.846  0.00  0.00    +0.000 C 
BRANCH  24  25
ATOM     25  C   UNL     1      12.083  12.883  17.601  0.00  0.00    +0.000 C 
BRANCH  25  26
ATOM     26  C   UNL     1      11.062  13.882  17.081  0.00  0.00    +0.000 C 
BRANCH  26  27
ATOM     27  C   UNL     1      10.888  15.084  18.006  0.00  0.00    +0.000 C 
BRANCH  27  28
ATOM     28  C   UNL     1       9.425  15.248  18.349  0.00  0.00    +0.000 C 
ATOM     29  O   UNL     1       8.626  15.823  17.616  0.00  0.00    +0.000 OA
ATOM     30  N   UNL     1       9.059  14.692  19.560  0.00  0.00    +0.000 N 
ATOM     31  H   UNL     1       9.755  14.250  20.145  0.00  0.00    +0.000 HD
BRANCH  30  32
ATOM     32  C   UNL     1       7.702  14.754  19.986  0.00  0.00    +0.000 C 
ATOM     33  C   UNL     1       7.356  14.294  21.378  0.00  0.00    +0.000 C 
ATOM     34  C   UNL     1       7.203  15.739  21.000  0.00  0.00    +0.000 C 
ENDBRANCH  30  32
ENDBRANCH  27  28
ENDBRANCH  26  27
ENDBRANCH  25  26
ENDBRANCH  24  25
ENDBRANCH  23  24
ENDBRANCH  22  23
ENDBRANCH  21  22
ENDBRANCH  20  21
ENDBRANCH  19  20
ENDBRANCH  18  19
ENDBRANCH   1  18
TORSDOF 21
ENDMDL
MODEL 2
REMARK VINA RESULT:      -6.3      6.300     11.948
REMARK  Name = 
REMARK  23 active torsions:
REMARK  status: ('A' for Active; 'I' for Inactive)
REMARK    1  A    between atoms: C_1  and  C_2
REMARK    2  A    between atoms: C_2  and  C_3
REMARK    3  A    between atoms: C_3  and  C_4
REMARK    4  A    between atoms: C_4  and  C_5
REMARK    5  A    between atoms: C_5  and  C_6
REMARK    6  A    between atoms: C_8  and  O_9
REMARK    7  A    between atoms: O_9  and  C_10
REMARK    8  A    between atoms: C_10  and  C_11
REMARK    9  A    between atoms: C_11  and  C_12
REMARK   10  A    between atoms: C_12  and  C_13
REMARK   11  A    between atoms: C_15  and  O_16
REMARK   12  A    between atoms: O_16  and  C_17
REMARK   13  A    between atoms: C_17  and  C_18
REMARK   14  A    between atoms: C_18  and  C_19
REMARK   15  A    between atoms: C_19  and  C_20
REMARK   16  A    between atoms: C_20  and  C_21
REMARK   17  A    between atoms: C_21  and  C_22
REMARK   18  A    between atoms: C_22  and  C_23
REMARK   19  A    between atoms: C_23  and  C_24
REMARK   20  A    between atoms: C_24  and  C_25
REMARK   21  A    between atoms: C_25  and  C_26
REMARK   22  A    between atoms: C_26  and  C_27
REMARK   23  A    between atoms: N_29  and  C_30
REMARK                            x       y       z     vdW  Elec       q    Type
REMARK                         _______ _______ _______ _____ _____    ______ ____
ROOT
ATOM      1  O   UNL     1       1.192  10.045  19.183  0.00  0.00    +0.000 OA
ENDROOT
BRANCH   1   6
ATOM      2  C   UNL     1      -2.177  11.411  18.411  0.00  0.00    +0.000 A 
ATOM      3  C   UNL     1      -2.371  12.156  19.579  0.00  0.00    +0.000 A 
ATOM      4  C   UNL     1      -1.374  12.224  20.555  0.00  0.00    +0.000 A 
ATOM      5  C   UNL     1      -0.203  11.481  20.406  0.00  0.00    +0.000 A 
ATOM      6  C   UNL     1       0.001  10.726  19.252  0.00  0.00    +0.000 A 
ATOM      7  C   UNL     1      -0.987  10.689  18.263  0.00  0.00    +0.000 A 
BRANCH   4   8
ATOM      8  O   UNL     1      -1.643  13.053  21.611  0.00  0.00    +0.000 OA
BRANCH   8   9
ATOM      9  C   UNL     1      -1.578  12.425  22.893  0.00  0.00    +0.000 C 
BRANCH   9  10
ATOM     10  C   UNL     1      -3.000  12.212  23.402  0.00  0.00    +0.000 C 
BRANCH  10  11
ATOM     11  C   UNL     1      -3.726  13.547  23.544  0.00  0.00    +0.000 C 
ATOM     12  C   UNL     1      -3.149  14.388  24.668  0.00  0.00    +0.000 C 
ENDBRANCH  10  11
ENDBRANCH   9  10
ENDBRANCH   8   9
ENDBRANCH   4   8
BRANCH   2  13
ATOM     13  C   UNL     1      -3.206  11.390  17.310  0.00  0.00    +0.000 C 
BRANCH  13  14
ATOM     14  C   UNL     1      -4.426  10.515  17.617  0.00  0.00    +0.000 C 
BRANCH  14  15
ATOM     15  C   UNL     1      -5.725  11.305  17.820  0.00  0.00    +0.000 C 
BRANCH  15  17
ATOM     16  C   UNL     1      -6.995  10.695  19.919  0.00  0.00    +0.000 C 
ATOM     17  C   UNL     1      -5.939  11.599  19.306  0.00  0.00    +0.000 C 
ENDBRANCH  15  17
ENDBRANCH  14  15
ENDBRANCH  13  14
ENDBRANCH   2  13
ENDBRANCH   1   6
BRANCH   1  18
ATOM     18  C   UNL     1       1.382   9.376  17.939  0.00  0.00    +0.000 C 
BRANCH  18  19
ATOM     19  C   UNL     1       2.626   8.497  18.000  0.00  0.00    +0.000 C 
BRANCH  19  20
ATOM     20  C   UNL     1       2.297   7.041  17.661  0.00  0.00    +0.000 C 
BRANCH  20  21
ATOM     21  C   UNL     1       2.761   6.091  18.760  0.00  0.00    +0.000 C 
BRANCH  21  22
ATOM     22  C   UNL     1       2.241   6.495  20.130  0.00  0.00    +0.000 C 
BRANCH  22  23
ATOM     23  C   UNL     1       1.853   5.241  20.909  0.00  0.00    +0.000 C 
BRANCH  23  24
ATOM     24  C   UNL     1       1.047   4.296  20.037  0.00  0.00    +0.000 C 
BRANCH  24  25
ATOM     25  C   UNL     1       1.246   2.848  20.477  0.00  0.00    +0.000 C 
BRANCH  25  26
ATOM     26  C   UNL     1       1.692   2.016  19.285  0.00  0.00    +0.000 C 
BRANCH  26  27
ATOM     27  C   UNL     1       3.179   2.178  18.975  0.00  0.00    +0.000 C 
BRANCH  27  28
ATOM     28  C   UNL     1       3.343   2.867  17.640  0.00  0.00    +0.000 C 
ATOM     29  O   UNL     1       2.409   3.062  16.868  0.00  0.00    +0.000 OA
ATOM     30  N   UNL     1       4.637   3.264  17.361  0.00  0.00    +0.000 N 
ATOM     31  H   UNL     1       5.381   3.061  18.014  0.00  0.00    +0.000 HD
BRANCH  30  32
ATOM     32  C   UNL     1       4.920   3.952  16.147  0.00  0.00    +0.000 C 
ATOM     33  C   UNL     1       5.340   5.396  16.210  0.00  0.00    +0.000 C 
ATOM     34  C   UNL     1       6.305   4.350  15.733  0.00  0.00    +0.000 C 
ENDBRANCH  30  32
ENDBRANCH  27  28
ENDBRANCH  26  27
ENDBRANCH  25  26
ENDBRANCH  24  25
ENDBRANCH  23  24
ENDBRANCH  22  23
ENDBRANCH  21  22
ENDBRANCH  20  21
ENDBRANCH  19  20
ENDBRANCH  18  19
ENDBRANCH   1  18
TORSDOF 21
ENDMDL
MODEL 3
REMARK VINA RESULT:      -6.3      2.055      2.713
REMARK  Name = 
REMARK  23 active torsions:
REMARK  status: ('A' for Active; 'I' for Inactive)
REMARK    1  A    between atoms: C_1  and  C_2
REMARK    2  A    between atoms: C_2  and  C_3
REMARK    3  A    between atoms: C_3  and  C_4
REMARK    4  A    between atoms: C_4  and  C_5
REMARK    5  A    between atoms: C_5  and  C_6
REMARK    6  A    between atoms: C_8  and  O_9
REMARK    7  A    between atoms: O_9  and  C_10
REMARK    8  A    between atoms: C_10  and  C_11
REMARK    9  A    between atoms: C_11  and  C_12
REMARK   10  A    between atoms: C_12  and  C_13
REMARK   11  A    between atoms: C_15  and  O_16
REMARK   12  A    between atoms: O_16  and  C_17
REMARK   13  A    between atoms: C_17  and  C_18
REMARK   14  A    between atoms: C_18  and  C_19
REMARK   15  A    between atoms: C_19  and  C_20
REMARK   16  A    between atoms: C_20  and  C_21
REMARK   17  A    between atoms: C_21  and  C_22
REMARK   18  A    between atoms: C_22  and  C_23
REMARK   19  A    between atoms: C_23  and  C_24
REMARK   20  A    between atoms: C_24  and  C_25
REMARK   21  A    between atoms: C_25  and  C_26
REMARK   22  A    between atoms: C_26  and  C_27
REMARK   23  A    between atoms: N_29  and  C_30
REMARK                            x       y       z     vdW  Elec       q    Type
REMARK                         _______ _______ _______ _____ _____    ______ ____
ROOT
ATOM      1  O   UNL     1       7.387   6.934  18.429  0.00  0.00    +0.000 OA
ENDROOT
BRANCH   1   6
ATOM      2  C   UNL     1       4.375   4.811  17.952  0.00  0.00    +0.000 A 
ATOM      3  C   UNL     1       4.781   4.132  16.798  0.00  0.00    +0.000 A 
ATOM      4  C   UNL     1       6.043   4.357  16.245  0.00  0.00    +0.000 A 
ATOM      5  C   UNL     1       6.882   5.325  16.799  0.00  0.00    +0.000 A 
ATOM      6  C   UNL     1       6.488   6.016  17.943  0.00  0.00    +0.000 A 
ATOM      7  C   UNL     1       5.236   5.762  18.511  0.00  0.00    +0.000 A 
BRANCH   4   8
ATOM      8  O   UNL     1       6.362   3.571  15.170  0.00  0.00    +0.000 OA
BRANCH   8   9
ATOM      9  C   UNL     1       5.734   3.955  13.945  0.00  0.00    +0.000 C 
BRANCH   9  10
ATOM     10  C   UNL     1       6.797   4.019  12.853  0.00  0.00    +0.000 C 
BRANCH  10  11
ATOM     11  C   UNL     1       6.526   2.972  11.776  0.00  0.00    +0.000 C 
ATOM     12  C   UNL     1       5.043   2.685  11.627  0.00  0.00    +0.000 C 
ENDBRANCH  10  11
ENDBRANCH   9  10
ENDBRANCH   8   9
ENDBRANCH   4   8
BRANCH   2  13
ATOM     13  C   UNL     1       3.049   4.524  18.610  0.00  0.00    +0.000 C 
BRANCH  13  14
ATOM     14  C   UNL     1       2.896   5.152  20.000  0.00  0.00    +0.000 C 
BRANCH  14  15
ATOM     15  C   UNL     1       1.505   4.967  20.617  0.00  0.00    +0.000 C 
BRANCH  15  17
ATOM     16  C   UNL     1       1.738   2.655  21.612  0.00  0.00    +0.000 C 
ATOM     17  C   UNL     1       1.079   3.500  20.534  0.00  0.00    +0.000 C 
ENDBRANCH  15  17
ENDBRANCH  14  15
ENDBRANCH  13  14
ENDBRANCH   2  13
ENDBRANCH   1   6
BRANCH   1  18
ATOM     18  C   UNL     1       7.908   7.795  17.419  0.00  0.00    +0.000 C 
BRANCH  18  19
ATOM     19  C   UNL     1       7.806   9.249  17.865  0.00  0.00    +0.000 C 
BRANCH  19  20
ATOM     20  C   UNL     1       8.942   9.619  18.823  0.00  0.00    +0.000 C 
BRANCH  20  21
ATOM     21  C   UNL     1       9.798  10.752  18.266  0.00  0.00    +0.000 C 
BRANCH  21  22
ATOM     22  C   UNL     1      10.600  11.455  19.349  0.00  0.00    +0.000 C 
BRANCH  22  23
ATOM     23  C   UNL     1      10.993  12.845  18.858  0.00  0.00    +0.000 C 
BRANCH  23  24
ATOM     24  C   UNL     1      10.724  13.888  19.928  0.00  0.00    +0.000 C 
BRANCH  24  25
ATOM     25  C   UNL     1       9.515  14.744  19.561  0.00  0.00    +0.000 C 
BRANCH  25  26
ATOM     26  C   UNL     1       9.131  14.481  18.113  0.00  0.00    +0.000 C 
BRANCH  26  27
ATOM     27  C   UNL     1       7.750  13.845  17.974  0.00  0.00    +0.000 C 
BRANCH  27  28
ATOM     28  C   UNL     1       6.692  14.924  18.015  0.00  0.00    +0.000 C 
ATOM     29  O   UNL     1       6.942  16.098  18.275  0.00  0.00    +0.000 OA
ATOM     30  N   UNL     1       5.415  14.480  17.730  0.00  0.00    +0.000 N 
ATOM     31  H   UNL     1       5.249  13.499  17.546  0.00  0.00    +0.000 HD
BRANCH  30  32
ATOM     32  C   UNL     1       4.332  15.403  17.707  0.00  0.00    +0.000 C 
ATOM     33  C   UNL     1       2.926  14.878  17.832  0.00  0.00    +0.000 C 
ATOM     34  C   UNL     1       3.511  15.737  18.916  0.00  0.00    +0.000 C 
ENDBRANCH  30  32
ENDBRANCH  27  28
ENDBRANCH  26  27
ENDBRANCH  25  26
ENDBRANCH  24  25
ENDBRANCH  23  24
ENDBRANCH  22  23
ENDBRANCH  21  22
ENDBRANCH  20  21
ENDBRANCH  19  20
ENDBRANCH  18  19
ENDBRANCH   1  18
TORSDOF 21
ENDMDL
MODEL 4
REMARK VINA RESULT:      -6.3      5.718      7.940
REMARK  Name = 
REMARK  23 active torsions:
REMARK  status: ('A' for Active; 'I' for Inactive)
REMARK    1  A    between atoms: C_1  and  C_2
REMARK    2  A    between atoms: C_2  and  C_3
REMARK    3  A    between atoms: C_3  and  C_4
REMARK    4  A    between atoms: C_4  and  C_5
REMARK    5  A    between atoms: C_5  and  C_6
REMARK    6  A    between atoms: C_8  and  O_9
REMARK    7  A    between atoms: O_9  and  C_10
REMARK    8  A    between atoms: C_10  and  C_11
REMARK    9  A    between atoms: C_11  and  C_12
REMARK   10  A    between atoms: C_12  and  C_13
REMARK   11  A    between atoms: C_15  and  O_16
REMARK   12  A    between atoms: O_16  and  C_17
REMARK   13  A    between atoms: C_17  and  C_18
REMARK   14  A    between atoms: C_18  and  C_19
REMARK   15  A    between atoms: C_19  and  C_20
REMARK   16  A    between atoms: C_20  and  C_21
REMARK   17  A    between atoms: C_21  and  C_22
REMARK   18  A    between atoms: C_22  and  C_23
REMARK   19  A    between atoms: C_23  and  C_24
REMARK   20  A    between atoms: C_24  and  C_25
REMARK   21  A    between atoms: C_25  and  C_26
REMARK   22  A    between atoms: C_26  and  C_27
REMARK   23  A    between atoms: N_29  and  C_30
REMARK                            x       y       z     vdW  Elec       q    Type
REMARK                         _______ _______ _______ _____ _____    ______ ____
ROOT
ATOM      1  O   UNL     1       2.145   9.046  17.404  0.00  0.00    +0.000 OA
ENDROOT
BRANCH   1   6
ATOM      2  C   UNL     1       2.658   6.095  19.603  0.00  0.00    +0.000 A 
ATOM      3  C   UNL     1       3.809   5.582  18.996  0.00  0.00    +0.000 A 
ATOM      4  C   UNL     1       4.404   6.245  17.921  0.00  0.00    +0.000 A 
ATOM      5  C   UNL     1       3.804   7.389  17.392  0.00  0.00    +0.000 A 
ATOM      6  C   UNL     1       2.652   7.906  17.980  0.00  0.00    +0.000 A 
ATOM      7  C   UNL     1       2.080   7.256  19.077  0.00  0.00    +0.000 A 
BRANCH   4   8
ATOM      8  O   UNL     1       5.574   5.697  17.468  0.00  0.00    +0.000 OA
BRANCH   8   9
ATOM      9  C   UNL     1       5.734   5.725  16.048  0.00  0.00    +0.000 C 
BRANCH   9  10
ATOM     10  C   UNL     1       5.209   4.413  15.473  0.00  0.00    +0.000 C 
BRANCH  10  11
ATOM     11  C   UNL     1       6.182   3.851  14.439  0.00  0.00    +0.000 C 
ATOM     12  C   UNL     1       7.176   4.898  13.970  0.00  0.00    +0.000 C 
ENDBRANCH  10  11
ENDBRANCH   9  10
ENDBRANCH   8   9
ENDBRANCH   4   8
BRANCH   2  13
ATOM     13  C   UNL     1       2.047   5.438  20.815  0.00  0.00    +0.000 C 
BRANCH  13  14
ATOM     14  C   UNL     1       1.994   3.908  20.732  0.00  0.00    +0.000 C 
BRANCH  14  15
ATOM     15  C   UNL     1       0.875   3.371  19.832  0.00  0.00    +0.000 C 
BRANCH  15  17
ATOM     16  C   UNL     1       2.244   2.580  17.859  0.00  0.00    +0.000 C 
ATOM     17  C   UNL     1       1.372   2.165  19.033  0.00  0.00    +0.000 C 
ENDBRANCH  15  17
ENDBRANCH  14  15
ENDBRANCH  13  14
ENDBRANCH   2  13
ENDBRANCH   1   6
BRANCH   1  18
ATOM     18  C   UNL     1       1.323   9.802  18.291  0.00  0.00    +0.000 C 
BRANCH  18  19
ATOM     19  C   UNL     1      -0.147   9.603  17.942  0.00  0.00    +0.000 C 
BRANCH  19  20
ATOM     20  C   UNL     1      -0.952  10.885  18.168  0.00  0.00    +0.000 C 
BRANCH  20  21
ATOM     21  C   UNL     1      -0.086  11.992  18.763  0.00  0.00    +0.000 C 
BRANCH  21  22
ATOM     22  C   UNL     1      -0.536  13.375  18.323  0.00  0.00    +0.000 C 
BRANCH  22  23
ATOM     23  C   UNL     1       0.501  14.404  18.764  0.00  0.00    +0.000 C 
BRANCH  23  24
ATOM     24  C   UNL     1      -0.175  15.661  19.278  0.00  0.00    +0.000 C 
BRANCH  24  25
ATOM     25  C   UNL     1      -1.386  15.315  20.140  0.00  0.00    +0.000 C 
BRANCH  25  26
ATOM     26  C   UNL     1      -0.986  15.346  21.607  0.00  0.00    +0.000 C 
BRANCH  26  27
ATOM     27  C   UNL     1      -1.416  14.091  22.363  0.00  0.00    +0.000 C 
BRANCH  27  28
ATOM     28  C   UNL     1      -0.370  13.014  22.191  0.00  0.00    +0.000 C 
ATOM     29  O   UNL     1       0.810  13.258  21.957  0.00  0.00    +0.000 OA
ATOM     30  N   UNL     1      -0.852  11.726  22.323  0.00  0.00    +0.000 N 
ATOM     31  H   UNL     1      -1.836  11.568  22.490  0.00  0.00    +0.000 HD
BRANCH  30  32
ATOM     32  C   UNL     1       0.039  10.621  22.211  0.00  0.00    +0.000 C 
ATOM     33  C   UNL     1      -0.141   9.446  23.135  0.00  0.00    +0.000 C 
ATOM     34  C   UNL     1      -0.370   9.288  21.660  0.00  0.00    +0.000 C 
ENDBRANCH  30  32
ENDBRANCH  27  28
ENDBRANCH  26  27
ENDBRANCH  25  26
ENDBRANCH  24  25
ENDBRANCH  23  24
ENDBRANCH  22  23
ENDBRANCH  21  22
ENDBRANCH  20  21
ENDBRANCH  19  20
ENDBRANCH  18  19
ENDBRANCH   1  18
TORSDOF 21
ENDMDL
MODEL 5
REMARK VINA RESULT:      -6.2      2.365      3.184
REMARK  Name = 
REMARK  23 active torsions:
REMARK  status: ('A' for Active; 'I' for Inactive)
REMARK    1  A    between atoms: C_1  and  C_2
REMARK    2  A    between atoms: C_2  and  C_3
REMARK    3  A    between atoms: C_3  and  C_4
REMARK    4  A    between atoms: C_4  and  C_5
REMARK    5  A    between atoms: C_5  and  C_6
REMARK    6  A    between atoms: C_8  and  O_9
REMARK    7  A    between atoms: O_9  and  C_10
REMARK    8  A    between atoms: C_10  and  C_11
REMARK    9  A    between atoms: C_11  and  C_12
REMARK   10  A    between atoms: C_12  and  C_13
REMARK   11  A    between atoms: C_15  and  O_16
REMARK   12  A    between atoms: O_16  and  C_17
REMARK   13  A    between atoms: C_17  and  C_18
REMARK   14  A    between atoms: C_18  and  C_19
REMARK   15  A    between atoms: C_19  and  C_20
REMARK   16  A    between atoms: C_20  and  C_21
REMARK   17  A    between atoms: C_21  and  C_22
REMARK   18  A    between atoms: C_22  and  C_23
REMARK   19  A    between atoms: C_23  and  C_24
REMARK   20  A    between atoms: C_24  and  C_25
REMARK   21  A    between atoms: C_25  and  C_26
REMARK   22  A    between atoms: C_26  and  C_27
REMARK   23  A    between atoms: N_29  and  C_30
REMARK                            x       y       z     vdW  Elec       q    Type
REMARK                         _______ _______ _______ _____ _____    ______ ____
ROOT
ATOM      1  O   UNL     1       7.034   7.750  16.831  0.00  0.00    +0.000 OA
ENDROOT
BRANCH   1   6
ATOM      2  C   UNL     1       4.875   4.901  17.846  0.00  0.00    +0.000 A 
ATOM      3  C   UNL     1       5.158   4.037  16.782  0.00  0.00    +0.000 A 
ATOM      4  C   UNL     1       6.080   4.398  15.797  0.00  0.00    +0.000 A 
ATOM      5  C   UNL     1       6.670   5.663  15.827  0.00  0.00    +0.000 A 
ATOM      6  C   UNL     1       6.391   6.537  16.875  0.00  0.00    +0.000 A 
ATOM      7  C   UNL     1       5.492   6.157  17.876  0.00  0.00    +0.000 A 
BRANCH   4   8
ATOM      8  O   UNL     1       6.340   3.438  14.856  0.00  0.00    +0.000 OA
BRANCH   8   9
ATOM      9  C   UNL     1       6.318   3.905  13.506  0.00  0.00    +0.000 C 
BRANCH   9  10
ATOM     10  C   UNL     1       4.914   3.701  12.944  0.00  0.00    +0.000 C 
BRANCH  10  11
ATOM     11  C   UNL     1       4.979   3.119  11.534  0.00  0.00    +0.000 C 
ATOM     12  C   UNL     1       5.815   1.854  11.482  0.00  0.00    +0.000 C 
ENDBRANCH  10  11
ENDBRANCH   9  10
ENDBRANCH   8   9
ENDBRANCH   4   8
BRANCH   2  13
ATOM     13  C   UNL     1       3.944   4.498  18.961  0.00  0.00    +0.000 C 
BRANCH  13  14
ATOM     14  C   UNL     1       2.887   3.468  18.547  0.00  0.00    +0.000 C 
BRANCH  14  15
ATOM     15  C   UNL     1       1.445   3.912  18.818  0.00  0.00    +0.000 C 
BRANCH  15  17
ATOM     16  C   UNL     1       1.390   2.976  21.166  0.00  0.00    +0.000 C 
ATOM     17  C   UNL     1       0.763   2.939  19.782  0.00  0.00    +0.000 C 
ENDBRANCH  15  17
ENDBRANCH  14  15
ENDBRANCH  13  14
ENDBRANCH   2  13
ENDBRANCH   1   6
BRANCH   1  18
ATOM     18  C   UNL     1       7.886   7.972  17.952  0.00  0.00    +0.000 C 
BRANCH  18  19
ATOM     19  C   UNL     1       8.336   9.428  17.989  0.00  0.00    +0.000 C 
BRANCH  19  20
ATOM     20  C   UNL     1       9.169   9.722  19.240  0.00  0.00    +0.000 C 
BRANCH  20  21
ATOM     21  C   UNL     1       9.672  11.163  19.252  0.00  0.00    +0.000 C 
BRANCH  21  22
ATOM     22  C   UNL     1      10.258  11.581  17.914  0.00  0.00    +0.000 C 
BRANCH  22  23
ATOM     23  C   UNL     1       9.747  12.972  17.555  0.00  0.00    +0.000 C 
BRANCH  23  24
ATOM     24  C   UNL     1       9.071  13.621  18.750  0.00  0.00    +0.000 C 
BRANCH  24  25
ATOM     25  C   UNL     1       7.720  14.211  18.356  0.00  0.00    +0.000 C 
BRANCH  25  26
ATOM     26  C   UNL     1       7.905  15.663  17.945  0.00  0.00    +0.000 C 
BRANCH  26  27
ATOM     27  C   UNL     1       7.497  16.644  19.042  0.00  0.00    +0.000 C 
BRANCH  27  28
ATOM     28  C   UNL     1       6.045  16.426  19.400  0.00  0.00    +0.000 C 
ATOM     29  O   UNL     1       5.681  16.002  20.492  0.00  0.00    +0.000 OA
ATOM     30  N   UNL     1       5.157  16.750  18.392  0.00  0.00    +0.000 N 
ATOM     31  H   UNL     1       5.500  17.072  17.497  0.00  0.00    +0.000 HD
BRANCH  30  32
ATOM     32  C   UNL     1       3.756  16.617  18.613  0.00  0.00    +0.000 C 
ATOM     33  C   UNL     1       2.822  16.726  17.438  0.00  0.00    +0.000 C 
ATOM     34  C   UNL     1       2.964  15.423  18.170  0.00  0.00    +0.000 C 
ENDBRANCH  30  32
ENDBRANCH  27  28
ENDBRANCH  26  27
ENDBRANCH  25  26
ENDBRANCH  24  25
ENDBRANCH  23  24
ENDBRANCH  22  23
ENDBRANCH  21  22
ENDBRANCH  20  21
ENDBRANCH  19  20
ENDBRANCH  18  19
ENDBRANCH   1  18
TORSDOF 21
ENDMDL
MODEL 6
REMARK VINA RESULT:      -6.2      3.486      8.674
REMARK  Name = 
REMARK  23 active torsions:
REMARK  status: ('A' for Active; 'I' for Inactive)
REMARK    1  A    between atoms: C_1  and  C_2
REMARK    2  A    between atoms: C_2  and  C_3
REMARK    3  A    between atoms: C_3  and  C_4
REMARK    4  A    between atoms: C_4  and  C_5
REMARK    5  A    between atoms: C_5  and  C_6
REMARK    6  A    between atoms: C_8  and  O_9
REMARK    7  A    between atoms: O_9  and  C_10
REMARK    8  A    between atoms: C_10  and  C_11
REMARK    9  A    between atoms: C_11  and  C_12
REMARK   10  A    between atoms: C_12  and  C_13
REMARK   11  A    between atoms: C_15  and  O_16
REMARK   12  A    between atoms: O_16  and  C_17
REMARK   13  A    between atoms: C_17  and  C_18
REMARK   14  A    between atoms: C_18  and  C_19
REMARK   15  A    between atoms: C_19  and  C_20
REMARK   16  A    between atoms: C_20  and  C_21
REMARK   17  A    between atoms: C_21  and  C_22
REMARK   18  A    between atoms: C_22  and  C_23
REMARK   19  A    between atoms: C_23  and  C_24
REMARK   20  A    between atoms: C_24  and  C_25
REMARK   21  A    between atoms: C_25  and  C_26
REMARK   22  A    between atoms: C_26  and  C_27
REMARK   23  A    between atoms: N_29  and  C_30
REMARK                            x       y       z     vdW  Elec       q    Type
REMARK                         _______ _______ _______ _____ _____    ______ ____
ROOT
ATOM      1  O   UNL     1       4.383   3.151  17.673  0.00  0.00    +0.000 OA
ENDROOT
BRANCH   1   6
ATOM      2  C   UNL     1       6.542   4.532  14.983  0.00  0.00    +0.000 A 
ATOM      3  C   UNL     1       7.281   5.436  15.754  0.00  0.00    +0.000 A 
ATOM      4  C   UNL     1       7.080   5.527  17.133  0.00  0.00    +0.000 A 
ATOM      5  C   UNL     1       6.080   4.768  17.741  0.00  0.00    +0.000 A 
ATOM      6  C   UNL     1       5.329   3.870  16.985  0.00  0.00    +0.000 A 
ATOM      7  C   UNL     1       5.558   3.760  15.610  0.00  0.00    +0.000 A 
BRANCH   4   8
ATOM      8  O   UNL     1       7.922   6.382  17.793  0.00  0.00    +0.000 OA
BRANCH   8   9
ATOM      9  C   UNL     1       7.699   7.766  17.519  0.00  0.00    +0.000 C 
BRANCH   9  10
ATOM     10  C   UNL     1       8.489   8.595  18.528  0.00  0.00    +0.000 C 
BRANCH  10  11
ATOM     11  C   UNL     1       8.578  10.050  18.077  0.00  0.00    +0.000 C 
ATOM     12  C   UNL     1       9.622  10.823  18.862  0.00  0.00    +0.000 C 
ENDBRANCH  10  11
ENDBRANCH   9  10
ENDBRANCH   8   9
ENDBRANCH   4   8
BRANCH   2  13
ATOM     13  C   UNL     1       6.799   4.361  13.507  0.00  0.00    +0.000 C 
BRANCH  13  14
ATOM     14  C   UNL     1       5.897   3.319  12.836  0.00  0.00    +0.000 C 
BRANCH  14  15
ATOM     15  C   UNL     1       4.618   3.904  12.224  0.00  0.00    +0.000 C 
BRANCH  15  17
ATOM     16  C   UNL     1       3.244   3.745  10.108  0.00  0.00    +0.000 C 
ATOM     17  C   UNL     1       4.096   2.989  11.115  0.00  0.00    +0.000 C 
ENDBRANCH  15  17
ENDBRANCH  14  15
ENDBRANCH  13  14
ENDBRANCH   2  13
ENDBRANCH   1   6
BRANCH   1  18
ATOM     18  C   UNL     1       4.552   3.213  19.087  0.00  0.00    +0.000 C 
BRANCH  18  19
ATOM     19  C   UNL     1       3.634   2.206  19.771  0.00  0.00    +0.000 C 
BRANCH  19  20
ATOM     20  C   UNL     1       2.991   2.801  21.026  0.00  0.00    +0.000 C 
BRANCH  20  21
ATOM     21  C   UNL     1       1.500   3.057  20.823  0.00  0.00    +0.000 C 
BRANCH  21  22
ATOM     22  C   UNL     1       1.184   3.551  19.421  0.00  0.00    +0.000 C 
BRANCH  22  23
ATOM     23  C   UNL     1       1.414   5.057  19.356  0.00  0.00    +0.000 C 
BRANCH  23  24
ATOM     24  C   UNL     1       1.168   5.697  20.710  0.00  0.00    +0.000 C 
BRANCH  24  25
ATOM     25  C   UNL     1       1.740   7.111  20.756  0.00  0.00    +0.000 C 
BRANCH  25  26
ATOM     26  C   UNL     1       0.784   8.017  21.517  0.00  0.00    +0.000 C 
BRANCH  26  27
ATOM     27  C   UNL     1       1.373   9.398  21.793  0.00  0.00    +0.000 C 
BRANCH  27  28
ATOM     28  C   UNL     1       0.367  10.460  21.414  0.00  0.00    +0.000 C 
ATOM     29  O   UNL     1       0.002  11.343  22.185  0.00  0.00    +0.000 OA
ATOM     30  N   UNL     1      -0.107  10.358  20.120  0.00  0.00    +0.000 N 
ATOM     31  H   UNL     1       0.201   9.601  19.525  0.00  0.00    +0.000 HD
BRANCH  30  32
ATOM     32  C   UNL     1      -1.039  11.316  19.629  0.00  0.00    +0.000 C 
ATOM     33  C   UNL     1      -0.631  12.207  18.485  0.00  0.00    +0.000 C 
ATOM     34  C   UNL     1      -1.722  11.192  18.300  0.00  0.00    +0.000 C 
ENDBRANCH  30  32
ENDBRANCH  27  28
ENDBRANCH  26  27
ENDBRANCH  25  26
ENDBRANCH  24  25
ENDBRANCH  23  24
ENDBRANCH  22  23
ENDBRANCH  21  22
ENDBRANCH  20  21
ENDBRANCH  19  20
ENDBRANCH  18  19
ENDBRANCH   1  18
TORSDOF 21
ENDMDL
MODEL 7
REMARK VINA RESULT:      -6.2      6.147     10.101
REMARK  Name = 
REMARK  23 active torsions:
REMARK  status: ('A' for Active; 'I' for Inactive)
REMARK    1  A    between atoms: C_1  and  C_2
REMARK    2  A    between atoms: C_2  and  C_3
REMARK    3  A    between atoms: C_3  and  C_4
REMARK    4  A    between atoms: C_4  and  C_5
REMARK    5  A    between atoms: C_5  and  C_6
REMARK    6  A    between atoms: C_8  and  O_9
REMARK    7  A    between atoms: O_9  and  C_10
REMARK    8  A    between atoms: C_10  and  C_11
REMARK    9  A    between atoms: C_11  and  C_12
REMARK   10  A    between atoms: C_12  and  C_13
REMARK   11  A    between atoms: C_15  and  O_16
REMARK   12  A    between atoms: O_16  and  C_17
REMARK   13  A    between atoms: C_17  and  C_18
REMARK   14  A    between atoms: C_18  and  C_19
REMARK   15  A    between atoms: C_19  and  C_20
REMARK   16  A    between atoms: C_20  and  C_21
REMARK   17  A    between atoms: C_21  and  C_22
REMARK   18  A    between atoms: C_22  and  C_23
REMARK   19  A    between atoms: C_23  and  C_24
REMARK   20  A    between atoms: C_24  and  C_25
REMARK   21  A    between atoms: C_25  and  C_26
REMARK   22  A    between atoms: C_26  and  C_27
REMARK   23  A    between atoms: N_29  and  C_30
REMARK                            x       y       z     vdW  Elec       q    Type
REMARK                         _______ _______ _______ _____ _____    ______ ____
ROOT
ATOM      1  O   UNL     1       1.593   8.354  19.512  0.00  0.00    +0.000 OA
ENDROOT
BRANCH   1   6
ATOM      2  C   UNL     1       3.861   5.638  18.380  0.00  0.00    +0.000 A 
ATOM      3  C   UNL     1       3.636   4.732  19.422  0.00  0.00    +0.000 A 
ATOM      4  C   UNL     1       2.715   5.021  20.431  0.00  0.00    +0.000 A 
ATOM      5  C   UNL     1       2.067   6.258  20.448  0.00  0.00    +0.000 A 
ATOM      6  C   UNL     1       2.289   7.174  19.422  0.00  0.00    +0.000 A 
ATOM      7  C   UNL     1       3.188   6.865  18.397  0.00  0.00    +0.000 A 
BRANCH   4   8
ATOM      8  O   UNL     1       2.514   4.023  21.346  0.00  0.00    +0.000 OA
BRANCH   8   9
ATOM      9  C   UNL     1       1.995   2.809  20.799  0.00  0.00    +0.000 C 
BRANCH   9  10
ATOM     10  C   UNL     1       0.777   3.144  19.943  0.00  0.00    +0.000 C 
BRANCH  10  11
ATOM     11  C   UNL     1       0.770   2.307  18.667  0.00  0.00    +0.000 C 
ATOM     12  C   UNL     1       2.160   2.173  18.071  0.00  0.00    +0.000 C 
ENDBRANCH  10  11
ENDBRANCH   9  10
ENDBRANCH   8   9
ENDBRANCH   4   8
BRANCH   2  13
ATOM     13  C   UNL     1       4.792   5.311  17.239  0.00  0.00    +0.000 C 
BRANCH  13  14
ATOM     14  C   UNL     1       5.734   6.458  16.858  0.00  0.00    +0.000 C 
BRANCH  14  15
ATOM     15  C   UNL     1       7.214   6.058  16.812  0.00  0.00    +0.000 C 
BRANCH  15  17
ATOM     16  C   UNL     1       7.780   5.699  19.250  0.00  0.00    +0.000 C 
ATOM     17  C   UNL     1       7.520   5.035  17.907  0.00  0.00    +0.000 C 
ENDBRANCH  15  17
ENDBRANCH  14  15
ENDBRANCH  13  14
ENDBRANCH   2  13
ENDBRANCH   1   6
BRANCH   1  18
ATOM     18  C   UNL     1       1.728   9.173  18.352  0.00  0.00    +0.000 C 
BRANCH  18  19
ATOM     19  C   UNL     1       0.882  10.433  18.498  0.00  0.00    +0.000 C 
BRANCH  19  20
ATOM     20  C   UNL     1      -0.165  10.276  19.603  0.00  0.00    +0.000 C 
BRANCH  20  21
ATOM     21  C   UNL     1      -1.468  10.986  19.246  0.00  0.00    +0.000 C 
BRANCH  21  22
ATOM     22  C   UNL     1      -2.222  10.282  18.130  0.00  0.00    +0.000 C 
BRANCH  22  23
ATOM     23  C   UNL     1      -2.884  11.326  17.236  0.00  0.00    +0.000 C 
BRANCH  23  24
ATOM     24  C   UNL     1      -4.311  10.926  16.910  0.00  0.00    +0.000 C 
BRANCH  24  25
ATOM     25  C   UNL     1      -5.172  10.904  18.170  0.00  0.00    +0.000 C 
BRANCH  25  26
ATOM     26  C   UNL     1      -5.477  12.331  18.597  0.00  0.00    +0.000 C 
BRANCH  26  27
ATOM     27  C   UNL     1      -6.259  12.401  19.906  0.00  0.00    +0.000 C 
BRANCH  27  28
ATOM     28  C   UNL     1      -5.429  13.108  20.953  0.00  0.00    +0.000 C 
ATOM     29  O   UNL     1      -5.558  14.300  21.216  0.00  0.00    +0.000 OA
ATOM     30  N   UNL     1      -4.512  12.298  21.594  0.00  0.00    +0.000 N 
ATOM     31  H   UNL     1      -4.421  11.327  21.329  0.00  0.00    +0.000 HD
BRANCH  30  32
ATOM     32  C   UNL     1      -3.687  12.837  22.622  0.00  0.00    +0.000 C 
ATOM     33  C   UNL     1      -2.537  12.014  23.138  0.00  0.00    +0.000 C 
ATOM     34  C   UNL     1      -2.277  13.291  22.391  0.00  0.00    +0.000 C 
ENDBRANCH  30  32
ENDBRANCH  27  28
ENDBRANCH  26  27
ENDBRANCH  25  26
ENDBRANCH  24  25
ENDBRANCH  23  24
ENDBRANCH  22  23
ENDBRANCH  21  22
ENDBRANCH  20  21
ENDBRANCH  19  20
ENDBRANCH  18  19
ENDBRANCH   1  18
TORSDOF 21
ENDMDL
MODEL 8
REMARK VINA RESULT:      -6.1      6.310     12.188
REMARK  Name = 
REMARK  23 active torsions:
REMARK  status: ('A' for Active; 'I' for Inactive)
REMARK    1  A    between atoms: C_1  and  C_2
REMARK    2  A    between atoms: C_2  and  C_3
REMARK    3  A    between atoms: C_3  and  C_4
REMARK    4  A    between atoms: C_4  and  C_5
REMARK    5  A    between atoms: C_5  and  C_6
REMARK    6  A    between atoms: C_8  and  O_9
REMARK    7  A    between atoms: O_9  and  C_10
REMARK    8  A    between atoms: C_10  and  C_11
REMARK    9  A    between atoms: C_11  and  C_12
REMARK   10  A    between atoms: C_12  and  C_13
REMARK   11  A    between atoms: C_15  and  O_16
REMARK   12  A    between atoms: O_16  and  C_17
REMARK   13  A    between atoms: C_17  and  C_18
REMARK   14  A    between atoms: C_18  and  C_19
REMARK   15  A    between atoms: C_19  and  C_20
REMARK   16  A    between atoms: C_20  and  C_21
REMARK   17  A    between atoms: C_21  and  C_22
REMARK   18  A    between atoms: C_22  and  C_23
REMARK   19  A    between atoms: C_23  and  C_24
REMARK   20  A    between atoms: C_24  and  C_25
REMARK   21  A    between atoms: C_25  and  C_26
REMARK   22  A    between atoms: C_26  and  C_27
REMARK   23  A    between atoms: N_29  and  C_30
REMARK                            x       y       z     vdW  Elec       q    Type
REMARK                         _______ _______ _______ _____ _____    ______ ____
ROOT
ATOM      1  O   UNL     1       1.010  11.032  19.989  0.00  0.00    +0.000 OA
ENDROOT
BRANCH   1   6
ATOM      2  C   UNL     1      -2.525  11.919  19.270  0.00  0.00    +0.000 A 
ATOM      3  C   UNL     1      -2.843  12.514  20.496  0.00  0.00    +0.000 A 
ATOM      4  C   UNL     1      -1.877  12.646  21.496  0.00  0.00    +0.000 A 
ATOM      5  C   UNL     1      -0.602  12.112  21.305  0.00  0.00    +0.000 A 
ATOM      6  C   UNL     1      -0.273  11.509  20.093  0.00  0.00    +0.000 A 
ATOM      7  C   UNL     1      -1.235  11.409  19.084  0.00  0.00    +0.000 A 
BRANCH   4   8
ATOM      8  O   UNL     1      -2.281  13.322  22.616  0.00  0.00    +0.000 OA
BRANCH   8   9
ATOM      9  C   UNL     1      -3.647  13.742  22.598  0.00  0.00    +0.000 C 
BRANCH   9  10
ATOM     10  C   UNL     1      -4.226  13.570  23.999  0.00  0.00    +0.000 C 
BRANCH  10  11
ATOM     11  C   UNL     1      -5.632  12.980  23.931  0.00  0.00    +0.000 C 
ATOM     12  C   UNL     1      -6.643  13.985  23.409  0.00  0.00    +0.000 C 
ENDBRANCH  10  11
ENDBRANCH   9  10
ENDBRANCH   8   9
ENDBRANCH   4   8
BRANCH   2  13
ATOM     13  C   UNL     1      -3.531  11.839  18.149  0.00  0.00    +0.000 C 
BRANCH  13  14
ATOM     14  C   UNL     1      -3.957  10.409  17.799  0.00  0.00    +0.000 C 
BRANCH  14  15
ATOM     15  C   UNL     1      -3.102   9.754  16.707  0.00  0.00    +0.000 C 
BRANCH  15  17
ATOM     16  C   UNL     1      -3.265  10.122  14.212  0.00  0.00    +0.000 C 
ATOM     17  C   UNL     1      -2.881  10.730  15.551  0.00  0.00    +0.000 C 
ENDBRANCH  15  17
ENDBRANCH  14  15
ENDBRANCH  13  14
ENDBRANCH   2  13
ENDBRANCH   1   6
BRANCH   1  18
ATOM     18  C   UNL     1       1.069   9.674  19.559  0.00  0.00    +0.000 C 
BRANCH  18  19
ATOM     19  C   UNL     1       1.554   9.601  18.115  0.00  0.00    +0.000 C 
BRANCH  19  20
ATOM     20  C   UNL     1       2.238   8.263  17.824  0.00  0.00    +0.000 C 
BRANCH  20  21
ATOM     21  C   UNL     1       2.409   7.434  19.093  0.00  0.00    +0.000 C 
BRANCH  21  22
ATOM     22  C   UNL     1       2.642   5.962  18.794  0.00  0.00    +0.000 C 
BRANCH  22  23
ATOM     23  C   UNL     1       2.758   5.195  20.107  0.00  0.00    +0.000 C 
BRANCH  23  24
ATOM     24  C   UNL     1       1.408   4.640  20.526  0.00  0.00    +0.000 C 
BRANCH  24  25
ATOM     25  C   UNL     1       1.198   3.238  19.961  0.00  0.00    +0.000 C 
BRANCH  25  26
ATOM     26  C   UNL     1       2.505   2.464  20.035  0.00  0.00    +0.000 C 
BRANCH  26  27
ATOM     27  C   UNL     1       2.793   1.669  18.764  0.00  0.00    +0.000 C 
BRANCH  27  28
ATOM     28  C   UNL     1       3.062   2.623  17.623  0.00  0.00    +0.000 C 
ATOM     29  O   UNL     1       2.186   3.016  16.858  0.00  0.00    +0.000 OA
ATOM     30  N   UNL     1       4.381   3.021  17.513  0.00  0.00    +0.000 N 
ATOM     31  H   UNL     1       5.076   2.653  18.148  0.00  0.00    +0.000 HD
BRANCH  30  32
ATOM     32  C   UNL     1       4.761   3.942  16.495  0.00  0.00    +0.000 C 
ATOM     33  C   UNL     1       5.643   5.105  16.861  0.00  0.00    +0.000 C 
ATOM     34  C   UNL     1       6.152   4.030  15.945  0.00  0.00    +0.000 C 
ENDBRANCH  30  32
ENDBRANCH  27  28
ENDBRANCH  26  27
ENDBRANCH  25  26
ENDBRANCH  24  25
ENDBRANCH  23  24
ENDBRANCH  22  23
ENDBRANCH  21  22
ENDBRANCH  20  21
ENDBRANCH  19  20
ENDBRANCH  18  19
ENDBRANCH   1  18
TORSDOF 21
ENDMDL
MODEL 9
REMARK VINA RESULT:      -6.1      4.245      7.680
REMARK  Name = 
REMARK  23 active torsions:
REMARK  status: ('A' for Active; 'I' for Inactive)
REMARK    1  A    between atoms: C_1  and  C_2
REMARK    2  A    between atoms: C_2  and  C_3
REMARK    3  A    between atoms: C_3  and  C_4
REMARK    4  A    between atoms: C_4  and  C_5
REMARK    5  A    between atoms: C_5  and  C_6
REMARK    6  A    between atoms: C_8  and  O_9
REMARK    7  A    between atoms: O_9  and  C_10
REMARK    8  A    between atoms: C_10  and  C_11
REMARK    9  A    between atoms: C_11  and  C_12
REMARK   10  A    between atoms: C_12  and  C_13
REMARK   11  A    between atoms: C_15  and  O_16
REMARK   12  A    between atoms: O_16  and  C_17
REMARK   13  A    between atoms: C_17  and  C_18
REMARK   14  A    between atoms: C_18  and  C_19
REMARK   15  A    between atoms: C_19  and  C_20
REMARK   16  A    between atoms: C_20  and  C_21
REMARK   17  A    between atoms: C_21  and  C_22
REMARK   18  A    between atoms: C_22  and  C_23
REMARK   19  A    between atoms: C_23  and  C_24
REMARK   20  A    between atoms: C_24  and  C_25
REMARK   21  A    between atoms: C_25  and  C_26
REMARK   22  A    between atoms: C_26  and  C_27
REMARK   23  A    between atoms: N_29  and  C_30
REMARK                            x       y       z     vdW  Elec       q    Type
REMARK                         _______ _______ _______ _____ _____    ______ ____
ROOT
ATOM      1  O   UNL     1       3.855   7.272  17.647  0.00  0.00    +0.000 OA
ENDROOT
BRANCH   1   6
ATOM      2  C   UNL     1       5.299   4.400  15.782  0.00  0.00    +0.000 A 
ATOM      3  C   UNL     1       4.506   3.382  16.322  0.00  0.00    +0.000 A 
ATOM      4  C   UNL     1       3.496   3.678  17.240  0.00  0.00    +0.000 A 
ATOM      5  C   UNL     1       3.322   4.989  17.686  0.00  0.00    +0.000 A 
ATOM      6  C   UNL     1       4.111   6.012  17.164  0.00  0.00    +0.000 A 
ATOM      7  C   UNL     1       5.099   5.714  16.221  0.00  0.00    +0.000 A 
BRANCH   4   8
ATOM      8  O   UNL     1       2.728   2.613  17.631  0.00  0.00    +0.000 OA
BRANCH   8   9
ATOM      9  C   UNL     1       2.541   2.500  19.043  0.00  0.00    +0.000 C 
BRANCH   9  10
ATOM     10  C   UNL     1       1.091   2.847  19.370  0.00  0.00    +0.000 C 
BRANCH  10  11
ATOM     11  C   UNL     1       0.976   3.399  20.789  0.00  0.00    +0.000 C 
ATOM     12  C   UNL     1       2.313   3.391  21.508  0.00  0.00    +0.000 C 
ENDBRANCH  10  11
ENDBRANCH   9  10
ENDBRANCH   8   9
ENDBRANCH   4   8
BRANCH   2  13
ATOM     13  C   UNL     1       6.341   4.113  14.731  0.00  0.00    +0.000 C 
BRANCH  13  14
ATOM     14  C   UNL     1       5.854   4.337  13.295  0.00  0.00    +0.000 C 
BRANCH  14  15
ATOM     15  C   UNL     1       6.485   3.390  12.268  0.00  0.00    +0.000 C 
BRANCH  15  17
ATOM     16  C   UNL     1       4.179   3.221  11.247  0.00  0.00    +0.000 C 
ATOM     17  C   UNL     1       5.422   2.461  11.680  0.00  0.00    +0.000 C 
ENDBRANCH  15  17
ENDBRANCH  14  15
ENDBRANCH  13  14
ENDBRANCH   2  13
ENDBRANCH   1   6
BRANCH   1  18
ATOM     18  C   UNL     1       2.564   7.392  18.241  0.00  0.00    +0.000 C 
BRANCH  18  19
ATOM     19  C   UNL     1       2.626   7.002  19.713  0.00  0.00    +0.000 C 
BRANCH  19  20
ATOM     20  C   UNL     1       1.464   7.615  20.500  0.00  0.00    +0.000 C 
BRANCH  20  21
ATOM     21  C   UNL     1       1.237   9.075  20.118  0.00  0.00    +0.000 C 
BRANCH  21  22
ATOM     22  C   UNL     1      -0.160   9.554  20.477  0.00  0.00    +0.000 C 
BRANCH  22  23
ATOM     23  C   UNL     1      -0.785  10.231  19.261  0.00  0.00    +0.000 C 
BRANCH  23  24
ATOM     24  C   UNL     1      -1.587  11.449  19.678  0.00  0.00    +0.000 C 
BRANCH  24  25
ATOM     25  C   UNL     1      -0.982  12.101  20.918  0.00  0.00    +0.000 C 
BRANCH  25  26
ATOM     26  C   UNL     1      -0.061  13.234  20.493  0.00  0.00    +0.000 C 
BRANCH  26  27
ATOM     27  C   UNL     1       1.414  12.914  20.724  0.00  0.00    +0.000 C 
BRANCH  27  28
ATOM     28  C   UNL     1       2.158  12.991  19.411  0.00  0.00    +0.000 C 
ATOM     29  O   UNL     1       2.089  12.119  18.550  0.00  0.00    +0.000 OA
ATOM     30  N   UNL     1       2.923  14.131  19.256  0.00  0.00    +0.000 N 
ATOM     31  H   UNL     1       2.973  14.813  20.001  0.00  0.00    +0.000 HD
BRANCH  30  32
ATOM     32  C   UNL     1       3.651  14.338  18.050  0.00  0.00    +0.000 C 
ATOM     33  C   UNL     1       3.631  15.703  17.414  0.00  0.00    +0.000 C 
ATOM     34  C   UNL     1       4.909  15.151  17.978  0.00  0.00    +0.000 C 
ENDBRANCH  30  32
ENDBRANCH  27  28
ENDBRANCH  26  27
ENDBRANCH  25  26
ENDBRANCH  24  25
ENDBRANCH  23  24
ENDBRANCH  22  23
ENDBRANCH  21  22
ENDBRANCH  20  21
ENDBRANCH  19  20
ENDBRANCH  18  19
ENDBRANCH   1  18
TORSDOF 21
ENDMDL
