MODEL 1
REMARK VINA RESULT:      -8.4      0.000      0.000
REMARK  Name = 
REMARK  6 active torsions:
REMARK  status: ('A' for Active; 'I' for Inactive)
REMARK    1  A    between atoms: C_1  and  C_2
REMARK    2  A    between atoms: C_7  and  C_8
REMARK    3  A    between atoms: C_8  and  N_9
REMARK    4  A    between atoms: C_12  and  C_13
REMARK    5  A    between atoms: C_13  and  N_14
REMARK    6  A    between atoms: N_14  and  C_15
REMARK                            x       y       z     vdW  Elec       q    Type
REMARK                         _______ _______ _______ _____ _____    ______ ____
ROOT
ATOM      1  C   UNL     1       1.565   5.505  20.093  0.00  0.00    +0.000 C 
ENDROOT
BRANCH   1   5
ATOM      2  N   UNL     1       4.008   3.436  18.176  0.00  0.00    +0.000 NA
ATOM      3  C   UNL     1       2.668   3.079  17.700  0.00  0.00    +0.000 C 
ATOM      4  C   UNL     1       1.792   4.313  17.842  0.00  0.00    +0.000 C 
ATOM      5  C   UNL     1       2.479   5.195  18.885  0.00  0.00    +0.000 C 
ATOM      6  C   UNL     1       3.770   4.444  19.234  0.00  0.00    +0.000 C 
BRANCH   2   7
ATOM      7  C   UNL     1       4.905   3.921  17.099  0.00  0.00    +0.000 C 
BRANCH   7  14
ATOM      8  C   UNL     1       4.718   6.813  16.177  0.00  0.00    +0.000 C 
ATOM      9  C   UNL     1       5.882   6.306  16.988  0.00  0.00    +0.000 A 
ATOM     10  C   UNL     1       6.856   7.256  17.360  0.00  0.00    +0.000 A 
ATOM     11  C   UNL     1       7.853   6.937  18.277  0.00  0.00    +0.000 A 
ATOM     12  C   UNL     1       7.876   5.669  18.844  0.00  0.00    +0.000 A 
ATOM     13  C   UNL     1       6.938   4.705  18.453  0.00  0.00    +0.000 A 
ATOM     14  C   UNL     1       5.945   4.982  17.494  0.00  0.00    +0.000 A 
ENDBRANCH   7  14
ENDBRANCH   2   7
ENDBRANCH   1   5
BRANCH   1  15
ATOM     15  N   UNL     1       2.019   6.760  20.702  0.00  0.00    +0.000 N 
ATOM     16  H   UNL     1       3.026   6.771  20.829  0.00  0.00    +0.000 HD
BRANCH  15  17
ATOM     17  C   UNL     1       1.648   7.965  20.083  0.00  0.00    +0.000 A 
ATOM     18  N   UNL     1       2.193   8.281  18.897  0.00  0.00    +0.000 NA
ATOM     19  C   UNL     1       1.787   9.425  18.330  0.00  0.00    +0.000 A 
ATOM     20  N   UNL     1       0.869  10.268  18.817  0.00  0.00    +0.000 NA
ATOM     21  C   UNL     1       0.319   9.926  19.999  0.00  0.00    +0.000 A 
ATOM     22  C   UNL     1       0.699   8.788  20.704  0.00  0.00    +0.000 A 
ATOM     23  C   UNL     1       0.092   8.498  22.056  0.00  0.00    +0.000 C 
ATOM     24  C   UNL     1       0.396   9.592  23.099  0.00  0.00    +0.000 C 
ATOM     25  N   UNL     1      -0.459  10.782  23.021  0.00  0.00    +0.000 NA
ATOM     26  C   UNL     1      -0.254  11.573  21.802  0.00  0.00    +0.000 C 
ATOM     27  C   UNL     1      -0.726  10.869  20.531  0.00  0.00    +0.000 C 
ATOM     28  H   UNL     1      -0.257  11.379  23.825  0.00  0.00    +0.000 HD
ENDBRANCH  15  17
ENDBRANCH   1  15
TORSDOF 5
ENDMDL
MODEL 2
REMARK VINA RESULT:      -7.9      1.460      3.061
REMARK  Name = 
REMARK  6 active torsions:
REMARK  status: ('A' for Active; 'I' for Inactive)
REMARK    1  A    between atoms: C_1  and  C_2
REMARK    2  A    between atoms: C_7  and  C_8
REMARK    3  A    between atoms: C_8  and  N_9
REMARK    4  A    between atoms: C_12  and  C_13
REMARK    5  A    between atoms: C_13  and  N_14
REMARK    6  A    between atoms: N_14  and  C_15
REMARK                            x       y       z     vdW  Elec       q    Type
REMARK                         _______ _______ _______ _____ _____    ______ ____
ROOT
ATOM      1  C   UNL     1       1.266   6.960  20.786  0.00  0.00    +0.000 C 
ENDROOT
BRANCH   1   5
ATOM      2  N   UNL     1       2.978   4.257  18.865  0.00  0.00    +0.000 NA
ATOM      3  C   UNL     1       2.642   5.322  17.914  0.00  0.00    +0.000 C 
ATOM      4  C   UNL     1       2.673   6.637  18.675  0.00  0.00    +0.000 C 
ATOM      5  C   UNL     1       2.495   6.271  20.149  0.00  0.00    +0.000 C 
ATOM      6  C   UNL     1       2.448   4.738  20.161  0.00  0.00    +0.000 C 
BRANCH   2   7
ATOM      7  C   UNL     1       4.426   3.941  18.907  0.00  0.00    +0.000 C 
BRANCH   7  14
ATOM      8  C   UNL     1       6.954   5.620  19.104  0.00  0.00    +0.000 C 
ATOM      9  C   UNL     1       6.384   5.187  17.779  0.00  0.00    +0.000 A 
ATOM     10  C   UNL     1       7.117   5.541  16.627  0.00  0.00    +0.000 A 
ATOM     11  C   UNL     1       6.790   5.015  15.381  0.00  0.00    +0.000 A 
ATOM     12  C   UNL     1       5.737   4.116  15.277  0.00  0.00    +0.000 A 
ATOM     13  C   UNL     1       4.976   3.786  16.406  0.00  0.00    +0.000 A 
ATOM     14  C   UNL     1       5.253   4.337  17.672  0.00  0.00    +0.000 A 
ENDBRANCH   7  14
ENDBRANCH   2   7
ENDBRANCH   1   5
BRANCH   1  15
ATOM     15  N   UNL     1       1.715   8.207  21.417  0.00  0.00    +0.000 N 
ATOM     16  H   UNL     1       2.460   8.647  20.887  0.00  0.00    +0.000 HD
BRANCH  15  17
ATOM     17  C   UNL     1       0.749   9.186  21.701  0.00  0.00    +0.000 A 
ATOM     18  N   UNL     1       0.167   9.193  22.911  0.00  0.00    +0.000 NA
ATOM     19  C   UNL     1      -0.727  10.164  23.147  0.00  0.00    +0.000 A 
ATOM     20  N   UNL     1      -1.072  11.143  22.304  0.00  0.00    +0.000 NA
ATOM     21  C   UNL     1      -0.465  11.132  21.101  0.00  0.00    +0.000 A 
ATOM     22  C   UNL     1       0.442  10.145  20.726  0.00  0.00    +0.000 A 
ATOM     23  C   UNL     1       1.036  10.151  19.338  0.00  0.00    +0.000 C 
ATOM     24  C   UNL     1      -0.024   9.998  18.229  0.00  0.00    +0.000 C 
ATOM     25  N   UNL     1      -0.742  11.229  17.878  0.00  0.00    +0.000 NA
ATOM     26  C   UNL     1      -1.611  11.727  18.951  0.00  0.00    +0.000 C 
ATOM     27  C   UNL     1      -0.844  12.248  20.166  0.00  0.00    +0.000 C 
ATOM     28  H   UNL     1      -1.323  11.043  17.059  0.00  0.00    +0.000 HD
ENDBRANCH  15  17
ENDBRANCH   1  15
TORSDOF 5
ENDMDL
MODEL 3
REMARK VINA RESULT:      -7.9      1.214      2.338
REMARK  Name = 
REMARK  6 active torsions:
REMARK  status: ('A' for Active; 'I' for Inactive)
REMARK    1  A    between atoms: C_1  and  C_2
REMARK    2  A    between atoms: C_7  and  C_8
REMARK    3  A    between atoms: C_8  and  N_9
REMARK    4  A    between atoms: C_12  and  C_13
REMARK    5  A    between atoms: C_13  and  N_14
REMARK    6  A    between atoms: N_14  and  C_15
REMARK                            x       y       z     vdW  Elec       q    Type
REMARK                         _______ _______ _______ _____ _____    ______ ____
ROOT
ATOM      1  C   UNL     1       1.969   6.753  20.103  0.00  0.00    +0.000 C 
ENDROOT
BRANCH   1   5
ATOM      2  N   UNL     1       4.003   3.961  18.691  0.00  0.00    +0.000 NA
ATOM      3  C   UNL     1       2.645   3.828  18.151  0.00  0.00    +0.000 C 
ATOM      4  C   UNL     1       2.056   5.226  18.054  0.00  0.00    +0.000 C 
ATOM      5  C   UNL     1       2.860   6.086  19.029  0.00  0.00    +0.000 C 
ATOM      6  C   UNL     1       3.932   5.140  19.584  0.00  0.00    +0.000 C 
BRANCH   2   7
ATOM      7  C   UNL     1       5.044   4.085  17.643  0.00  0.00    +0.000 C 
BRANCH   7  14
ATOM      8  C   UNL     1       4.964   6.684  16.066  0.00  0.00    +0.000 C 
ATOM      9  C   UNL     1       6.075   6.370  17.032  0.00  0.00    +0.000 A 
ATOM     10  C   UNL     1       7.050   7.371  17.224  0.00  0.00    +0.000 A 
ATOM     11  C   UNL     1       7.994   7.265  18.241  0.00  0.00    +0.000 A 
ATOM     12  C   UNL     1       7.962   6.165  19.088  0.00  0.00    +0.000 A 
ATOM     13  C   UNL     1       7.024   5.144  18.883  0.00  0.00    +0.000 A 
ATOM     14  C   UNL     1       6.085   5.200  17.835  0.00  0.00    +0.000 A 
ENDBRANCH   7  14
ENDBRANCH   2   7
ENDBRANCH   1   5
BRANCH   1  15
ATOM     15  N   UNL     1       1.858   8.182  19.785  0.00  0.00    +0.000 N 
ATOM     16  H   UNL     1       1.540   8.329  18.832  0.00  0.00    +0.000 HD
BRANCH  15  17
ATOM     17  C   UNL     1       1.077   8.986  20.631  0.00  0.00    +0.000 A 
ATOM     18  N   UNL     1       1.012   8.683  21.938  0.00  0.00    +0.000 NA
ATOM     19  C   UNL     1       0.279   9.496  22.712  0.00  0.00    +0.000 A 
ATOM     20  N   UNL     1      -0.368  10.596  22.314  0.00  0.00    +0.000 NA
ATOM     21  C   UNL     1      -0.276  10.896  21.003  0.00  0.00    +0.000 A 
ATOM     22  C   UNL     1       0.414  10.098  20.095  0.00  0.00    +0.000 A 
ATOM     23  C   UNL     1       0.422  10.454  18.628  0.00  0.00    +0.000 C 
ATOM     24  C   UNL     1      -0.985  10.444  17.999  0.00  0.00    +0.000 C 
ATOM     25  N   UNL     1      -1.784  11.651  18.241  0.00  0.00    +0.000 NA
ATOM     26  C   UNL     1      -2.169  11.829  19.646  0.00  0.00    +0.000 C 
ATOM     27  C   UNL     1      -0.990  12.147  20.566  0.00  0.00    +0.000 C 
ATOM     28  H   UNL     1      -2.638  11.592  17.684  0.00  0.00    +0.000 HD
ENDBRANCH  15  17
ENDBRANCH   1  15
TORSDOF 5
ENDMDL
MODEL 4
REMARK VINA RESULT:      -7.8      1.633      2.642
REMARK  Name = 
REMARK  6 active torsions:
REMARK  status: ('A' for Active; 'I' for Inactive)
REMARK    1  A    between atoms: C_1  and  C_2
REMARK    2  A    between atoms: C_7  and  C_8
REMARK    3  A    between atoms: C_8  and  N_9
REMARK    4  A    between atoms: C_12  and  C_13
REMARK    5  A    between atoms: C_13  and  N_14
REMARK    6  A    between atoms: N_14  and  C_15
REMARK                            x       y       z     vdW  Elec       q    Type
REMARK                         _______ _______ _______ _____ _____    ______ ____
ROOT
ATOM      1  C   UNL     1       2.186   8.308  17.801  0.00  0.00    +0.000 C 
ENDROOT
BRANCH   1   5
ATOM      2  N   UNL     1       4.505   5.615  18.935  0.00  0.00    +0.000 NA
ATOM      3  C   UNL     1       3.319   5.558  19.795  0.00  0.00    +0.000 C 
ATOM      4  C   UNL     1       2.136   6.034  18.969  0.00  0.00    +0.000 C 
ATOM      5  C   UNL     1       2.729   6.861  17.828  0.00  0.00    +0.000 C 
ATOM      6  C   UNL     1       4.246   6.749  18.020  0.00  0.00    +0.000 C 
BRANCH   2   7
ATOM      7  C   UNL     1       4.777   4.342  18.224  0.00  0.00    +0.000 C 
BRANCH   7  14
ATOM      8  C   UNL     1       7.762   4.878  17.991  0.00  0.00    +0.000 C 
ATOM      9  C   UNL     1       6.871   4.780  16.781  0.00  0.00    +0.000 A 
ATOM     10  C   UNL     1       7.498   4.883  15.522  0.00  0.00    +0.000 A 
ATOM     11  C   UNL     1       6.803   4.599  14.350  0.00  0.00    +0.000 A 
ATOM     12  C   UNL     1       5.477   4.194  14.427  0.00  0.00    +0.000 A 
ATOM     13  C   UNL     1       4.830   4.126  15.668  0.00  0.00    +0.000 A 
ATOM     14  C   UNL     1       5.493   4.450  16.867  0.00  0.00    +0.000 A 
ENDBRANCH   7  14
ENDBRANCH   2   7
ENDBRANCH   1   5
BRANCH   1  15
ATOM     15  N   UNL     1       1.684   8.635  19.141  0.00  0.00    +0.000 N 
ATOM     16  H   UNL     1       2.390   8.477  19.853  0.00  0.00    +0.000 HD
BRANCH  15  17
ATOM     17  C   UNL     1       1.140   9.914  19.347  0.00  0.00    +0.000 A 
ATOM     18  N   UNL     1       1.532  10.922  18.551  0.00  0.00    +0.000 NA
ATOM     19  C   UNL     1       0.965  12.118  18.766  0.00  0.00    +0.000 A 
ATOM     20  N   UNL     1       0.024  12.396  19.675  0.00  0.00    +0.000 NA
ATOM     21  C   UNL     1      -0.370  11.368  20.452  0.00  0.00    +0.000 A 
ATOM     22  C   UNL     1       0.184  10.095  20.355  0.00  0.00    +0.000 A 
ATOM     23  C   UNL     1      -0.255   9.004  21.302  0.00  0.00    +0.000 C 
ATOM     24  C   UNL     1       0.046   9.331  22.778  0.00  0.00    +0.000 C 
ATOM     25  N   UNL     1      -0.922  10.223  23.428  0.00  0.00    +0.000 NA
ATOM     26  C   UNL     1      -0.915  11.588  22.891  0.00  0.00    +0.000 C 
ATOM     27  C   UNL     1      -1.443  11.683  21.460  0.00  0.00    +0.000 C 
ATOM     28  H   UNL     1      -0.698  10.272  24.424  0.00  0.00    +0.000 HD
ENDBRANCH  15  17
ENDBRANCH   1  15
TORSDOF 5
ENDMDL
MODEL 5
REMARK VINA RESULT:      -7.6      2.154      6.496
REMARK  Name = 
REMARK  6 active torsions:
REMARK  status: ('A' for Active; 'I' for Inactive)
REMARK    1  A    between atoms: C_1  and  C_2
REMARK    2  A    between atoms: C_7  and  C_8
REMARK    3  A    between atoms: C_8  and  N_9
REMARK    4  A    between atoms: C_12  and  C_13
REMARK    5  A    between atoms: C_13  and  N_14
REMARK    6  A    between atoms: N_14  and  C_15
REMARK                            x       y       z     vdW  Elec       q    Type
REMARK                         _______ _______ _______ _____ _____    ______ ____
ROOT
ATOM      1  C   UNL     1       3.598   2.821  18.140  0.00  0.00    +0.000 C 
ENDROOT
BRANCH   1   5
ATOM      2  N   UNL     1       1.303   4.956  20.164  0.00  0.00    +0.000 NA
ATOM      3  C   UNL     1       1.624   3.774  20.971  0.00  0.00    +0.000 C 
ATOM      4  C   UNL     1       3.022   3.323  20.580  0.00  0.00    +0.000 C 
ATOM      5  C   UNL     1       3.275   3.908  19.190  0.00  0.00    +0.000 C 
ATOM      6  C   UNL     1       2.022   4.739  18.888  0.00  0.00    +0.000 C 
BRANCH   2   7
ATOM      7  C   UNL     1       1.658   6.235  20.825  0.00  0.00    +0.000 C 
BRANCH   7  14
ATOM      8  C   UNL     1       0.388   8.852  21.710  0.00  0.00    +0.000 C 
ATOM      9  C   UNL     1       0.987   8.678  20.339  0.00  0.00    +0.000 A 
ATOM     10  C   UNL     1       0.991   9.813  19.501  0.00  0.00    +0.000 A 
ATOM     11  C   UNL     1       1.702   9.816  18.304  0.00  0.00    +0.000 A 
ATOM     12  C   UNL     1       2.429   8.689  17.942  0.00  0.00    +0.000 A 
ATOM     13  C   UNL     1       2.400   7.542  18.745  0.00  0.00    +0.000 A 
ATOM     14  C   UNL     1       1.655   7.492  19.939  0.00  0.00    +0.000 A 
ENDBRANCH   7  14
ENDBRANCH   2   7
ENDBRANCH   1   5
BRANCH   1  15
ATOM     15  N   UNL     1       4.977   3.021  17.680  0.00  0.00    +0.000 N 
ATOM     16  H   UNL     1       5.320   2.216  17.166  0.00  0.00    +0.000 HD
BRANCH  15  17
ATOM     17  C   UNL     1       5.258   4.170  16.921  0.00  0.00    +0.000 A 
ATOM     18  N   UNL     1       4.924   4.187  15.621  0.00  0.00    +0.000 NA
ATOM     19  C   UNL     1       5.185   5.315  14.944  0.00  0.00    +0.000 A 
ATOM     20  N   UNL     1       5.716   6.434  15.447  0.00  0.00    +0.000 NA
ATOM     21  C   UNL     1       6.028   6.405  16.757  0.00  0.00    +0.000 A 
ATOM     22  C   UNL     1       5.850   5.274  17.549  0.00  0.00    +0.000 A 
ATOM     23  C   UNL     1       6.283   5.286  18.995  0.00  0.00    +0.000 C 
ATOM     24  C   UNL     1       7.797   5.517  19.168  0.00  0.00    +0.000 C 
ATOM     25  N   UNL     1       8.230   6.916  19.074  0.00  0.00    +0.000 NA
ATOM     26  C   UNL     1       8.068   7.491  17.734  0.00  0.00    +0.000 C 
ATOM     27  C   UNL     1       6.608   7.675  17.321  0.00  0.00    +0.000 C 
ATOM     28  H   UNL     1       9.219   6.967  19.324  0.00  0.00    +0.000 HD
ENDBRANCH  15  17
ENDBRANCH   1  15
TORSDOF 5
ENDMDL
MODEL 6
REMARK VINA RESULT:      -7.6      1.808      8.512
REMARK  Name = 
REMARK  6 active torsions:
REMARK  status: ('A' for Active; 'I' for Inactive)
REMARK    1  A    between atoms: C_1  and  C_2
REMARK    2  A    between atoms: C_7  and  C_8
REMARK    3  A    between atoms: C_8  and  N_9
REMARK    4  A    between atoms: C_12  and  C_13
REMARK    5  A    between atoms: C_13  and  N_14
REMARK    6  A    between atoms: N_14  and  C_15
REMARK                            x       y       z     vdW  Elec       q    Type
REMARK                         _______ _______ _______ _____ _____    ______ ____
ROOT
ATOM      1  C   UNL     1       2.873   8.148  17.931  0.00  0.00    +0.000 C 
ENDROOT
BRANCH   1   5
ATOM      2  N   UNL     1       0.869  10.414  20.116  0.00  0.00    +0.000 NA
ATOM      3  C   UNL     1       1.509  11.249  19.094  0.00  0.00    +0.000 C 
ATOM      4  C   UNL     1       1.661  10.398  17.843  0.00  0.00    +0.000 C 
ATOM      5  C   UNL     1       1.605   8.946  18.317  0.00  0.00    +0.000 C 
ATOM      6  C   UNL     1       1.344   9.043  19.825  0.00  0.00    +0.000 C 
BRANCH   2   7
ATOM      7  C   UNL     1      -0.609  10.530  20.129  0.00  0.00    +0.000 C 
BRANCH   7  14
ATOM      8  C   UNL     1      -0.813  10.260  23.151  0.00  0.00    +0.000 C 
ATOM      9  C   UNL     1      -1.364  11.454  22.417  0.00  0.00    +0.000 A 
ATOM     10  C   UNL     1      -1.924  12.480  23.206  0.00  0.00    +0.000 A 
ATOM     11  C   UNL     1      -2.268  13.707  22.646  0.00  0.00    +0.000 A 
ATOM     12  C   UNL     1      -2.040  13.925  21.293  0.00  0.00    +0.000 A 
ATOM     13  C   UNL     1      -1.522  12.901  20.491  0.00  0.00    +0.000 A 
ATOM     14  C   UNL     1      -1.206  11.634  21.018  0.00  0.00    +0.000 A 
ENDBRANCH   7  14
ENDBRANCH   2   7
ENDBRANCH   1   5
BRANCH   1  15
ATOM     15  N   UNL     1       2.562   6.717  18.026  0.00  0.00    +0.000 N 
ATOM     16  H   UNL     1       2.098   6.379  17.189  0.00  0.00    +0.000 HD
BRANCH  15  17
ATOM     17  C   UNL     1       3.611   5.834  18.327  0.00  0.00    +0.000 A 
ATOM     18  N   UNL     1       4.878   6.246  18.152  0.00  0.00    +0.000 NA
ATOM     19  C   UNL     1       5.846   5.379  18.479  0.00  0.00    +0.000 A 
ATOM     20  N   UNL     1       5.674   4.156  18.993  0.00  0.00    +0.000 NA
ATOM     21  C   UNL     1       4.397   3.766  19.179  0.00  0.00    +0.000 A 
ATOM     22  C   UNL     1       3.309   4.560  18.829  0.00  0.00    +0.000 A 
ATOM     23  C   UNL     1       1.903   4.038  19.001  0.00  0.00    +0.000 C 
ATOM     24  C   UNL     1       1.621   2.781  18.154  0.00  0.00    +0.000 C 
ATOM     25  N   UNL     1       2.111   1.521  18.724  0.00  0.00    +0.000 NA
ATOM     26  C   UNL     1       3.575   1.431  18.776  0.00  0.00    +0.000 C 
ATOM     27  C   UNL     1       4.211   2.397  19.775  0.00  0.00    +0.000 C 
ATOM     28  H   UNL     1       1.766   0.750  18.151  0.00  0.00    +0.000 HD
ENDBRANCH  15  17
ENDBRANCH   1  15
TORSDOF 5
ENDMDL
MODEL 7
REMARK VINA RESULT:      -7.6      1.054      1.763
REMARK  Name = 
REMARK  6 active torsions:
REMARK  status: ('A' for Active; 'I' for Inactive)
REMARK    1  A    between atoms: C_1  and  C_2
REMARK    2  A    between atoms: C_7  and  C_8
REMARK    3  A    between atoms: C_8  and  N_9
REMARK    4  A    between atoms: C_12  and  C_13
REMARK    5  A    between atoms: C_13  and  N_14
REMARK    6  A    between atoms: N_14  and  C_15
REMARK                            x       y       z     vdW  Elec       q    Type
REMARK                         _______ _______ _______ _____ _____    ______ ____
ROOT
ATOM      1  C   UNL     1       1.290   5.987  20.532  0.00  0.00    +0.000 C 
ENDROOT
BRANCH   1   5
ATOM      2  N   UNL     1       2.871   3.143  18.705  0.00  0.00    +0.000 NA
ATOM      3  C   UNL     1       2.191   3.978  17.708  0.00  0.00    +0.000 C 
ATOM      4  C   UNL     1       2.217   5.408  18.220  0.00  0.00    +0.000 C 
ATOM      5  C   UNL     1       2.425   5.307  19.731  0.00  0.00    +0.000 C 
ATOM      6  C   UNL     1       2.587   3.805  19.998  0.00  0.00    +0.000 C 
BRANCH   2   7
ATOM      7  C   UNL     1       4.320   2.975  18.441  0.00  0.00    +0.000 C 
BRANCH   7  14
ATOM      8  C   UNL     1       6.094   5.300  19.274  0.00  0.00    +0.000 C 
ATOM      9  C   UNL     1       5.710   5.063  17.838  0.00  0.00    +0.000 A 
ATOM     10  C   UNL     1       6.268   5.936  16.881  0.00  0.00    +0.000 A 
ATOM     11  C   UNL     1       6.144   5.678  15.518  0.00  0.00    +0.000 A 
ATOM     12  C   UNL     1       5.476   4.535  15.100  0.00  0.00    +0.000 A 
ATOM     13  C   UNL     1       4.883   3.681  16.039  0.00  0.00    +0.000 A 
ATOM     14  C   UNL     1       4.951   3.939  17.422  0.00  0.00    +0.000 A 
ENDBRANCH   7  14
ENDBRANCH   2   7
ENDBRANCH   1   5
BRANCH   1  15
ATOM     15  N   UNL     1       1.781   7.283  21.015  0.00  0.00    +0.000 N 
ATOM     16  H   UNL     1       2.795   7.309  21.048  0.00  0.00    +0.000 HD
BRANCH  15  17
ATOM     17  C   UNL     1       1.339   8.442  20.356  0.00  0.00    +0.000 A 
ATOM     18  N   UNL     1       1.908   8.781  19.187  0.00  0.00    +0.000 NA
ATOM     19  C   UNL     1       1.434   9.879  18.581  0.00  0.00    +0.000 A 
ATOM     20  N   UNL     1       0.430  10.650  19.011  0.00  0.00    +0.000 NA
ATOM     21  C   UNL     1      -0.141  10.285  20.176  0.00  0.00    +0.000 A 
ATOM     22  C   UNL     1       0.300   9.194  20.920  0.00  0.00    +0.000 A 
ATOM     23  C   UNL     1      -0.338   8.877  22.251  0.00  0.00    +0.000 C 
ATOM     24  C   UNL     1      -0.171  10.010  23.283  0.00  0.00    +0.000 C 
ATOM     25  N   UNL     1      -1.116  11.124  23.145  0.00  0.00    +0.000 NA
ATOM     26  C   UNL     1      -0.924  11.909  21.920  0.00  0.00    +0.000 C 
ATOM     27  C   UNL     1      -1.282  11.146  20.645  0.00  0.00    +0.000 C 
ATOM     28  H   UNL     1      -0.998  11.750  23.944  0.00  0.00    +0.000 HD
ENDBRANCH  15  17
ENDBRANCH   1  15
TORSDOF 5
ENDMDL
MODEL 8
REMARK VINA RESULT:      -7.5      1.411      2.795
REMARK  Name = 
REMARK  6 active torsions:
REMARK  status: ('A' for Active; 'I' for Inactive)
REMARK    1  A    between atoms: C_1  and  C_2
REMARK    2  A    between atoms: C_7  and  C_8
REMARK    3  A    between atoms: C_8  and  N_9
REMARK    4  A    between atoms: C_12  and  C_13
REMARK    5  A    between atoms: C_13  and  N_14
REMARK    6  A    between atoms: N_14  and  C_15
REMARK                            x       y       z     vdW  Elec       q    Type
REMARK                         _______ _______ _______ _____ _____    ______ ____
ROOT
ATOM      1  C   UNL     1       1.195   6.721  20.875  0.00  0.00    +0.000 C 
ENDROOT
BRANCH   1   5
ATOM      2  N   UNL     1       2.590   4.541  18.188  0.00  0.00    +0.000 NA
ATOM      3  C   UNL     1       2.910   5.928  17.833  0.00  0.00    +0.000 C 
ATOM      4  C   UNL     1       3.064   6.704  19.130  0.00  0.00    +0.000 C 
ATOM      5  C   UNL     1       2.312   5.899  20.191  0.00  0.00    +0.000 C 
ATOM      6  C   UNL     1       1.824   4.648  19.450  0.00  0.00    +0.000 C 
BRANCH   2   7
ATOM      7  C   UNL     1       3.787   3.673  18.303  0.00  0.00    +0.000 C 
BRANCH   7  14
ATOM      8  C   UNL     1       5.139   4.181  15.626  0.00  0.00    +0.000 C 
ATOM      9  C   UNL     1       5.803   4.522  16.934  0.00  0.00    +0.000 A 
ATOM     10  C   UNL     1       7.061   5.153  16.860  0.00  0.00    +0.000 A 
ATOM     11  C   UNL     1       7.660   5.694  17.995  0.00  0.00    +0.000 A 
ATOM     12  C   UNL     1       6.996   5.622  19.212  0.00  0.00    +0.000 A 
ATOM     13  C   UNL     1       5.764   4.963  19.307  0.00  0.00    +0.000 A 
ATOM     14  C   UNL     1       5.154   4.366  18.187  0.00  0.00    +0.000 A 
ENDBRANCH   7  14
ENDBRANCH   2   7
ENDBRANCH   1   5
BRANCH   1  15
ATOM     15  N   UNL     1       1.708   8.074  21.125  0.00  0.00    +0.000 N 
ATOM     16  H   UNL     1       2.239   8.423  20.334  0.00  0.00    +0.000 HD
BRANCH  15  17
ATOM     17  C   UNL     1       0.789   9.067  21.502  0.00  0.00    +0.000 A 
ATOM     18  N   UNL     1       0.303   9.060  22.754  0.00  0.00    +0.000 NA
ATOM     19  C   UNL     1      -0.547  10.044  23.078  0.00  0.00    +0.000 A 
ATOM     20  N   UNL     1      -0.935  11.049  22.284  0.00  0.00    +0.000 NA
ATOM     21  C   UNL     1      -0.423  11.050  21.038  0.00  0.00    +0.000 A 
ATOM     22  C   UNL     1       0.429  10.052  20.573  0.00  0.00    +0.000 A 
ATOM     23  C   UNL     1       0.914  10.075  19.143  0.00  0.00    +0.000 C 
ATOM     24  C   UNL     1      -0.232   9.969  18.118  0.00  0.00    +0.000 C 
ATOM     25  N   UNL     1      -0.947  11.222  17.849  0.00  0.00    +0.000 NA
ATOM     26  C   UNL     1      -1.719  11.715  18.995  0.00  0.00    +0.000 C 
ATOM     27  C   UNL     1      -0.848  12.193  20.156  0.00  0.00    +0.000 C 
ATOM     28  H   UNL     1      -1.594  11.065  17.074  0.00  0.00    +0.000 HD
ENDBRANCH  15  17
ENDBRANCH   1  15
TORSDOF 5
ENDMDL
MODEL 9
REMARK VINA RESULT:      -7.5      2.470      8.629
REMARK  Name = 
REMARK  6 active torsions:
REMARK  status: ('A' for Active; 'I' for Inactive)
REMARK    1  A    between atoms: C_1  and  C_2
REMARK    2  A    between atoms: C_7  and  C_8
REMARK    3  A    between atoms: C_8  and  N_9
REMARK    4  A    between atoms: C_12  and  C_13
REMARK    5  A    between atoms: C_13  and  N_14
REMARK    6  A    between atoms: N_14  and  C_15
REMARK                            x       y       z     vdW  Elec       q    Type
REMARK                         _______ _______ _______ _____ _____    ______ ____
ROOT
ATOM      1  C   UNL     1       2.110   8.128  19.054  0.00  0.00    +0.000 C 
ENDROOT
BRANCH   1   5
ATOM      2  N   UNL     1       0.093  11.265  19.167  0.00  0.00    +0.000 NA
ATOM      3  C   UNL     1       1.483  11.650  18.899  0.00  0.00    +0.000 C 
ATOM      4  C   UNL     1       2.129  10.511  18.128  0.00  0.00    +0.000 C 
ATOM      5  C   UNL     1       1.283   9.273  18.425  0.00  0.00    +0.000 C 
ATOM      6  C   UNL     1       0.137   9.791  19.302  0.00  0.00    +0.000 C 
BRANCH   2   7
ATOM      7  C   UNL     1      -0.856  11.729  18.127  0.00  0.00    +0.000 C 
BRANCH   7  14
ATOM      8  C   UNL     1      -2.997  10.006  16.823  0.00  0.00    +0.000 C 
ATOM      9  C   UNL     1      -3.331  11.050  17.856  0.00  0.00    +0.000 A 
ATOM     10  C   UNL     1      -4.683  11.148  18.243  0.00  0.00    +0.000 A 
ATOM     11  C   UNL     1      -5.062  11.929  19.331  0.00  0.00    +0.000 A 
ATOM     12  C   UNL     1      -4.088  12.607  20.053  0.00  0.00    +0.000 A 
ATOM     13  C   UNL     1      -2.747  12.550  19.655  0.00  0.00    +0.000 A 
ATOM     14  C   UNL     1      -2.338  11.805  18.532  0.00  0.00    +0.000 A 
ENDBRANCH   7  14
ENDBRANCH   2   7
ENDBRANCH   1   5
BRANCH   1  15
ATOM     15  N   UNL     1       2.172   7.023  18.090  0.00  0.00    +0.000 N 
ATOM     16  H   UNL     1       2.113   7.357  17.134  0.00  0.00    +0.000 HD
BRANCH  15  17
ATOM     17  C   UNL     1       3.259   6.137  18.172  0.00  0.00    +0.000 A 
ATOM     18  N   UNL     1       4.469   6.554  17.762  0.00  0.00    +0.000 NA
ATOM     19  C   UNL     1       5.482   5.685  17.886  0.00  0.00    +0.000 A 
ATOM     20  N   UNL     1       5.410   4.455  18.408  0.00  0.00    +0.000 NA
ATOM     21  C   UNL     1       4.194   4.061  18.831  0.00  0.00    +0.000 A 
ATOM     22  C   UNL     1       3.059   4.857  18.706  0.00  0.00    +0.000 A 
ATOM     23  C   UNL     1       1.712   4.330  19.139  0.00  0.00    +0.000 C 
ATOM     24  C   UNL     1       1.271   3.083  18.346  0.00  0.00    +0.000 C 
ATOM     25  N   UNL     1       1.861   1.817  18.796  0.00  0.00    +0.000 NA
ATOM     26  C   UNL     1       3.308   1.729  18.564  0.00  0.00    +0.000 C 
ATOM     27  C   UNL     1       4.125   2.684  19.434  0.00  0.00    +0.000 C 
ATOM     28  H   UNL     1       1.412   1.052  18.290  0.00  0.00    +0.000 HD
ENDBRANCH  15  17
ENDBRANCH   1  15
TORSDOF 5
ENDMDL
