MODEL 1
REMARK VINA RESULT:      -6.6      0.000      0.000
REMARK  Name = 
REMARK  8 active torsions:
REMARK  status: ('A' for Active; 'I' for Inactive)
REMARK    1  A    between atoms: C_1  and  C_2
REMARK    2  A    between atoms: C_2  and  C_3
REMARK    3  A    between atoms: C_2  and  C_4
REMARK    4  A    between atoms: C_2  and  C_5
REMARK    5  A    between atoms: C_8  and  C_9
REMARK    6  A    between atoms: C_9  and  O_11
REMARK    7  A    between atoms: C_19  and  C_20
REMARK    8  A    between atoms: C_20  and  C_21
REMARK                            x       y       z     vdW  Elec       q    Type
REMARK                         _______ _______ _______ _____ _____    ______ ____
ROOT
ATOM      1  C   UNL     1       1.231  13.504  19.121  0.00  0.00    +0.000 C 
ATOM      2  O   UNL     1       2.148  12.768  18.729  0.00  0.00    +0.000 OA
ATOM      3  N   UNL     1       0.014  12.898  19.478  0.00  0.00    +0.000 N 
ATOM      4  C   UNL     1      -1.178  13.583  20.079  0.00  0.00    +0.000 C 
ATOM      5  C   UNL     1      -2.417  12.681  20.252  0.00  0.00    +0.000 C 
ATOM      6  C   UNL     1      -2.686  11.863  19.036  0.00  0.00    +0.000 A 
ATOM      7  C   UNL     1      -3.993  11.605  18.608  0.00  0.00    +0.000 A 
ATOM      8  C   UNL     1      -4.211  10.791  17.500  0.00  0.00    +0.000 A 
ATOM      9  C   UNL     1      -3.129  10.237  16.821  0.00  0.00    +0.000 A 
ATOM     10  C   UNL     1      -1.827  10.495  17.254  0.00  0.00    +0.000 A 
ATOM     11  C   UNL     1      -1.592  11.296  18.374  0.00  0.00    +0.000 A 
ATOM     12  C   UNL     1      -0.187  11.492  18.933  0.00  0.00    +0.000 C 
ENDROOT
BRANCH   1  14
ATOM     13  C   UNL     1       2.735  15.366  18.223  0.00  0.00    +0.000 C 
ATOM     14  C   UNL     1       1.520  15.057  19.156  0.00  0.00    +0.000 C 
ATOM     15  C   UNL     1       1.986  15.583  20.520  0.00  0.00    +0.000 C 
ATOM     16  C   UNL     1       0.358  15.892  18.589  0.00  0.00    +0.000 C 
ENDBRANCH   1  14
BRANCH   4  17
ATOM     17  C   UNL     1      -1.058  14.167  21.484  0.00  0.00    +0.000 C 
ATOM     18  O   UNL     1      -0.450  13.644  22.408  0.00  0.00    +0.000 OA
BRANCH  17  19
ATOM     19  O   UNL     1      -1.575  15.399  21.639  0.00  0.00    +0.000 OA
ATOM     20  H   UNL     1      -1.495  15.796  20.745  0.00  0.00    +0.000 HD
ENDBRANCH  17  19
ENDBRANCH   4  17
BRANCH  12  21
ATOM     21  C   UNL     1       0.189  10.401  19.974  0.00  0.00    +0.000 C 
BRANCH  21  22
ATOM     22  C   UNL     1       1.105   9.282  19.487  0.00  0.00    +0.000 A 
ATOM     23  C   UNL     1       1.452   8.204  20.316  0.00  0.00    +0.000 A 
ATOM     24  C   UNL     1       2.263   7.165  19.840  0.00  0.00    +0.000 A 
ATOM     25  C   UNL     1       2.737   7.184  18.530  0.00  0.00    +0.000 A 
ATOM     26  C   UNL     1       2.407   8.249  17.698  0.00  0.00    +0.000 A 
ATOM     27  C   UNL     1       1.601   9.291  18.172  0.00  0.00    +0.000 A 
ENDBRANCH  21  22
ENDBRANCH  12  21
TORSDOF 5
ENDMDL
MODEL 2
REMARK VINA RESULT:      -6.5      0.516      1.141
REMARK  Name = 
REMARK  8 active torsions:
REMARK  status: ('A' for Active; 'I' for Inactive)
REMARK    1  A    between atoms: C_1  and  C_2
REMARK    2  A    between atoms: C_2  and  C_3
REMARK    3  A    between atoms: C_2  and  C_4
REMARK    4  A    between atoms: C_2  and  C_5
REMARK    5  A    between atoms: C_8  and  C_9
REMARK    6  A    between atoms: C_9  and  O_11
REMARK    7  A    between atoms: C_19  and  C_20
REMARK    8  A    between atoms: C_20  and  C_21
REMARK                            x       y       z     vdW  Elec       q    Type
REMARK                         _______ _______ _______ _____ _____    ______ ____
ROOT
ATOM      1  C   UNL     1       1.658  13.159  18.891  0.00  0.00    +0.000 C 
ATOM      2  O   UNL     1       2.532  12.374  18.497  0.00  0.00    +0.000 OA
ATOM      3  N   UNL     1       0.429  12.616  19.304  0.00  0.00    +0.000 N 
ATOM      4  C   UNL     1      -0.716  13.369  19.916  0.00  0.00    +0.000 C 
ATOM      5  C   UNL     1      -1.984  12.524  20.157  0.00  0.00    +0.000 C 
ATOM      6  C   UNL     1      -2.322  11.676  18.979  0.00  0.00    +0.000 A 
ATOM      7  C   UNL     1      -3.650  11.457  18.599  0.00  0.00    +0.000 A 
ATOM      8  C   UNL     1      -3.935  10.615  17.528  0.00  0.00    +0.000 A 
ATOM      9  C   UNL     1      -2.897   9.995  16.837  0.00  0.00    +0.000 A 
ATOM     10  C   UNL     1      -1.572  10.215  17.222  0.00  0.00    +0.000 A 
ATOM     11  C   UNL     1      -1.272  11.043  18.306  0.00  0.00    +0.000 A 
ATOM     12  C   UNL     1       0.157  11.201  18.816  0.00  0.00    +0.000 C 
ENDROOT
BRANCH   1  14
ATOM     13  C   UNL     1       2.523  15.128  20.274  0.00  0.00    +0.000 C 
ATOM     14  C   UNL     1       2.009  14.699  18.861  0.00  0.00    +0.000 C 
ATOM     15  C   UNL     1       0.801  15.619  18.637  0.00  0.00    +0.000 C 
ATOM     16  C   UNL     1       3.163  15.030  17.898  0.00  0.00    +0.000 C 
ENDBRANCH   1  14
BRANCH   4  17
ATOM     17  C   UNL     1      -0.529  13.995  21.295  0.00  0.00    +0.000 C 
ATOM     18  O   UNL     1      -1.034  15.048  21.659  0.00  0.00    +0.000 OA
BRANCH  17  19
ATOM     19  O   UNL     1       0.153  13.243  22.178  0.00  0.00    +0.000 OA
ATOM     20  H   UNL     1       0.582  13.905  22.761  0.00  0.00    +0.000 HD
ENDBRANCH  17  19
ENDBRANCH   4  17
BRANCH  12  21
ATOM     21  C   UNL     1       0.521  10.132  19.883  0.00  0.00    +0.000 C 
BRANCH  21  22
ATOM     22  C   UNL     1       1.393   8.971  19.414  0.00  0.00    +0.000 A 
ATOM     23  C   UNL     1       1.651   7.866  20.240  0.00  0.00    +0.000 A 
ATOM     24  C   UNL     1       2.422   6.790  19.779  0.00  0.00    +0.000 A 
ATOM     25  C   UNL     1       2.944   6.799  18.487  0.00  0.00    +0.000 A 
ATOM     26  C   UNL     1       2.702   7.891  17.659  0.00  0.00    +0.000 A 
ATOM     27  C   UNL     1       1.937   8.969  18.118  0.00  0.00    +0.000 A 
ENDBRANCH  21  22
ENDBRANCH  12  21
TORSDOF 5
ENDMDL
MODEL 3
REMARK VINA RESULT:      -6.5      4.936      9.361
REMARK  Name = 
REMARK  8 active torsions:
REMARK  status: ('A' for Active; 'I' for Inactive)
REMARK    1  A    between atoms: C_1  and  C_2
REMARK    2  A    between atoms: C_2  and  C_3
REMARK    3  A    between atoms: C_2  and  C_4
REMARK    4  A    between atoms: C_2  and  C_5
REMARK    5  A    between atoms: C_8  and  C_9
REMARK    6  A    between atoms: C_9  and  O_11
REMARK    7  A    between atoms: C_19  and  C_20
REMARK    8  A    between atoms: C_20  and  C_21
REMARK                            x       y       z     vdW  Elec       q    Type
REMARK                         _______ _______ _______ _____ _____    ______ ____
ROOT
ATOM      1  C   UNL     1       5.758   6.352  18.035  0.00  0.00    +0.000 C 
ATOM      2  O   UNL     1       5.488   7.487  18.453  0.00  0.00    +0.000 OA
ATOM      3  N   UNL     1       4.712   5.415  17.966  0.00  0.00    +0.000 N 
ATOM      4  C   UNL     1       4.794   4.031  17.390  0.00  0.00    +0.000 C 
ATOM      5  C   UNL     1       3.514   3.188  17.563  0.00  0.00    +0.000 C 
ATOM      6  C   UNL     1       2.966   3.282  18.946  0.00  0.00    +0.000 A 
ATOM      7  C   UNL     1       2.394   2.173  19.578  0.00  0.00    +0.000 A 
ATOM      8  C   UNL     1       1.840   2.308  20.848  0.00  0.00    +0.000 A 
ATOM      9  C   UNL     1       1.860   3.546  21.486  0.00  0.00    +0.000 A 
ATOM     10  C   UNL     1       2.430   4.651  20.849  0.00  0.00    +0.000 A 
ATOM     11  C   UNL     1       2.973   4.534  19.568  0.00  0.00    +0.000 A 
ATOM     12  C   UNL     1       3.492   5.752  18.810  0.00  0.00    +0.000 C 
ENDROOT
BRANCH   1  14
ATOM     13  C   UNL     1       8.163   7.193  18.250  0.00  0.00    +0.000 C 
ATOM     14  C   UNL     1       7.262   6.068  17.645  0.00  0.00    +0.000 C 
ATOM     15  C   UNL     1       7.554   6.159  16.141  0.00  0.00    +0.000 C 
ATOM     16  C   UNL     1       7.798   4.757  18.251  0.00  0.00    +0.000 C 
ENDBRANCH   1  14
BRANCH   4  17
ATOM     17  C   UNL     1       5.033   3.873  15.891  0.00  0.00    +0.000 C 
ATOM     18  O   UNL     1       4.622   4.643  15.033  0.00  0.00    +0.000 OA
BRANCH  17  19
ATOM     19  O   UNL     1       5.856   2.867  15.545  0.00  0.00    +0.000 OA
ATOM     20  H   UNL     1       6.243   3.168  14.696  0.00  0.00    +0.000 HD
ENDBRANCH  17  19
ENDBRANCH   4  17
BRANCH  12  21
ATOM     21  C   UNL     1       2.378   6.444  17.977  0.00  0.00    +0.000 C 
BRANCH  21  22
ATOM     22  C   UNL     1       1.875   7.788  18.497  0.00  0.00    +0.000 A 
ATOM     23  C   UNL     1       1.619   8.862  17.630  0.00  0.00    +0.000 A 
ATOM     24  C   UNL     1       1.122  10.077  18.119  0.00  0.00    +0.000 A 
ATOM     25  C   UNL     1       0.869  10.238  19.480  0.00  0.00    +0.000 A 
ATOM     26  C   UNL     1       1.125   9.185  20.354  0.00  0.00    +0.000 A 
ATOM     27  C   UNL     1       1.627   7.972  19.868  0.00  0.00    +0.000 A 
ENDBRANCH  21  22
ENDBRANCH  12  21
TORSDOF 5
ENDMDL
MODEL 4
REMARK VINA RESULT:      -6.4      0.325      1.449
REMARK  Name = 
REMARK  8 active torsions:
REMARK  status: ('A' for Active; 'I' for Inactive)
REMARK    1  A    between atoms: C_1  and  C_2
REMARK    2  A    between atoms: C_2  and  C_3
REMARK    3  A    between atoms: C_2  and  C_4
REMARK    4  A    between atoms: C_2  and  C_5
REMARK    5  A    between atoms: C_8  and  C_9
REMARK    6  A    between atoms: C_9  and  O_11
REMARK    7  A    between atoms: C_19  and  C_20
REMARK    8  A    between atoms: C_20  and  C_21
REMARK                            x       y       z     vdW  Elec       q    Type
REMARK                         _______ _______ _______ _____ _____    ______ ____
ROOT
ATOM      1  C   UNL     1       1.508  13.274  19.037  0.00  0.00    +0.000 C 
ATOM      2  O   UNL     1       2.390  12.508  18.622  0.00  0.00    +0.000 OA
ATOM      3  N   UNL     1       0.278  12.710  19.415  0.00  0.00    +0.000 N 
ATOM      4  C   UNL     1      -0.877  13.432  20.043  0.00  0.00    +0.000 C 
ATOM      5  C   UNL     1      -2.144  12.573  20.236  0.00  0.00    +0.000 C 
ATOM      6  C   UNL     1      -2.466  11.773  19.021  0.00  0.00    +0.000 A 
ATOM      7  C   UNL     1      -3.789  11.565  18.618  0.00  0.00    +0.000 A 
ATOM      8  C   UNL     1      -4.058  10.765  17.510  0.00  0.00    +0.000 A 
ATOM      9  C   UNL     1      -3.010  10.178  16.807  0.00  0.00    +0.000 A 
ATOM     10  C   UNL     1      -1.691  10.387  17.215  0.00  0.00    +0.000 A 
ATOM     11  C   UNL     1      -1.406  11.172  18.335  0.00  0.00    +0.000 A 
ATOM     12  C   UNL     1       0.016  11.314  18.866  0.00  0.00    +0.000 C 
ENDROOT
BRANCH   1  14
ATOM     13  C   UNL     1       0.587  15.627  18.647  0.00  0.00    +0.000 C 
ATOM     14  C   UNL     1       1.853  14.815  19.074  0.00  0.00    +0.000 C 
ATOM     15  C   UNL     1       2.909  15.252  18.049  0.00  0.00    +0.000 C 
ATOM     16  C   UNL     1       2.191  15.317  20.490  0.00  0.00    +0.000 C 
ENDBRANCH   1  14
BRANCH   4  17
ATOM     17  C   UNL     1      -0.708  14.002  21.449  0.00  0.00    +0.000 C 
ATOM     18  O   UNL     1      -1.211  15.045  21.845  0.00  0.00    +0.000 OA
BRANCH  17  19
ATOM     19  O   UNL     1      -0.048  13.210  22.313  0.00  0.00    +0.000 OA
ATOM     20  H   UNL     1       0.080  13.783  23.099  0.00  0.00    +0.000 HD
ENDBRANCH  17  19
ENDBRANCH   4  17
BRANCH  12  21
ATOM     21  C   UNL     1       0.374  10.205  19.893  0.00  0.00    +0.000 C 
BRANCH  21  22
ATOM     22  C   UNL     1       1.241   9.057  19.382  0.00  0.00    +0.000 A 
ATOM     23  C   UNL     1       1.759   9.054  18.078  0.00  0.00    +0.000 A 
ATOM     24  C   UNL     1       2.585   8.011  17.637  0.00  0.00    +0.000 A 
ATOM     25  C   UNL     1       2.907   6.958  18.490  0.00  0.00    +0.000 A 
ATOM     26  C   UNL     1       2.394   6.943  19.784  0.00  0.00    +0.000 A 
ATOM     27  C   UNL     1       1.565   7.982  20.225  0.00  0.00    +0.000 A 
ENDBRANCH  21  22
ENDBRANCH  12  21
TORSDOF 5
ENDMDL
MODEL 5
REMARK VINA RESULT:      -6.3      4.944      9.291
REMARK  Name = 
REMARK  8 active torsions:
REMARK  status: ('A' for Active; 'I' for Inactive)
REMARK    1  A    between atoms: C_1  and  C_2
REMARK    2  A    between atoms: C_2  and  C_3
REMARK    3  A    between atoms: C_2  and  C_4
REMARK    4  A    between atoms: C_2  and  C_5
REMARK    5  A    between atoms: C_8  and  C_9
REMARK    6  A    between atoms: C_9  and  O_11
REMARK    7  A    between atoms: C_19  and  C_20
REMARK    8  A    between atoms: C_20  and  C_21
REMARK                            x       y       z     vdW  Elec       q    Type
REMARK                         _______ _______ _______ _____ _____    ______ ____
ROOT
ATOM      1  C   UNL     1       5.759   6.361  18.101  0.00  0.00    +0.000 C 
ATOM      2  O   UNL     1       5.477   7.493  18.521  0.00  0.00    +0.000 OA
ATOM      3  N   UNL     1       4.718   5.422  18.005  0.00  0.00    +0.000 N 
ATOM      4  C   UNL     1       4.814   4.042  17.423  0.00  0.00    +0.000 C 
ATOM      5  C   UNL     1       3.534   3.194  17.564  0.00  0.00    +0.000 C 
ATOM      6  C   UNL     1       2.957   3.279  18.936  0.00  0.00    +0.000 A 
ATOM      7  C   UNL     1       2.375   2.164  19.549  0.00  0.00    +0.000 A 
ATOM      8  C   UNL     1       1.796   2.290  20.809  0.00  0.00    +0.000 A 
ATOM      9  C   UNL     1       1.799   3.524  21.454  0.00  0.00    +0.000 A 
ATOM     10  C   UNL     1       2.379   4.634  20.837  0.00  0.00    +0.000 A 
ATOM     11  C   UNL     1       2.949   4.527  19.566  0.00  0.00    +0.000 A 
ATOM     12  C   UNL     1       3.479   5.751  18.826  0.00  0.00    +0.000 C 
ENDROOT
BRANCH   1  14
ATOM     13  C   UNL     1       7.447   6.175  16.190  0.00  0.00    +0.000 C 
ATOM     14  C   UNL     1       7.272   6.083  17.740  0.00  0.00    +0.000 C 
ATOM     15  C   UNL     1       7.747   4.659  18.060  0.00  0.00    +0.000 C 
ATOM     16  C   UNL     1       8.227   7.145  18.316  0.00  0.00    +0.000 C 
ENDBRANCH   1  14
BRANCH   4  17
ATOM     17  C   UNL     1       5.085   3.894  15.928  0.00  0.00    +0.000 C 
ATOM     18  O   UNL     1       4.634   4.629  15.060  0.00  0.00    +0.000 OA
BRANCH  17  19
ATOM     19  O   UNL     1       5.979   2.945  15.599  0.00  0.00    +0.000 OA
ATOM     20  H   UNL     1       6.540   2.869  16.401  0.00  0.00    +0.000 HD
ENDBRANCH  17  19
ENDBRANCH   4  17
BRANCH  12  21
ATOM     21  C   UNL     1       2.380   6.445  17.975  0.00  0.00    +0.000 C 
BRANCH  21  22
ATOM     22  C   UNL     1       1.869   7.789  18.488  0.00  0.00    +0.000 A 
ATOM     23  C   UNL     1       1.521   7.976  19.835  0.00  0.00    +0.000 A 
ATOM     24  C   UNL     1       1.090   9.226  20.297  0.00  0.00    +0.000 A 
ATOM     25  C   UNL     1       1.003  10.309  19.424  0.00  0.00    +0.000 A 
ATOM     26  C   UNL     1       1.337  10.137  18.084  0.00  0.00    +0.000 A 
ATOM     27  C   UNL     1       1.764   8.887  17.619  0.00  0.00    +0.000 A 
ENDBRANCH  21  22
ENDBRANCH  12  21
TORSDOF 5
ENDMDL
MODEL 6
REMARK VINA RESULT:      -5.9      4.916      9.230
REMARK  Name = 
REMARK  8 active torsions:
REMARK  status: ('A' for Active; 'I' for Inactive)
REMARK    1  A    between atoms: C_1  and  C_2
REMARK    2  A    between atoms: C_2  and  C_3
REMARK    3  A    between atoms: C_2  and  C_4
REMARK    4  A    between atoms: C_2  and  C_5
REMARK    5  A    between atoms: C_8  and  C_9
REMARK    6  A    between atoms: C_9  and  O_11
REMARK    7  A    between atoms: C_19  and  C_20
REMARK    8  A    between atoms: C_20  and  C_21
REMARK                            x       y       z     vdW  Elec       q    Type
REMARK                         _______ _______ _______ _____ _____    ______ ____
ROOT
ATOM      1  C   UNL     1       5.813   6.424  18.050  0.00  0.00    +0.000 C 
ATOM      2  O   UNL     1       5.538   7.553  18.481  0.00  0.00    +0.000 OA
ATOM      3  N   UNL     1       4.761   5.500  17.921  0.00  0.00    +0.000 N 
ATOM      4  C   UNL     1       4.850   4.128  17.320  0.00  0.00    +0.000 C 
ATOM      5  C   UNL     1       3.556   3.296  17.426  0.00  0.00    +0.000 C 
ATOM      6  C   UNL     1       2.956   3.368  18.788  0.00  0.00    +0.000 A 
ATOM      7  C   UNL     1       2.348   2.252  19.374  0.00  0.00    +0.000 A 
ATOM      8  C   UNL     1       1.748   2.367  20.625  0.00  0.00    +0.000 A 
ATOM      9  C   UNL     1       1.755   3.591  21.289  0.00  0.00    +0.000 A 
ATOM     10  C   UNL     1       2.361   4.702  20.698  0.00  0.00    +0.000 A 
ATOM     11  C   UNL     1       2.952   4.606  19.436  0.00  0.00    +0.000 A 
ATOM     12  C   UNL     1       3.512   5.834  18.725  0.00  0.00    +0.000 C 
ENDROOT
BRANCH   1  14
ATOM     13  C   UNL     1       8.211   7.263  18.330  0.00  0.00    +0.000 C 
ATOM     14  C   UNL     1       7.328   6.132  17.713  0.00  0.00    +0.000 C 
ATOM     15  C   UNL     1       7.668   6.202  16.218  0.00  0.00    +0.000 C 
ATOM     16  C   UNL     1       7.841   4.829  18.353  0.00  0.00    +0.000 C 
ENDBRANCH   1  14
BRANCH   4  17
ATOM     17  C   UNL     1       5.146   3.999  15.828  0.00  0.00    +0.000 C 
ATOM     18  O   UNL     1       5.666   3.025  15.301  0.00  0.00    +0.000 OA
BRANCH  17  19
ATOM     19  O   UNL     1       4.679   5.002  15.063  0.00  0.00    +0.000 OA
ATOM     20  H   UNL     1       4.695   4.626  14.157  0.00  0.00    +0.000 HD
ENDBRANCH  17  19
ENDBRANCH   4  17
BRANCH  12  21
ATOM     21  C   UNL     1       2.438   6.555  17.865  0.00  0.00    +0.000 C 
BRANCH  21  22
ATOM     22  C   UNL     1       1.873   7.855  18.431  0.00  0.00    +0.000 A 
ATOM     23  C   UNL     1       1.597   8.000  19.799  0.00  0.00    +0.000 A 
ATOM     24  C   UNL     1       1.114   9.213  20.309  0.00  0.00    +0.000 A 
ATOM     25  C   UNL     1       0.902  10.299  19.462  0.00  0.00    +0.000 A 
ATOM     26  C   UNL     1       1.164  10.168  18.101  0.00  0.00    +0.000 A 
ATOM     27  C   UNL     1       1.642   8.956  17.589  0.00  0.00    +0.000 A 
ENDBRANCH  21  22
ENDBRANCH  12  21
TORSDOF 5
ENDMDL
MODEL 7
REMARK VINA RESULT:      -5.8      2.383      6.721
REMARK  Name = 
REMARK  8 active torsions:
REMARK  status: ('A' for Active; 'I' for Inactive)
REMARK    1  A    between atoms: C_1  and  C_2
REMARK    2  A    between atoms: C_2  and  C_3
REMARK    3  A    between atoms: C_2  and  C_4
REMARK    4  A    between atoms: C_2  and  C_5
REMARK    5  A    between atoms: C_8  and  C_9
REMARK    6  A    between atoms: C_9  and  O_11
REMARK    7  A    between atoms: C_19  and  C_20
REMARK    8  A    between atoms: C_20  and  C_21
REMARK                            x       y       z     vdW  Elec       q    Type
REMARK                         _______ _______ _______ _____ _____    ______ ____
ROOT
ATOM      1  C   UNL     1      -2.993  11.876  18.787  0.00  0.00    +0.000 C 
ATOM      2  O   UNL     1      -3.935  12.291  19.476  0.00  0.00    +0.000 OA
ATOM      3  N   UNL     1      -1.694  12.278  19.145  0.00  0.00    +0.000 N 
ATOM      4  C   UNL     1      -0.413  11.807  18.522  0.00  0.00    +0.000 C 
ATOM      5  C   UNL     1       0.853  12.517  19.044  0.00  0.00    +0.000 C 
ATOM      6  C   UNL     1       0.675  13.994  19.118  0.00  0.00    +0.000 A 
ATOM      7  C   UNL     1       1.719  14.869  18.800  0.00  0.00    +0.000 A 
ATOM      8  C   UNL     1       1.537  16.243  18.933  0.00  0.00    +0.000 A 
ATOM      9  C   UNL     1       0.316  16.741  19.381  0.00  0.00    +0.000 A 
ATOM     10  C   UNL     1      -0.722  15.864  19.699  0.00  0.00    +0.000 A 
ATOM     11  C   UNL     1      -0.549  14.482  19.587  0.00  0.00    +0.000 A 
ATOM     12  C   UNL     1      -1.628  13.505  20.043  0.00  0.00    +0.000 C 
ENDROOT
BRANCH   1  14
ATOM     13  C   UNL     1      -4.862  11.150  17.201  0.00  0.00    +0.000 C 
ATOM     14  C   UNL     1      -3.353  10.953  17.556  0.00  0.00    +0.000 C 
ATOM     15  C   UNL     1      -3.257   9.449  17.844  0.00  0.00    +0.000 C 
ATOM     16  C   UNL     1      -2.587  11.339  16.277  0.00  0.00    +0.000 C 
ENDBRANCH   1  14
BRANCH   4  17
ATOM     17  C   UNL     1      -0.007  10.346  18.695  0.00  0.00    +0.000 C 
ATOM     18  O   UNL     1      -0.138   9.702  19.727  0.00  0.00    +0.000 OA
BRANCH  17  19
ATOM     19  O   UNL     1       0.412   9.732  17.574  0.00  0.00    +0.000 OA
ATOM     20  H   UNL     1      -0.419   9.551  17.086  0.00  0.00    +0.000 HD
ENDBRANCH  17  19
ENDBRANCH   4  17
BRANCH  12  21
ATOM     21  C   UNL     1      -1.482  13.126  21.543  0.00  0.00    +0.000 C 
BRANCH  21  22
ATOM     22  C   UNL     1      -2.717  13.324  22.418  0.00  0.00    +0.000 A 
ATOM     23  C   UNL     1      -3.584  14.411  22.229  0.00  0.00    +0.000 A 
ATOM     24  C   UNL     1      -4.734  14.557  23.016  0.00  0.00    +0.000 A 
ATOM     25  C   UNL     1      -5.037  13.619  24.001  0.00  0.00    +0.000 A 
ATOM     26  C   UNL     1      -4.183  12.540  24.206  0.00  0.00    +0.000 A 
ATOM     27  C   UNL     1      -3.031  12.395  23.423  0.00  0.00    +0.000 A 
ENDBRANCH  21  22
ENDBRANCH  12  21
TORSDOF 5
ENDMDL
MODEL 8
REMARK VINA RESULT:      -5.8      3.268      6.347
REMARK  Name = 
REMARK  8 active torsions:
REMARK  status: ('A' for Active; 'I' for Inactive)
REMARK    1  A    between atoms: C_1  and  C_2
REMARK    2  A    between atoms: C_2  and  C_3
REMARK    3  A    between atoms: C_2  and  C_4
REMARK    4  A    between atoms: C_2  and  C_5
REMARK    5  A    between atoms: C_8  and  C_9
REMARK    6  A    between atoms: C_9  and  O_11
REMARK    7  A    between atoms: C_19  and  C_20
REMARK    8  A    between atoms: C_20  and  C_21
REMARK                            x       y       z     vdW  Elec       q    Type
REMARK                         _______ _______ _______ _____ _____    ______ ____
ROOT
ATOM      1  C   UNL     1       1.363   9.121  18.442  0.00  0.00    +0.000 C 
ATOM      2  O   UNL     1       2.028   9.289  17.409  0.00  0.00    +0.000 OA
ATOM      3  N   UNL     1       1.665   8.003  19.239  0.00  0.00    +0.000 N 
ATOM      4  C   UNL     1       1.066   7.675  20.575  0.00  0.00    +0.000 C 
ATOM      5  C   UNL     1       1.504   6.316  21.159  0.00  0.00    +0.000 C 
ATOM      6  C   UNL     1       1.453   5.228  20.142  0.00  0.00    +0.000 A 
ATOM      7  C   UNL     1       1.045   3.935  20.482  0.00  0.00    +0.000 A 
ATOM      8  C   UNL     1       1.061   2.927  19.521  0.00  0.00    +0.000 A 
ATOM      9  C   UNL     1       1.483   3.212  18.224  0.00  0.00    +0.000 A 
ATOM     10  C   UNL     1       1.892   4.505  17.891  0.00  0.00    +0.000 A 
ATOM     11  C   UNL     1       1.897   5.521  18.849  0.00  0.00    +0.000 A 
ATOM     12  C   UNL     1       2.452   6.907  18.535  0.00  0.00    +0.000 C 
ENDROOT
BRANCH   1  14
ATOM     13  C   UNL     1      -0.736  10.243  17.510  0.00  0.00    +0.000 C 
ATOM     14  C   UNL     1       0.223  10.172  18.742  0.00  0.00    +0.000 C 
ATOM     15  C   UNL     1       0.717  11.618  18.882  0.00  0.00    +0.000 C 
ATOM     16  C   UNL     1      -0.673   9.759  19.924  0.00  0.00    +0.000 C 
ENDBRANCH   1  14
BRANCH   4  17
ATOM     17  C   UNL     1       1.358   8.596  21.757  0.00  0.00    +0.000 C 
ATOM     18  O   UNL     1       0.583   8.819  22.677  0.00  0.00    +0.000 OA
BRANCH  17  19
ATOM     19  O   UNL     1       2.610   9.084  21.806  0.00  0.00    +0.000 OA
ATOM     20  H   UNL     1       2.513   9.916  22.316  0.00  0.00    +0.000 HD
ENDBRANCH  17  19
ENDBRANCH   4  17
BRANCH  12  21
ATOM     21  C   UNL     1       3.977   7.007  18.818  0.00  0.00    +0.000 C 
BRANCH  21  22
ATOM     22  C   UNL     1       4.895   6.228  17.882  0.00  0.00    +0.000 A 
ATOM     23  C   UNL     1       4.791   6.344  16.487  0.00  0.00    +0.000 A 
ATOM     24  C   UNL     1       5.668   5.651  15.642  0.00  0.00    +0.000 A 
ATOM     25  C   UNL     1       6.663   4.834  16.175  0.00  0.00    +0.000 A 
ATOM     26  C   UNL     1       6.774   4.702  17.556  0.00  0.00    +0.000 A 
ATOM     27  C   UNL     1       5.896   5.390  18.402  0.00  0.00    +0.000 A 
ENDBRANCH  21  22
ENDBRANCH  12  21
TORSDOF 5
ENDMDL
MODEL 9
REMARK VINA RESULT:      -5.8      3.347      6.343
REMARK  Name = 
REMARK  8 active torsions:
REMARK  status: ('A' for Active; 'I' for Inactive)
REMARK    1  A    between atoms: C_1  and  C_2
REMARK    2  A    between atoms: C_2  and  C_3
REMARK    3  A    between atoms: C_2  and  C_4
REMARK    4  A    between atoms: C_2  and  C_5
REMARK    5  A    between atoms: C_8  and  C_9
REMARK    6  A    between atoms: C_9  and  O_11
REMARK    7  A    between atoms: C_19  and  C_20
REMARK    8  A    between atoms: C_20  and  C_21
REMARK                            x       y       z     vdW  Elec       q    Type
REMARK                         _______ _______ _______ _____ _____    ______ ____
ROOT
ATOM      1  C   UNL     1       1.435   9.015  18.391  0.00  0.00    +0.000 C 
ATOM      2  O   UNL     1       2.139   9.188  17.386  0.00  0.00    +0.000 OA
ATOM      3  N   UNL     1       1.703   7.891  19.192  0.00  0.00    +0.000 N 
ATOM      4  C   UNL     1       1.052   7.556  20.501  0.00  0.00    +0.000 C 
ATOM      5  C   UNL     1       1.465   6.192  21.093  0.00  0.00    +0.000 C 
ATOM      6  C   UNL     1       1.449   5.111  20.067  0.00  0.00    +0.000 A 
ATOM      7  C   UNL     1       1.025   3.817  20.382  0.00  0.00    +0.000 A 
ATOM      8  C   UNL     1       1.076   2.816  19.416  0.00  0.00    +0.000 A 
ATOM      9  C   UNL     1       1.547   3.107  18.138  0.00  0.00    +0.000 A 
ATOM     10  C   UNL     1       1.972   4.401  17.829  0.00  0.00    +0.000 A 
ATOM     11  C   UNL     1       1.943   5.411  18.794  0.00  0.00    +0.000 A 
ATOM     12  C   UNL     1       2.514   6.798  18.511  0.00  0.00    +0.000 C 
ENDROOT
BRANCH   1  14
ATOM     13  C   UNL     1       0.906  11.502  18.659  0.00  0.00    +0.000 C 
ATOM     14  C   UNL     1       0.286  10.067  18.654  0.00  0.00    +0.000 C 
ATOM     15  C   UNL     1      -0.360   9.963  20.042  0.00  0.00    +0.000 C 
ATOM     16  C   UNL     1      -0.770  10.091  17.534  0.00  0.00    +0.000 C 
ENDBRANCH   1  14
BRANCH   4  17
ATOM     17  C   UNL     1       1.302   8.468  21.699  0.00  0.00    +0.000 C 
ATOM     18  O   UNL     1       0.513   8.646  22.618  0.00  0.00    +0.000 OA
BRANCH  17  19
ATOM     19  O   UNL     1       2.534   9.003  21.765  0.00  0.00    +0.000 OA
ATOM     20  H   UNL     1       3.017   8.558  21.036  0.00  0.00    +0.000 HD
ENDBRANCH  17  19
ENDBRANCH   4  17
BRANCH  12  21
ATOM     21  C   UNL     1       4.026   6.892  18.853  0.00  0.00    +0.000 C 
BRANCH  21  22
ATOM     22  C   UNL     1       4.986   6.203  17.886  0.00  0.00    +0.000 A 
ATOM     23  C   UNL     1       6.054   5.417  18.347  0.00  0.00    +0.000 A 
ATOM     24  C   UNL     1       6.903   4.761  17.446  0.00  0.00    +0.000 A 
ATOM     25  C   UNL     1       6.699   4.877  16.073  0.00  0.00    +0.000 A 
ATOM     26  C   UNL     1       5.649   5.659  15.600  0.00  0.00    +0.000 A 
ATOM     27  C   UNL     1       4.802   6.319  16.498  0.00  0.00    +0.000 A 
ENDBRANCH  21  22
ENDBRANCH  12  21
TORSDOF 5
ENDMDL
