MODEL 1
REMARK VINA RESULT:      -8.8      0.000      0.000
REMARK  Name = 
REMARK  9 active torsions:
REMARK  status: ('A' for Active; 'I' for Inactive)
REMARK    1  A    between atoms: C_1  and  C_2
REMARK    2  A    between atoms: C_2  and  O_3
REMARK    3  A    between atoms: O_3  and  C_4
REMARK    4  A    between atoms: C_4  and  C_6
REMARK    5  A    between atoms: C_9  and  C_10
REMARK    6  A    between atoms: C_10  and  C_11
REMARK    7  A    between atoms: C_11  and  C_13
REMARK    8  A    between atoms: C_18  and  O_19
REMARK    9  A    between atoms: C_24  and  O_25
REMARK                            x       y       z     vdW  Elec       q    Type
REMARK                         _______ _______ _______ _____ _____    ______ ____
ROOT
ATOM      1  C   UNL     1       3.216   6.018  17.590  0.00  0.00    +0.000 C 
ATOM      2  C   UNL     1       4.733   6.155  17.596  0.00  0.00    +0.000 A 
ATOM      3  C   UNL     1       5.321   7.322  17.067  0.00  0.00    +0.000 A 
ATOM      4  C   UNL     1       6.704   7.497  17.088  0.00  0.00    +0.000 A 
ATOM      5  C   UNL     1       7.528   6.483  17.567  0.00  0.00    +0.000 A 
ATOM      6  C   UNL     1       6.960   5.322  18.094  0.00  0.00    +0.000 A 
ATOM      7  C   UNL     1       5.564   5.185  18.182  0.00  0.00    +0.000 A 
ATOM      8  C   UNL     1       4.942   4.092  18.977  0.00  0.00    +0.000 C 
ATOM      9  O   UNL     1       5.590   3.322  19.680  0.00  0.00    +0.000 OA
ATOM     10  C   UNL     1       3.475   3.912  18.944  0.00  0.00    +0.000 A 
ATOM     11  C   UNL     1       2.848   2.979  19.779  0.00  0.00    +0.000 A 
ATOM     12  C   UNL     1       1.494   2.700  19.634  0.00  0.00    +0.000 A 
ATOM     13  C   UNL     1       0.773   3.300  18.605  0.00  0.00    +0.000 A 
ATOM     14  C   UNL     1       1.376   4.279  17.812  0.00  0.00    +0.000 A 
ATOM     15  C   UNL     1       2.706   4.666  18.055  0.00  0.00    +0.000 A 
ENDROOT
BRANCH   1  16
ATOM     16  C   UNL     1       2.577   7.099  18.500  0.00  0.00    +0.000 C 
ATOM     17  O   UNL     1       2.645   7.031  19.732  0.00  0.00    +0.000 OA
BRANCH  16  18
ATOM     18  C   UNL     1       1.764   8.173  17.794  0.00  0.00    +0.000 C 
BRANCH  18  22
ATOM     19  C   UNL     1       0.949  11.638  20.238  0.00  0.00    +0.000 A 
ATOM     20  C   UNL     1       0.518  10.369  20.641  0.00  0.00    +0.000 A 
ATOM     21  C   UNL     1       0.768   9.251  19.842  0.00  0.00    +0.000 A 
ATOM     22  C   UNL     1       1.465   9.386  18.637  0.00  0.00    +0.000 A 
ATOM     23  C   UNL     1       1.872  10.662  18.221  0.00  0.00    +0.000 A 
ATOM     24  C   UNL     1       1.620  11.784  19.020  0.00  0.00    +0.000 A 
BRANCH  19  25
ATOM     25  C   UNL     1       0.620  12.791  21.117  0.00  0.00    +0.000 C 
ATOM     26  O   UNL     1       1.466  13.534  21.590  0.00  0.00    +0.000 OA
BRANCH  25  27
ATOM     27  O   UNL     1      -0.709  12.822  21.378  0.00  0.00    +0.000 OA
BRANCH  27  29
ATOM     28  C   UNL     1      -2.107  11.868  23.063  0.00  0.00    +0.000 C 
ATOM     29  C   UNL     1      -1.050  12.917  22.769  0.00  0.00    +0.000 C 
ENDBRANCH  27  29
ENDBRANCH  25  27
ENDBRANCH  19  25
ENDBRANCH  18  22
ENDBRANCH  16  18
ENDBRANCH   1  16
BRANCH   6  30
ATOM     30  O   UNL     1       7.791   4.319  18.507  0.00  0.00    +0.000 OA
ATOM     31  H   UNL     1       7.749   4.224  19.472  0.00  0.00    +0.000 HD
ENDBRANCH   6  30
BRANCH  11  32
ATOM     32  O   UNL     1       3.504   2.335  20.792  0.00  0.00    +0.000 OA
ATOM     33  H   UNL     1       3.806   3.026  21.428  0.00  0.00    +0.000 HD
ENDBRANCH  11  32
TORSDOF 8
ENDMDL
MODEL 2
REMARK VINA RESULT:      -8.6      0.953      1.369
REMARK  Name = 
REMARK  9 active torsions:
REMARK  status: ('A' for Active; 'I' for Inactive)
REMARK    1  A    between atoms: C_1  and  C_2
REMARK    2  A    between atoms: C_2  and  O_3
REMARK    3  A    between atoms: O_3  and  C_4
REMARK    4  A    between atoms: C_4  and  C_6
REMARK    5  A    between atoms: C_9  and  C_10
REMARK    6  A    between atoms: C_10  and  C_11
REMARK    7  A    between atoms: C_11  and  C_13
REMARK    8  A    between atoms: C_18  and  O_19
REMARK    9  A    between atoms: C_24  and  O_25
REMARK                            x       y       z     vdW  Elec       q    Type
REMARK                         _______ _______ _______ _____ _____    ______ ____
ROOT
ATOM      1  C   UNL     1       3.168   5.976  17.610  0.00  0.00    +0.000 C 
ATOM      2  C   UNL     1       4.684   6.123  17.599  0.00  0.00    +0.000 A 
ATOM      3  C   UNL     1       5.259   7.290  17.059  0.00  0.00    +0.000 A 
ATOM      4  C   UNL     1       6.641   7.474  17.064  0.00  0.00    +0.000 A 
ATOM      5  C   UNL     1       7.476   6.467  17.538  0.00  0.00    +0.000 A 
ATOM      6  C   UNL     1       6.921   5.304  18.076  0.00  0.00    +0.000 A 
ATOM      7  C   UNL     1       5.527   5.160  18.180  0.00  0.00    +0.000 A 
ATOM      8  C   UNL     1       4.921   4.067  18.986  0.00  0.00    +0.000 C 
ATOM      9  O   UNL     1       5.581   3.303  19.685  0.00  0.00    +0.000 OA
ATOM     10  C   UNL     1       3.454   3.878  18.970  0.00  0.00    +0.000 A 
ATOM     11  C   UNL     1       2.842   2.945  19.815  0.00  0.00    +0.000 A 
ATOM     12  C   UNL     1       1.488   2.657  19.687  0.00  0.00    +0.000 A 
ATOM     13  C   UNL     1       0.752   3.249  18.663  0.00  0.00    +0.000 A 
ATOM     14  C   UNL     1       1.341   4.227  17.860  0.00  0.00    +0.000 A 
ATOM     15  C   UNL     1       2.671   4.623  18.086  0.00  0.00    +0.000 A 
ENDROOT
BRANCH   1  16
ATOM     16  C   UNL     1       2.532   7.058  18.523  0.00  0.00    +0.000 C 
ATOM     17  O   UNL     1       2.653   7.020  19.752  0.00  0.00    +0.000 OA
BRANCH  16  18
ATOM     18  C   UNL     1       1.657   8.089  17.829  0.00  0.00    +0.000 C 
BRANCH  18  22
ATOM     19  C   UNL     1       1.238  11.785  20.022  0.00  0.00    +0.000 A 
ATOM     20  C   UNL     1       0.771  10.582  20.564  0.00  0.00    +0.000 A 
ATOM     21  C   UNL     1       0.892   9.389  19.846  0.00  0.00    +0.000 A 
ATOM     22  C   UNL     1       1.496   9.383  18.585  0.00  0.00    +0.000 A 
ATOM     23  C   UNL     1       1.938  10.593  18.032  0.00  0.00    +0.000 A 
ATOM     24  C   UNL     1       1.815  11.790  18.748  0.00  0.00    +0.000 A 
BRANCH  19  25
ATOM     25  C   UNL     1       1.046  13.023  20.821  0.00  0.00    +0.000 C 
ATOM     26  O   UNL     1       0.383  13.062  21.847  0.00  0.00    +0.000 OA
BRANCH  25  27
ATOM     27  O   UNL     1       1.618  14.081  20.199  0.00  0.00    +0.000 OA
BRANCH  27  29
ATOM     28  C   UNL     1      -0.132  15.058  18.900  0.00  0.00    +0.000 C 
ATOM     29  C   UNL     1       0.786  15.246  20.094  0.00  0.00    +0.000 C 
ENDBRANCH  27  29
ENDBRANCH  25  27
ENDBRANCH  19  25
ENDBRANCH  18  22
ENDBRANCH  16  18
ENDBRANCH   1  16
BRANCH   6  30
ATOM     30  O   UNL     1       7.762   4.309  18.484  0.00  0.00    +0.000 OA
ATOM     31  H   UNL     1       8.132   4.516  19.356  0.00  0.00    +0.000 HD
ENDBRANCH   6  30
BRANCH  11  32
ATOM     32  O   UNL     1       3.513   2.309  20.824  0.00  0.00    +0.000 OA
ATOM     33  H   UNL     1       4.012   2.999  21.321  0.00  0.00    +0.000 HD
ENDBRANCH  11  32
TORSDOF 8
ENDMDL
MODEL 3
REMARK VINA RESULT:      -8.6      2.128      2.545
REMARK  Name = 
REMARK  9 active torsions:
REMARK  status: ('A' for Active; 'I' for Inactive)
REMARK    1  A    between atoms: C_1  and  C_2
REMARK    2  A    between atoms: C_2  and  O_3
REMARK    3  A    between atoms: O_3  and  C_4
REMARK    4  A    between atoms: C_4  and  C_6
REMARK    5  A    between atoms: C_9  and  C_10
REMARK    6  A    between atoms: C_10  and  C_11
REMARK    7  A    between atoms: C_11  and  C_13
REMARK    8  A    between atoms: C_18  and  O_19
REMARK    9  A    between atoms: C_24  and  O_25
REMARK                            x       y       z     vdW  Elec       q    Type
REMARK                         _______ _______ _______ _____ _____    ______ ____
ROOT
ATOM      1  C   UNL     1       3.107   5.970  17.796  0.00  0.00    +0.000 C 
ATOM      2  C   UNL     1       4.622   6.072  17.684  0.00  0.00    +0.000 A 
ATOM      3  C   UNL     1       5.194   7.219  17.098  0.00  0.00    +0.000 A 
ATOM      4  C   UNL     1       6.578   7.362  17.011  0.00  0.00    +0.000 A 
ATOM      5  C   UNL     1       7.413   6.333  17.437  0.00  0.00    +0.000 A 
ATOM      6  C   UNL     1       6.862   5.191  18.019  0.00  0.00    +0.000 A 
ATOM      7  C   UNL     1       5.474   5.088  18.215  0.00  0.00    +0.000 A 
ATOM      8  C   UNL     1       4.891   4.018  19.068  0.00  0.00    +0.000 C 
ATOM      9  O   UNL     1       5.573   3.239  19.729  0.00  0.00    +0.000 OA
ATOM     10  C   UNL     1       3.421   3.872  19.151  0.00  0.00    +0.000 A 
ATOM     11  C   UNL     1       2.840   2.963  20.042  0.00  0.00    +0.000 A 
ATOM     12  C   UNL     1       1.473   2.714  20.005  0.00  0.00    +0.000 A 
ATOM     13  C   UNL     1       0.688   3.321  19.027  0.00  0.00    +0.000 A 
ATOM     14  C   UNL     1       1.250   4.277  18.179  0.00  0.00    +0.000 A 
ATOM     15  C   UNL     1       2.603   4.635  18.314  0.00  0.00    +0.000 A 
ENDROOT
BRANCH   1  16
ATOM     16  C   UNL     1       2.564   7.075  18.740  0.00  0.00    +0.000 C 
ATOM     17  O   UNL     1       2.060   6.801  19.835  0.00  0.00    +0.000 OA
BRANCH  16  18
ATOM     18  C   UNL     1       2.580   8.492  18.191  0.00  0.00    +0.000 C 
BRANCH  18  22
ATOM     19  C   UNL     1      -1.164  10.590  18.670  0.00  0.00    +0.000 A 
ATOM     20  C   UNL     1      -0.941   9.785  17.546  0.00  0.00    +0.000 A 
ATOM     21  C   UNL     1       0.277   9.120  17.384  0.00  0.00    +0.000 A 
ATOM     22  C   UNL     1       1.280   9.239  18.351  0.00  0.00    +0.000 A 
ATOM     23  C   UNL     1       1.066  10.068  19.462  0.00  0.00    +0.000 A 
ATOM     24  C   UNL     1      -0.153  10.737  19.625  0.00  0.00    +0.000 A 
BRANCH  19  25
ATOM     25  C   UNL     1      -2.467  11.299  18.764  0.00  0.00    +0.000 C 
ATOM     26  O   UNL     1      -2.645  12.280  19.469  0.00  0.00    +0.000 OA
BRANCH  25  27
ATOM     27  O   UNL     1      -3.413  10.647  18.048  0.00  0.00    +0.000 OA
BRANCH  27  29
ATOM     28  C   UNL     1      -3.831  10.968  15.718  0.00  0.00    +0.000 C 
ATOM     29  C   UNL     1      -4.141  11.464  17.119  0.00  0.00    +0.000 C 
ENDBRANCH  27  29
ENDBRANCH  25  27
ENDBRANCH  19  25
ENDBRANCH  18  22
ENDBRANCH  16  18
ENDBRANCH   1  16
BRANCH   6  30
ATOM     30  O   UNL     1       7.699   4.173  18.378  0.00  0.00    +0.000 OA
ATOM     31  H   UNL     1       8.606   4.366  18.092  0.00  0.00    +0.000 HD
ENDBRANCH   6  30
BRANCH  11  32
ATOM     32  O   UNL     1       3.558   2.313  21.009  0.00  0.00    +0.000 OA
ATOM     33  H   UNL     1       4.426   2.773  21.084  0.00  0.00    +0.000 HD
ENDBRANCH  11  32
TORSDOF 8
ENDMDL
MODEL 4
REMARK VINA RESULT:      -8.6      1.187      2.198
REMARK  Name = 
REMARK  9 active torsions:
REMARK  status: ('A' for Active; 'I' for Inactive)
REMARK    1  A    between atoms: C_1  and  C_2
REMARK    2  A    between atoms: C_2  and  O_3
REMARK    3  A    between atoms: O_3  and  C_4
REMARK    4  A    between atoms: C_4  and  C_6
REMARK    5  A    between atoms: C_9  and  C_10
REMARK    6  A    between atoms: C_10  and  C_11
REMARK    7  A    between atoms: C_11  and  C_13
REMARK    8  A    between atoms: C_18  and  O_19
REMARK    9  A    between atoms: C_24  and  O_25
REMARK                            x       y       z     vdW  Elec       q    Type
REMARK                         _______ _______ _______ _____ _____    ______ ____
ROOT
ATOM      1  C   UNL     1       3.158   5.951  17.609  0.00  0.00    +0.000 C 
ATOM      2  C   UNL     1       4.672   6.109  17.602  0.00  0.00    +0.000 A 
ATOM      3  C   UNL     1       5.241   7.279  17.060  0.00  0.00    +0.000 A 
ATOM      4  C   UNL     1       6.621   7.474  17.070  0.00  0.00    +0.000 A 
ATOM      5  C   UNL     1       7.462   6.474  17.550  0.00  0.00    +0.000 A 
ATOM      6  C   UNL     1       6.915   5.309  18.089  0.00  0.00    +0.000 A 
ATOM      7  C   UNL     1       5.521   5.154  18.189  0.00  0.00    +0.000 A 
ATOM      8  C   UNL     1       4.920   4.059  18.997  0.00  0.00    +0.000 C 
ATOM      9  O   UNL     1       5.584   3.303  19.701  0.00  0.00    +0.000 OA
ATOM     10  C   UNL     1       3.455   3.859  18.977  0.00  0.00    +0.000 A 
ATOM     11  C   UNL     1       2.847   2.924  19.823  0.00  0.00    +0.000 A 
ATOM     12  C   UNL     1       1.496   2.625  19.691  0.00  0.00    +0.000 A 
ATOM     13  C   UNL     1       0.759   3.208  18.662  0.00  0.00    +0.000 A 
ATOM     14  C   UNL     1       1.343   4.188  17.858  0.00  0.00    +0.000 A 
ATOM     15  C   UNL     1       2.669   4.595  18.087  0.00  0.00    +0.000 A 
ENDROOT
BRANCH   1  16
ATOM     16  C   UNL     1       2.510   7.030  18.516  0.00  0.00    +0.000 C 
ATOM     17  O   UNL     1       2.738   7.077  19.729  0.00  0.00    +0.000 OA
BRANCH  16  18
ATOM     18  C   UNL     1       1.494   7.943  17.848  0.00  0.00    +0.000 C 
BRANCH  18  22
ATOM     19  C   UNL     1       1.384  11.985  19.363  0.00  0.00    +0.000 A 
ATOM     20  C   UNL     1       2.253  11.642  18.321  0.00  0.00    +0.000 A 
ATOM     21  C   UNL     1       2.300  10.330  17.843  0.00  0.00    +0.000 A 
ATOM     22  C   UNL     1       1.467   9.349  18.390  0.00  0.00    +0.000 A 
ATOM     23  C   UNL     1       0.616   9.689  19.452  0.00  0.00    +0.000 A 
ATOM     24  C   UNL     1       0.570  11.002  19.934  0.00  0.00    +0.000 A 
BRANCH  19  25
ATOM     25  C   UNL     1       1.409  13.390  19.849  0.00  0.00    +0.000 C 
ATOM     26  O   UNL     1       0.456  13.926  20.394  0.00  0.00    +0.000 OA
BRANCH  25  27
ATOM     27  O   UNL     1       2.577  13.986  19.513  0.00  0.00    +0.000 OA
BRANCH  27  29
ATOM     28  C   UNL     1       3.346  15.275  17.655  0.00  0.00    +0.000 C 
ATOM     29  C   UNL     1       2.443  15.265  18.876  0.00  0.00    +0.000 C 
ENDBRANCH  27  29
ENDBRANCH  25  27
ENDBRANCH  19  25
ENDBRANCH  18  22
ENDBRANCH  16  18
ENDBRANCH   1  16
BRANCH   6  30
ATOM     30  O   UNL     1       7.762   4.321  18.503  0.00  0.00    +0.000 OA
ATOM     31  H   UNL     1       7.823   3.626  17.829  0.00  0.00    +0.000 HD
ENDBRANCH   6  30
BRANCH  11  32
ATOM     32  O   UNL     1       3.520   2.296  20.836  0.00  0.00    +0.000 OA
ATOM     33  H   UNL     1       2.949   1.557  21.150  0.00  0.00    +0.000 HD
ENDBRANCH  11  32
TORSDOF 8
ENDMDL
MODEL 5
REMARK VINA RESULT:      -8.5      0.638      1.122
REMARK  Name = 
REMARK  9 active torsions:
REMARK  status: ('A' for Active; 'I' for Inactive)
REMARK    1  A    between atoms: C_1  and  C_2
REMARK    2  A    between atoms: C_2  and  O_3
REMARK    3  A    between atoms: O_3  and  C_4
REMARK    4  A    between atoms: C_4  and  C_6
REMARK    5  A    between atoms: C_9  and  C_10
REMARK    6  A    between atoms: C_10  and  C_11
REMARK    7  A    between atoms: C_11  and  C_13
REMARK    8  A    between atoms: C_18  and  O_19
REMARK    9  A    between atoms: C_24  and  O_25
REMARK                            x       y       z     vdW  Elec       q    Type
REMARK                         _______ _______ _______ _____ _____    ______ ____
ROOT
ATOM      1  C   UNL     1       3.221   5.986  17.610  0.00  0.00    +0.000 C 
ATOM      2  C   UNL     1       4.733   6.165  17.637  0.00  0.00    +0.000 A 
ATOM      3  C   UNL     1       5.296   7.345  17.111  0.00  0.00    +0.000 A 
ATOM      4  C   UNL     1       6.673   7.560  17.151  0.00  0.00    +0.000 A 
ATOM      5  C   UNL     1       7.518   6.570  17.646  0.00  0.00    +0.000 A 
ATOM      6  C   UNL     1       6.976   5.396  18.169  0.00  0.00    +0.000 A 
ATOM      7  C   UNL     1       5.583   5.221  18.238  0.00  0.00    +0.000 A 
ATOM      8  C   UNL     1       4.980   4.114  19.029  0.00  0.00    +0.000 C 
ATOM      9  O   UNL     1       5.639   3.365  19.745  0.00  0.00    +0.000 OA
ATOM     10  C   UNL     1       3.519   3.893  18.977  0.00  0.00    +0.000 A 
ATOM     11  C   UNL     1       2.906   2.947  19.807  0.00  0.00    +0.000 A 
ATOM     12  C   UNL     1       1.563   2.629  19.644  0.00  0.00    +0.000 A 
ATOM     13  C   UNL     1       0.840   3.205  18.602  0.00  0.00    +0.000 A 
ATOM     14  C   UNL     1       1.427   4.197  17.814  0.00  0.00    +0.000 A 
ATOM     15  C   UNL     1       2.742   4.622  18.073  0.00  0.00    +0.000 A 
ENDROOT
BRANCH   1  16
ATOM     16  C   UNL     1       2.539   7.053  18.506  0.00  0.00    +0.000 C 
ATOM     17  O   UNL     1       2.623   7.012  19.738  0.00  0.00    +0.000 OA
BRANCH  16  18
ATOM     18  C   UNL     1       1.669   8.072  17.789  0.00  0.00    +0.000 C 
BRANCH  18  22
ATOM     19  C   UNL     1       1.141  11.820  19.867  0.00  0.00    +0.000 A 
ATOM     20  C   UNL     1       1.874  11.767  18.676  0.00  0.00    +0.000 A 
ATOM     21  C   UNL     1       2.058  10.551  18.013  0.00  0.00    +0.000 A 
ATOM     22  C   UNL     1       1.498   9.376  18.525  0.00  0.00    +0.000 A 
ATOM     23  C   UNL     1       0.788   9.427  19.733  0.00  0.00    +0.000 A 
ATOM     24  C   UNL     1       0.604  10.644  20.400  0.00  0.00    +0.000 A 
BRANCH  19  25
ATOM     25  C   UNL     1       1.012  13.139  20.541  0.00  0.00    +0.000 C 
ATOM     26  O   UNL     1       1.725  13.487  21.470  0.00  0.00    +0.000 OA
BRANCH  25  27
ATOM     27  O   UNL     1      -0.046  13.823  20.045  0.00  0.00    +0.000 OA
BRANCH  27  29
ATOM     28  C   UNL     1      -1.857  13.626  21.590  0.00  0.00    +0.000 C 
ATOM     29  C   UNL     1      -0.803  14.557  21.018  0.00  0.00    +0.000 C 
ENDBRANCH  27  29
ENDBRANCH  25  27
ENDBRANCH  19  25
ENDBRANCH  18  22
ENDBRANCH  16  18
ENDBRANCH   1  16
BRANCH   6  30
ATOM     30  O   UNL     1       7.828   4.418  18.598  0.00  0.00    +0.000 OA
ATOM     31  H   UNL     1       8.743   4.645  18.368  0.00  0.00    +0.000 HD
ENDBRANCH   6  30
BRANCH  11  32
ATOM     32  O   UNL     1       3.566   2.325  20.832  0.00  0.00    +0.000 OA
ATOM     33  H   UNL     1       3.108   2.578  21.667  0.00  0.00    +0.000 HD
ENDBRANCH  11  32
TORSDOF 8
ENDMDL
MODEL 6
REMARK VINA RESULT:      -8.5      0.841      1.247
REMARK  Name = 
REMARK  9 active torsions:
REMARK  status: ('A' for Active; 'I' for Inactive)
REMARK    1  A    between atoms: C_1  and  C_2
REMARK    2  A    between atoms: C_2  and  O_3
REMARK    3  A    between atoms: O_3  and  C_4
REMARK    4  A    between atoms: C_4  and  C_6
REMARK    5  A    between atoms: C_9  and  C_10
REMARK    6  A    between atoms: C_10  and  C_11
REMARK    7  A    between atoms: C_11  and  C_13
REMARK    8  A    between atoms: C_18  and  O_19
REMARK    9  A    between atoms: C_24  and  O_25
REMARK                            x       y       z     vdW  Elec       q    Type
REMARK                         _______ _______ _______ _____ _____    ______ ____
ROOT
ATOM      1  C   UNL     1       3.347   6.256  17.497  0.00  0.00    +0.000 C 
ATOM      2  C   UNL     1       4.861   6.386  17.594  0.00  0.00    +0.000 A 
ATOM      3  C   UNL     1       5.490   7.533  17.071  0.00  0.00    +0.000 A 
ATOM      4  C   UNL     1       6.870   7.702  17.175  0.00  0.00    +0.000 A 
ATOM      5  C   UNL     1       7.655   6.696  17.732  0.00  0.00    +0.000 A 
ATOM      6  C   UNL     1       7.047   5.553  18.253  0.00  0.00    +0.000 A 
ATOM      7  C   UNL     1       5.647   5.427  18.257  0.00  0.00    +0.000 A 
ATOM      8  C   UNL     1       4.969   4.360  19.041  0.00  0.00    +0.000 C 
ATOM      9  O   UNL     1       5.565   3.606  19.805  0.00  0.00    +0.000 OA
ATOM     10  C   UNL     1       3.505   4.187  18.922  0.00  0.00    +0.000 A 
ATOM     11  C   UNL     1       2.820   3.282  19.740  0.00  0.00    +0.000 A 
ATOM     12  C   UNL     1       1.476   3.006  19.519  0.00  0.00    +0.000 A 
ATOM     13  C   UNL     1       0.825   3.582  18.430  0.00  0.00    +0.000 A 
ATOM     14  C   UNL     1       1.484   4.535  17.650  0.00  0.00    +0.000 A 
ATOM     15  C   UNL     1       2.798   4.921  17.965  0.00  0.00    +0.000 A 
ENDROOT
BRANCH   1  16
ATOM     16  C   UNL     1       2.660   7.367  18.335  0.00  0.00    +0.000 C 
ATOM     17  O   UNL     1       2.447   7.226  19.544  0.00  0.00    +0.000 OA
BRANCH  16  18
ATOM     18  C   UNL     1       2.159   8.576  17.562  0.00  0.00    +0.000 C 
BRANCH  18  22
ATOM     19  C   UNL     1      -0.266  11.333  19.834  0.00  0.00    +0.000 A 
ATOM     20  C   UNL     1       1.100  11.575  19.652  0.00  0.00    +0.000 A 
ATOM     21  C   UNL     1       1.887  10.673  18.931  0.00  0.00    +0.000 A 
ATOM     22  C   UNL     1       1.314   9.528  18.370  0.00  0.00    +0.000 A 
ATOM     23  C   UNL     1      -0.049   9.273  18.577  0.00  0.00    +0.000 A 
ATOM     24  C   UNL     1      -0.839  10.174  19.301  0.00  0.00    +0.000 A 
BRANCH  19  25
ATOM     25  C   UNL     1      -1.040  12.312  20.641  0.00  0.00    +0.000 C 
ATOM     26  O   UNL     1      -1.901  13.037  20.168  0.00  0.00    +0.000 OA
BRANCH  25  27
ATOM     27  O   UNL     1      -0.583  12.340  21.916  0.00  0.00    +0.000 OA
BRANCH  27  29
ATOM     28  C   UNL     1      -0.872  10.317  23.152  0.00  0.00    +0.000 C 
ATOM     29  C   UNL     1      -1.434  11.701  22.879  0.00  0.00    +0.000 C 
ENDBRANCH  27  29
ENDBRANCH  25  27
ENDBRANCH  19  25
ENDBRANCH  18  22
ENDBRANCH  16  18
ENDBRANCH   1  16
BRANCH   6  30
ATOM     30  O   UNL     1       7.842   4.558  18.745  0.00  0.00    +0.000 OA
ATOM     31  H   UNL     1       8.735   4.625  18.371  0.00  0.00    +0.000 HD
ENDBRANCH   6  30
BRANCH  11  32
ATOM     32  O   UNL     1       3.407   2.662  20.810  0.00  0.00    +0.000 OA
ATOM     33  H   UNL     1       4.221   3.172  21.030  0.00  0.00    +0.000 HD
ENDBRANCH  11  32
TORSDOF 8
ENDMDL
MODEL 7
REMARK VINA RESULT:      -8.5      3.169      9.295
REMARK  Name = 
REMARK  9 active torsions:
REMARK  status: ('A' for Active; 'I' for Inactive)
REMARK    1  A    between atoms: C_1  and  C_2
REMARK    2  A    between atoms: C_2  and  O_3
REMARK    3  A    between atoms: O_3  and  C_4
REMARK    4  A    between atoms: C_4  and  C_6
REMARK    5  A    between atoms: C_9  and  C_10
REMARK    6  A    between atoms: C_10  and  C_11
REMARK    7  A    between atoms: C_11  and  C_13
REMARK    8  A    between atoms: C_18  and  O_19
REMARK    9  A    between atoms: C_24  and  O_25
REMARK                            x       y       z     vdW  Elec       q    Type
REMARK                         _______ _______ _______ _____ _____    ______ ____
ROOT
ATOM      1  C   UNL     1      -1.245  11.266  19.401  0.00  0.00    +0.000 C 
ATOM      2  C   UNL     1      -1.823  11.942  20.637  0.00  0.00    +0.000 A 
ATOM      3  C   UNL     1      -0.970  12.251  21.716  0.00  0.00    +0.000 A 
ATOM      4  C   UNL     1      -1.458  12.901  22.848  0.00  0.00    +0.000 A 
ATOM      5  C   UNL     1      -2.816  13.186  22.958  0.00  0.00    +0.000 A 
ATOM      6  C   UNL     1      -3.673  12.886  21.899  0.00  0.00    +0.000 A 
ATOM      7  C   UNL     1      -3.171  12.336  20.707  0.00  0.00    +0.000 A 
ATOM      8  C   UNL     1      -4.005  12.260  19.478  0.00  0.00    +0.000 C 
ATOM      9  O   UNL     1      -5.124  12.760  19.394  0.00  0.00    +0.000 OA
ATOM     10  C   UNL     1      -3.481  11.564  18.283  0.00  0.00    +0.000 A 
ATOM     11  C   UNL     1      -4.184  11.587  17.073  0.00  0.00    +0.000 A 
ATOM     12  C   UNL     1      -3.771  10.804  16.001  0.00  0.00    +0.000 A 
ATOM     13  C   UNL     1      -2.691   9.938  16.156  0.00  0.00    +0.000 A 
ATOM     14  C   UNL     1      -1.947   9.959  17.337  0.00  0.00    +0.000 A 
ATOM     15  C   UNL     1      -2.279  10.857  18.367  0.00  0.00    +0.000 A 
ENDROOT
BRANCH   1  16
ATOM     16  C   UNL     1      -0.229  12.207  18.702  0.00  0.00    +0.000 C 
ATOM     17  O   UNL     1      -0.600  13.155  18.001  0.00  0.00    +0.000 OA
BRANCH  16  18
ATOM     18  C   UNL     1       1.236  11.824  18.832  0.00  0.00    +0.000 C 
BRANCH  18  22
ATOM     19  C   UNL     1       1.995   7.601  19.316  0.00  0.00    +0.000 A 
ATOM     20  C   UNL     1       2.172   8.215  18.070  0.00  0.00    +0.000 A 
ATOM     21  C   UNL     1       1.910   9.578  17.911  0.00  0.00    +0.000 A 
ATOM     22  C   UNL     1       1.484  10.347  18.999  0.00  0.00    +0.000 A 
ATOM     23  C   UNL     1       1.281   9.724  20.239  0.00  0.00    +0.000 A 
ATOM     24  C   UNL     1       1.540   8.358  20.400  0.00  0.00    +0.000 A 
BRANCH  19  25
ATOM     25  C   UNL     1       2.256   6.141  19.410  0.00  0.00    +0.000 C 
ATOM     26  O   UNL     1       2.716   5.483  18.489  0.00  0.00    +0.000 OA
BRANCH  25  27
ATOM     27  O   UNL     1       1.825   5.658  20.599  0.00  0.00    +0.000 OA
BRANCH  27  29
ATOM     28  C   UNL     1       2.040   3.458  21.502  0.00  0.00    +0.000 C 
ATOM     29  C   UNL     1       1.256   4.342  20.549  0.00  0.00    +0.000 C 
ENDBRANCH  27  29
ENDBRANCH  25  27
ENDBRANCH  19  25
ENDBRANCH  18  22
ENDBRANCH  16  18
ENDBRANCH   1  16
BRANCH   6  30
ATOM     30  O   UNL     1      -5.009  13.126  22.052  0.00  0.00    +0.000 OA
ATOM     31  H   UNL     1      -5.208  13.338  22.978  0.00  0.00    +0.000 HD
ENDBRANCH   6  30
BRANCH  11  32
ATOM     32  O   UNL     1      -5.268  12.395  16.863  0.00  0.00    +0.000 OA
ATOM     33  H   UNL     1      -5.902  11.890  16.302  0.00  0.00    +0.000 HD
ENDBRANCH  11  32
TORSDOF 8
ENDMDL
MODEL 8
REMARK VINA RESULT:      -8.4      1.413      1.602
REMARK  Name = 
REMARK  9 active torsions:
REMARK  status: ('A' for Active; 'I' for Inactive)
REMARK    1  A    between atoms: C_1  and  C_2
REMARK    2  A    between atoms: C_2  and  O_3
REMARK    3  A    between atoms: O_3  and  C_4
REMARK    4  A    between atoms: C_4  and  C_6
REMARK    5  A    between atoms: C_9  and  C_10
REMARK    6  A    between atoms: C_10  and  C_11
REMARK    7  A    between atoms: C_11  and  C_13
REMARK    8  A    between atoms: C_18  and  O_19
REMARK    9  A    between atoms: C_24  and  O_25
REMARK                            x       y       z     vdW  Elec       q    Type
REMARK                         _______ _______ _______ _____ _____    ______ ____
ROOT
ATOM      1  C   UNL     1       2.948   5.737  17.826  0.00  0.00    +0.000 C 
ATOM      2  C   UNL     1       4.453   5.867  17.636  0.00  0.00    +0.000 A 
ATOM      3  C   UNL     1       4.966   6.976  16.934  0.00  0.00    +0.000 A 
ATOM      4  C   UNL     1       6.340   7.145  16.771  0.00  0.00    +0.000 A 
ATOM      5  C   UNL     1       7.222   6.175  17.239  0.00  0.00    +0.000 A 
ATOM      6  C   UNL     1       6.729   5.071  17.936  0.00  0.00    +0.000 A 
ATOM      7  C   UNL     1       5.355   4.950  18.204  0.00  0.00    +0.000 A 
ATOM      8  C   UNL     1       4.840   3.940  19.167  0.00  0.00    +0.000 C 
ATOM      9  O   UNL     1       5.573   3.234  19.855  0.00  0.00    +0.000 OA
ATOM     10  C   UNL     1       3.381   3.765  19.329  0.00  0.00    +0.000 A 
ATOM     11  C   UNL     1       2.865   2.918  20.316  0.00  0.00    +0.000 A 
ATOM     12  C   UNL     1       1.505   2.633  20.364  0.00  0.00    +0.000 A 
ATOM     13  C   UNL     1       0.661   3.139  19.378  0.00  0.00    +0.000 A 
ATOM     14  C   UNL     1       1.158   4.036  18.430  0.00  0.00    +0.000 A 
ATOM     15  C   UNL     1       2.505   4.437  18.473  0.00  0.00    +0.000 A 
ENDROOT
BRANCH   1  16
ATOM     16  C   UNL     1       2.417   6.902  18.703  0.00  0.00    +0.000 C 
ATOM     17  O   UNL     1       2.107   6.732  19.887  0.00  0.00    +0.000 OA
BRANCH  16  18
ATOM     18  C   UNL     1       2.188   8.225  17.991  0.00  0.00    +0.000 C 
BRANCH  18  22
ATOM     19  C   UNL     1      -0.575  10.901  19.954  0.00  0.00    +0.000 A 
ATOM     20  C   UNL     1       0.523  10.381  20.649  0.00  0.00    +0.000 A 
ATOM     21  C   UNL     1       1.407   9.502  20.018  0.00  0.00    +0.000 A 
ATOM     22  C   UNL     1       1.212   9.146  18.680  0.00  0.00    +0.000 A 
ATOM     23  C   UNL     1       0.096   9.646  17.994  0.00  0.00    +0.000 A 
ATOM     24  C   UNL     1      -0.792  10.524  18.625  0.00  0.00    +0.000 A 
BRANCH  19  25
ATOM     25  C   UNL     1      -1.497  11.802  20.694  0.00  0.00    +0.000 C 
ATOM     26  O   UNL     1      -1.661  11.744  21.904  0.00  0.00    +0.000 OA
BRANCH  25  27
ATOM     27  O   UNL     1      -2.172  12.599  19.833  0.00  0.00    +0.000 OA
BRANCH  27  29
ATOM     28  C   UNL     1      -4.255  11.866  18.922  0.00  0.00    +0.000 C 
ATOM     29  C   UNL     1      -3.591  12.650  20.040  0.00  0.00    +0.000 C 
ENDBRANCH  27  29
ENDBRANCH  25  27
ENDBRANCH  19  25
ENDBRANCH  18  22
ENDBRANCH  16  18
ENDBRANCH   1  16
BRANCH   6  30
ATOM     30  O   UNL     1       7.609   4.106  18.336  0.00  0.00    +0.000 OA
ATOM     31  H   UNL     1       7.821   4.213  19.277  0.00  0.00    +0.000 HD
ENDBRANCH   6  30
BRANCH  11  32
ATOM     32  O   UNL     1       3.643   2.366  21.298  0.00  0.00    +0.000 OA
ATOM     33  H   UNL     1       4.386   1.898  20.851  0.00  0.00    +0.000 HD
ENDBRANCH  11  32
TORSDOF 8
ENDMDL
MODEL 9
REMARK VINA RESULT:      -8.4      0.970      1.391
REMARK  Name = 
REMARK  9 active torsions:
REMARK  status: ('A' for Active; 'I' for Inactive)
REMARK    1  A    between atoms: C_1  and  C_2
REMARK    2  A    between atoms: C_2  and  O_3
REMARK    3  A    between atoms: O_3  and  C_4
REMARK    4  A    between atoms: C_4  and  C_6
REMARK    5  A    between atoms: C_9  and  C_10
REMARK    6  A    between atoms: C_10  and  C_11
REMARK    7  A    between atoms: C_11  and  C_13
REMARK    8  A    between atoms: C_18  and  O_19
REMARK    9  A    between atoms: C_24  and  O_25
REMARK                            x       y       z     vdW  Elec       q    Type
REMARK                         _______ _______ _______ _____ _____    ______ ____
ROOT
ATOM      1  C   UNL     1       3.197   6.023  17.604  0.00  0.00    +0.000 C 
ATOM      2  C   UNL     1       4.714   6.153  17.602  0.00  0.00    +0.000 A 
ATOM      3  C   UNL     1       5.305   7.318  17.074  0.00  0.00    +0.000 A 
ATOM      4  C   UNL     1       6.689   7.487  17.089  0.00  0.00    +0.000 A 
ATOM      5  C   UNL     1       7.510   6.467  17.560  0.00  0.00    +0.000 A 
ATOM      6  C   UNL     1       6.940   5.307  18.085  0.00  0.00    +0.000 A 
ATOM      7  C   UNL     1       5.544   5.177  18.181  0.00  0.00    +0.000 A 
ATOM      8  C   UNL     1       4.921   4.084  18.975  0.00  0.00    +0.000 C 
ATOM      9  O   UNL     1       5.569   3.309  19.673  0.00  0.00    +0.000 OA
ATOM     10  C   UNL     1       3.452   3.912  18.950  0.00  0.00    +0.000 A 
ATOM     11  C   UNL     1       2.825   2.980  19.785  0.00  0.00    +0.000 A 
ATOM     12  C   UNL     1       1.469   2.707  19.647  0.00  0.00    +0.000 A 
ATOM     13  C   UNL     1       0.745   3.315  18.623  0.00  0.00    +0.000 A 
ATOM     14  C   UNL     1       1.349   4.292  17.831  0.00  0.00    +0.000 A 
ATOM     15  C   UNL     1       2.682   4.672  18.067  0.00  0.00    +0.000 A 
ENDROOT
BRANCH   1  16
ATOM     16  C   UNL     1       2.568   7.105  18.521  0.00  0.00    +0.000 C 
ATOM     17  O   UNL     1       2.407   6.914  19.732  0.00  0.00    +0.000 OA
BRANCH  16  18
ATOM     18  C   UNL     1       2.054   8.355  17.826  0.00  0.00    +0.000 C 
BRANCH  18  22
ATOM     19  C   UNL     1      -0.474  10.839  20.293  0.00  0.00    +0.000 A 
ATOM     20  C   UNL     1      -0.709  10.734  18.917  0.00  0.00    +0.000 A 
ATOM     21  C   UNL     1       0.120   9.943  18.117  0.00  0.00    +0.000 A 
ATOM     22  C   UNL     1       1.183   9.236  18.686  0.00  0.00    +0.000 A 
ATOM     23  C   UNL     1       1.434   9.364  20.060  0.00  0.00    +0.000 A 
ATOM     24  C   UNL     1       0.606  10.158  20.863  0.00  0.00    +0.000 A 
BRANCH  19  25
ATOM     25  C   UNL     1      -1.371  11.725  21.081  0.00  0.00    +0.000 C 
ATOM     26  O   UNL     1      -2.403  12.200  20.634  0.00  0.00    +0.000 OA
BRANCH  25  27
ATOM     27  O   UNL     1      -0.828  11.990  22.293  0.00  0.00    +0.000 OA
BRANCH  27  29
ATOM     28  C   UNL     1       0.255  14.099  21.999  0.00  0.00    +0.000 C 
ATOM     29  C   UNL     1      -0.881  13.367  22.693  0.00  0.00    +0.000 C 
ENDBRANCH  27  29
ENDBRANCH  25  27
ENDBRANCH  19  25
ENDBRANCH  18  22
ENDBRANCH  16  18
ENDBRANCH   1  16
BRANCH   6  30
ATOM     30  O   UNL     1       7.768   4.299  18.491  0.00  0.00    +0.000 OA
ATOM     31  H   UNL     1       7.249   3.560  18.845  0.00  0.00    +0.000 HD
ENDBRANCH   6  30
BRANCH  11  32
ATOM     32  O   UNL     1       3.484   2.328  20.793  0.00  0.00    +0.000 OA
ATOM     33  H   UNL     1       3.228   2.767  21.638  0.00  0.00    +0.000 HD
ENDBRANCH  11  32
TORSDOF 8
ENDMDL
