MODEL 1
REMARK VINA RESULT:      -7.8      0.000      0.000
REMARK  Name = 
REMARK  4 active torsions:
REMARK  status: ('A' for Active; 'I' for Inactive)
REMARK    1  A    between atoms: C_2  and  C_17
REMARK    2  A    between atoms: N_3  and  C_4
REMARK    3  A    between atoms: C_4  and  C_5
REMARK    4  A    between atoms: C_9  and  N_10
REMARK                            x       y       z     vdW  Elec       q    Type
REMARK                         _______ _______ _______ _____ _____    ______ ____
ROOT
ATOM      1  C   UNL     1       2.199   9.535  18.099  0.00  0.00    +0.000 C 
ENDROOT
BRANCH   1   2
ATOM      2  C   UNL     1       2.705   8.122  18.011  0.00  0.00    +0.000 A 
ATOM      3  C   UNL     1       3.791   7.801  17.207  0.00  0.00    +0.000 A 
ATOM      4  N   UNL     1       4.350   6.574  17.144  0.00  0.00    +0.000 NA
ATOM      5  C   UNL     1       3.791   5.607  17.911  0.00  0.00    +0.000 A 
ATOM      6  C   UNL     1       2.686   5.792  18.742  0.00  0.00    +0.000 A 
ATOM      7  C   UNL     1       2.154   7.089  18.788  0.00  0.00    +0.000 A 
BRANCH   6   8
ATOM      8  N   UNL     1       2.133   4.733  19.505  0.00  0.00    +0.000 N 
ATOM      9  C   UNL     1       2.141   4.707  20.945  0.00  0.00    +0.000 C 
ATOM     10  C   UNL     1       1.765   3.280  21.290  0.00  0.00    +0.000 C 
ATOM     11  C   UNL     1       0.877   2.849  20.138  0.00  0.00    +0.000 C 
ATOM     12  C   UNL     1       1.380   3.674  18.982  0.00  0.00    +0.000 C 
ATOM     13  O   UNL     1       1.080   3.445  17.821  0.00  0.00    +0.000 OA
ENDBRANCH   6   8
ENDBRANCH   1   2
BRANCH   1  16
ATOM     14  O   UNL     1       0.377  11.136  19.515  0.00  0.00    +0.000 OA
ATOM     15  C   UNL     1      -0.023  10.476  18.564  0.00  0.00    +0.000 C 
ATOM     16  N   UNL     1       0.782   9.639  17.816  0.00  0.00    +0.000 N 
ATOM     17  H   UNL     1       0.476   9.394  16.883  0.00  0.00    +0.000 HD
BRANCH  15  18
ATOM     18  C   UNL     1      -1.447  10.565  18.140  0.00  0.00    +0.000 A 
ATOM     19  C   UNL     1      -1.863   9.861  17.001  0.00  0.00    +0.000 A 
ATOM     20  C   UNL     1      -3.189   9.941  16.570  0.00  0.00    +0.000 A 
ATOM     21  C   UNL     1      -4.102  10.735  17.265  0.00  0.00    +0.000 A 
ATOM     22  C   UNL     1      -3.676  11.453  18.384  0.00  0.00    +0.000 A 
ATOM     23 CL   UNL     1      -4.793  12.463  19.220  0.00  0.00    +0.000 Cl
ATOM     24  C   UNL     1      -2.360  11.374  18.825  0.00  0.00    +0.000 A 
ENDBRANCH  15  18
ENDBRANCH   1  16
TORSDOF 4
ENDMDL
MODEL 2
REMARK VINA RESULT:      -7.8      1.854      2.764
REMARK  Name = 
REMARK  4 active torsions:
REMARK  status: ('A' for Active; 'I' for Inactive)
REMARK    1  A    between atoms: C_2  and  C_17
REMARK    2  A    between atoms: N_3  and  C_4
REMARK    3  A    between atoms: C_4  and  C_5
REMARK    4  A    between atoms: C_9  and  N_10
REMARK                            x       y       z     vdW  Elec       q    Type
REMARK                         _______ _______ _______ _____ _____    ______ ____
ROOT
ATOM      1  C   UNL     1       1.611  10.063  18.300  0.00  0.00    +0.000 C 
ENDROOT
BRANCH   1   2
ATOM      2  C   UNL     1       1.847   8.721  18.935  0.00  0.00    +0.000 A 
ATOM      3  C   UNL     1       1.471   8.477  20.250  0.00  0.00    +0.000 A 
ATOM      4  N   UNL     1       1.576   7.277  20.857  0.00  0.00    +0.000 NA
ATOM      5  C   UNL     1       2.096   6.264  20.124  0.00  0.00    +0.000 A 
ATOM      6  C   UNL     1       2.533   6.382  18.805  0.00  0.00    +0.000 A 
ATOM      7  C   UNL     1       2.385   7.644  18.211  0.00  0.00    +0.000 A 
BRANCH   6   8
ATOM      8  N   UNL     1       3.091   5.287  18.097  0.00  0.00    +0.000 N 
ATOM      9  C   UNL     1       4.509   5.082  17.945  0.00  0.00    +0.000 C 
ATOM     10  C   UNL     1       4.614   4.021  16.868  0.00  0.00    +0.000 C 
ATOM     11  C   UNL     1       3.348   3.204  17.038  0.00  0.00    +0.000 C 
ATOM     12  C   UNL     1       2.365   4.196  17.601  0.00  0.00    +0.000 C 
ATOM     13  O   UNL     1       1.163   3.986  17.654  0.00  0.00    +0.000 OA
ENDBRANCH   6   8
ENDBRANCH   1   2
BRANCH   1  16
ATOM     14  O   UNL     1      -0.575  11.255  19.599  0.00  0.00    +0.000 OA
ATOM     15  C   UNL     1      -0.722  10.817  18.465  0.00  0.00    +0.000 C 
ATOM     16  N   UNL     1       0.279  10.191  17.746  0.00  0.00    +0.000 N 
ATOM     17  H   UNL     1       0.189  10.156  16.739  0.00  0.00    +0.000 HD
BRANCH  15  18
ATOM     18  C   UNL     1      -2.032  10.962  17.772  0.00  0.00    +0.000 A 
ATOM     19  C   UNL     1      -3.117  11.504  18.474  0.00  0.00    +0.000 A 
ATOM     20  C   UNL     1      -4.361  11.635  17.854  0.00  0.00    +0.000 A 
ATOM     21  C   UNL     1      -4.531  11.210  16.535  0.00  0.00    +0.000 A 
ATOM     22  C   UNL     1      -3.453  10.649  15.849  0.00  0.00    +0.000 A 
ATOM     23 CL   UNL     1      -3.673  10.091  14.234  0.00  0.00    +0.000 Cl
ATOM     24  C   UNL     1      -2.209  10.522  16.456  0.00  0.00    +0.000 A 
ENDBRANCH  15  18
ENDBRANCH   1  16
TORSDOF 4
ENDMDL
MODEL 3
REMARK VINA RESULT:      -7.7      5.413      8.132
REMARK  Name = 
REMARK  4 active torsions:
REMARK  status: ('A' for Active; 'I' for Inactive)
REMARK    1  A    between atoms: C_2  and  C_17
REMARK    2  A    between atoms: N_3  and  C_4
REMARK    3  A    between atoms: C_4  and  C_5
REMARK    4  A    between atoms: C_9  and  N_10
REMARK                            x       y       z     vdW  Elec       q    Type
REMARK                         _______ _______ _______ _____ _____    ______ ____
ROOT
ATOM      1  C   UNL     1       6.479   6.512  17.574  0.00  0.00    +0.000 C 
ENDROOT
BRANCH   1   2
ATOM      2  C   UNL     1       5.025   6.491  17.954  0.00  0.00    +0.000 A 
ATOM      3  C   UNL     1       4.153   7.472  17.496  0.00  0.00    +0.000 A 
ATOM      4  N   UNL     1       2.824   7.470  17.727  0.00  0.00    +0.000 NA
ATOM      5  C   UNL     1       2.332   6.446  18.465  0.00  0.00    +0.000 A 
ATOM      6  C   UNL     1       3.101   5.414  19.002  0.00  0.00    +0.000 A 
ATOM      7  C   UNL     1       4.474   5.449  18.718  0.00  0.00    +0.000 A 
BRANCH   6   8
ATOM      8  N   UNL     1       2.529   4.381  19.787  0.00  0.00    +0.000 N 
ATOM      9  C   UNL     1       2.160   4.550  21.170  0.00  0.00    +0.000 C 
ATOM     10  C   UNL     1       1.922   3.136  21.662  0.00  0.00    +0.000 C 
ATOM     11  C   UNL     1       1.442   2.397  20.427  0.00  0.00    +0.000 C 
ATOM     12  C   UNL     1       2.105   3.139  19.296  0.00  0.00    +0.000 C 
ATOM     13  O   UNL     1       2.159   2.705  18.157  0.00  0.00    +0.000 OA
ENDBRANCH   6   8
ENDBRANCH   1   2
BRANCH   1  16
ATOM     14  O   UNL     1       6.527   3.901  16.540  0.00  0.00    +0.000 OA
ATOM     15  C   UNL     1       6.680   4.847  15.778  0.00  0.00    +0.000 C 
ATOM     16  N   UNL     1       6.698   6.167  16.184  0.00  0.00    +0.000 N 
ATOM     17  H   UNL     1       6.502   6.880  15.494  0.00  0.00    +0.000 HD
BRANCH  15  18
ATOM     18  C   UNL     1       6.840   4.611  14.317  0.00  0.00    +0.000 A 
ATOM     19  C   UNL     1       7.694   5.445  13.582  0.00  0.00    +0.000 A 
ATOM     20  C   UNL     1       7.848   5.258  12.206  0.00  0.00    +0.000 A 
ATOM     21  C   UNL     1       7.140   4.246  11.557  0.00  0.00    +0.000 A 
ATOM     22  C   UNL     1       6.273   3.434  12.289  0.00  0.00    +0.000 A 
ATOM     23 CL   UNL     1       5.370   2.209  11.481  0.00  0.00    +0.000 Cl
ATOM     24  C   UNL     1       6.118   3.608  13.660  0.00  0.00    +0.000 A 
ENDBRANCH  15  18
ENDBRANCH   1  16
TORSDOF 4
ENDMDL
MODEL 4
REMARK VINA RESULT:      -7.7      4.150      6.339
REMARK  Name = 
REMARK  4 active torsions:
REMARK  status: ('A' for Active; 'I' for Inactive)
REMARK    1  A    between atoms: C_2  and  C_17
REMARK    2  A    between atoms: N_3  and  C_4
REMARK    3  A    between atoms: C_4  and  C_5
REMARK    4  A    between atoms: C_9  and  N_10
REMARK                            x       y       z     vdW  Elec       q    Type
REMARK                         _______ _______ _______ _____ _____    ______ ____
ROOT
ATOM      1  C   UNL     1       3.454   4.400  17.913  0.00  0.00    +0.000 C 
ENDROOT
BRANCH   1   2
ATOM      2  C   UNL     1       4.830   4.492  17.316  0.00  0.00    +0.000 A 
ATOM      3  C   UNL     1       5.950   4.643  18.125  0.00  0.00    +0.000 A 
ATOM      4  N   UNL     1       7.219   4.649  17.666  0.00  0.00    +0.000 NA
ATOM      5  C   UNL     1       7.387   4.511  16.329  0.00  0.00    +0.000 A 
ATOM      6  C   UNL     1       6.349   4.375  15.408  0.00  0.00    +0.000 A 
ATOM      7  C   UNL     1       5.049   4.355  15.936  0.00  0.00    +0.000 A 
BRANCH   6   8
ATOM      8  N   UNL     1       6.590   4.256  14.016  0.00  0.00    +0.000 N 
ATOM      9  C   UNL     1       5.740   3.504  13.128  0.00  0.00    +0.000 C 
ATOM     10  C   UNL     1       6.553   3.386  11.854  0.00  0.00    +0.000 C 
ATOM     11  C   UNL     1       7.397   4.647  11.843  0.00  0.00    +0.000 C 
ATOM     12  C   UNL     1       7.565   4.967  13.305  0.00  0.00    +0.000 C 
ATOM     13  O   UNL     1       8.381   5.775  13.719  0.00  0.00    +0.000 OA
ENDBRANCH   6   8
ENDBRANCH   1   2
BRANCH   1  16
ATOM     14  O   UNL     1       2.662   5.475  20.384  0.00  0.00    +0.000 OA
ATOM     15  C   UNL     1       2.508   6.140  19.368  0.00  0.00    +0.000 C 
ATOM     16  N   UNL     1       2.839   5.698  18.101  0.00  0.00    +0.000 N 
ATOM     17  H   UNL     1       2.991   6.391  17.380  0.00  0.00    +0.000 HD
BRANCH  15  18
ATOM     18  C   UNL     1       1.953   7.519  19.454  0.00  0.00    +0.000 A 
ATOM     19  C   UNL     1       2.035   8.357  18.333  0.00  0.00    +0.000 A 
ATOM     20  C   UNL     1       1.539   9.661  18.393  0.00  0.00    +0.000 A 
ATOM     21  C   UNL     1       0.972  10.139  19.575  0.00  0.00    +0.000 A 
ATOM     22  C   UNL     1       0.915   9.308  20.696  0.00  0.00    +0.000 A 
ATOM     23 CL   UNL     1       0.250   9.909  22.166  0.00  0.00    +0.000 Cl
ATOM     24  C   UNL     1       1.400   8.005  20.644  0.00  0.00    +0.000 A 
ENDBRANCH  15  18
ENDBRANCH   1  16
TORSDOF 4
ENDMDL
MODEL 5
REMARK VINA RESULT:      -7.7      2.045      2.712
REMARK  Name = 
REMARK  4 active torsions:
REMARK  status: ('A' for Active; 'I' for Inactive)
REMARK    1  A    between atoms: C_2  and  C_17
REMARK    2  A    between atoms: N_3  and  C_4
REMARK    3  A    between atoms: C_4  and  C_5
REMARK    4  A    between atoms: C_9  and  N_10
REMARK                            x       y       z     vdW  Elec       q    Type
REMARK                         _______ _______ _______ _____ _____    ______ ____
ROOT
ATOM      1  C   UNL     1       2.078   9.180  17.847  0.00  0.00    +0.000 C 
ENDROOT
BRANCH   1   2
ATOM      2  C   UNL     1       2.708   7.818  17.933  0.00  0.00    +0.000 A 
ATOM      3  C   UNL     1       3.902   7.542  17.280  0.00  0.00    +0.000 A 
ATOM      4  N   UNL     1       4.566   6.371  17.380  0.00  0.00    +0.000 NA
ATOM      5  C   UNL     1       4.007   5.415  18.159  0.00  0.00    +0.000 A 
ATOM      6  C   UNL     1       2.802   5.557  18.848  0.00  0.00    +0.000 A 
ATOM      7  C   UNL     1       2.161   6.798  18.729  0.00  0.00    +0.000 A 
BRANCH   6   8
ATOM      8  N   UNL     1       2.257   4.509  19.632  0.00  0.00    +0.000 N 
ATOM      9  C   UNL     1       2.301   4.492  21.072  0.00  0.00    +0.000 C 
ATOM     10  C   UNL     1       1.918   3.072  21.436  0.00  0.00    +0.000 C 
ATOM     11  C   UNL     1       0.996   2.644  20.310  0.00  0.00    +0.000 C 
ATOM     12  C   UNL     1       1.478   3.455  19.136  0.00  0.00    +0.000 C 
ATOM     13  O   UNL     1       1.146   3.221  17.985  0.00  0.00    +0.000 OA
ENDBRANCH   6   8
ENDBRANCH   1   2
BRANCH   1  16
ATOM     14  O   UNL     1      -0.559  10.070  18.230  0.00  0.00    +0.000 OA
ATOM     15  C   UNL     1       0.198  10.015  19.191  0.00  0.00    +0.000 C 
ATOM     16  N   UNL     1       1.518   9.616  19.110  0.00  0.00    +0.000 N 
ATOM     17  H   UNL     1       1.969   9.289  19.955  0.00  0.00    +0.000 HD
BRANCH  15  18
ATOM     18  C   UNL     1      -0.295  10.371  20.551  0.00  0.00    +0.000 A 
ATOM     19  C   UNL     1      -0.062   9.485  21.612  0.00  0.00    +0.000 A 
ATOM     20  C   UNL     1      -0.530   9.785  22.894  0.00  0.00    +0.000 A 
ATOM     21  C   UNL     1      -1.244  10.963  23.118  0.00  0.00    +0.000 A 
ATOM     22  C   UNL     1      -1.493  11.830  22.052  0.00  0.00    +0.000 A 
ATOM     23 CL   UNL     1      -2.407  13.265  22.320  0.00  0.00    +0.000 Cl
ATOM     24  C   UNL     1      -1.026  11.543  20.774  0.00  0.00    +0.000 A 
ENDBRANCH  15  18
ENDBRANCH   1  16
TORSDOF 4
ENDMDL
MODEL 6
REMARK VINA RESULT:      -7.7      5.156      8.220
REMARK  Name = 
REMARK  4 active torsions:
REMARK  status: ('A' for Active; 'I' for Inactive)
REMARK    1  A    between atoms: C_2  and  C_17
REMARK    2  A    between atoms: N_3  and  C_4
REMARK    3  A    between atoms: C_4  and  C_5
REMARK    4  A    between atoms: C_9  and  N_10
REMARK                            x       y       z     vdW  Elec       q    Type
REMARK                         _______ _______ _______ _____ _____    ______ ____
ROOT
ATOM      1  C   UNL     1       6.053   6.800  17.243  0.00  0.00    +0.000 C 
ENDROOT
BRANCH   1   2
ATOM      2  C   UNL     1       4.615   6.740  17.678  0.00  0.00    +0.000 A 
ATOM      3  C   UNL     1       3.781   7.844  17.542  0.00  0.00    +0.000 A 
ATOM      4  N   UNL     1       2.463   7.836  17.832  0.00  0.00    +0.000 NA
ATOM      5  C   UNL     1       1.945   6.675  18.296  0.00  0.00    +0.000 A 
ATOM      6  C   UNL     1       2.677   5.505  18.501  0.00  0.00    +0.000 A 
ATOM      7  C   UNL     1       4.038   5.556  18.166  0.00  0.00    +0.000 A 
BRANCH   6   8
ATOM      8  N   UNL     1       2.080   4.325  19.012  0.00  0.00    +0.000 N 
ATOM      9  C   UNL     1       1.723   3.198  18.188  0.00  0.00    +0.000 C 
ATOM     10  C   UNL     1       0.841   2.352  19.083  0.00  0.00    +0.000 C 
ATOM     11  C   UNL     1       1.361   2.635  20.480  0.00  0.00    +0.000 C 
ATOM     12  C   UNL     1       1.909   4.034  20.372  0.00  0.00    +0.000 C 
ATOM     13  O   UNL     1       2.202   4.710  21.344  0.00  0.00    +0.000 OA
ENDBRANCH   6   8
ENDBRANCH   1   2
BRANCH   1  16
ATOM     14  O   UNL     1       7.462   4.501  16.459  0.00  0.00    +0.000 OA
ATOM     15  C   UNL     1       6.936   5.199  15.602  0.00  0.00    +0.000 C 
ATOM     16  N   UNL     1       6.241   6.362  15.876  0.00  0.00    +0.000 N 
ATOM     17  H   UNL     1       5.579   6.693  15.187  0.00  0.00    +0.000 HD
BRANCH  15  18
ATOM     18  C   UNL     1       7.004   4.802  14.168  0.00  0.00    +0.000 A 
ATOM     19  C   UNL     1       7.843   5.518  13.303  0.00  0.00    +0.000 A 
ATOM     20  C   UNL     1       7.913   5.178  11.950  0.00  0.00    +0.000 A 
ATOM     21  C   UNL     1       7.134   4.133  11.453  0.00  0.00    +0.000 A 
ATOM     22  C   UNL     1       6.282   3.439  12.314  0.00  0.00    +0.000 A 
ATOM     23 CL   UNL     1       5.294   2.173  11.693  0.00  0.00    +0.000 Cl
ATOM     24  C   UNL     1       6.212   3.765  13.664  0.00  0.00    +0.000 A 
ENDBRANCH  15  18
ENDBRANCH   1  16
TORSDOF 4
ENDMDL
MODEL 7
REMARK VINA RESULT:      -7.7      5.035      8.631
REMARK  Name = 
REMARK  4 active torsions:
REMARK  status: ('A' for Active; 'I' for Inactive)
REMARK    1  A    between atoms: C_2  and  C_17
REMARK    2  A    between atoms: N_3  and  C_4
REMARK    3  A    between atoms: C_4  and  C_5
REMARK    4  A    between atoms: C_9  and  N_10
REMARK                            x       y       z     vdW  Elec       q    Type
REMARK                         _______ _______ _______ _____ _____    ______ ____
ROOT
ATOM      1  C   UNL     1       5.859   4.170  18.191  0.00  0.00    +0.000 C 
ENDROOT
BRANCH   1   2
ATOM      2  C   UNL     1       4.468   4.527  18.634  0.00  0.00    +0.000 A 
ATOM      3  C   UNL     1       3.627   3.570  19.190  0.00  0.00    +0.000 A 
ATOM      4  N   UNL     1       2.400   3.837  19.685  0.00  0.00    +0.000 NA
ATOM      5  C   UNL     1       1.976   5.121  19.611  0.00  0.00    +0.000 A 
ATOM      6  C   UNL     1       2.711   6.169  19.057  0.00  0.00    +0.000 A 
ATOM      7  C   UNL     1       3.988   5.846  18.575  0.00  0.00    +0.000 A 
BRANCH   6   8
ATOM      8  N   UNL     1       2.202   7.490  18.989  0.00  0.00    +0.000 N 
ATOM      9  C   UNL     1       2.061   8.222  17.756  0.00  0.00    +0.000 C 
ATOM     10  C   UNL     1       1.811   9.649  18.201  0.00  0.00    +0.000 C 
ATOM     11  C   UNL     1       1.101   9.495  19.533  0.00  0.00    +0.000 C 
ATOM     12  C   UNL     1       1.628   8.187  20.061  0.00  0.00    +0.000 C 
ATOM     13  O   UNL     1       1.478   7.828  21.218  0.00  0.00    +0.000 OA
ENDBRANCH   6   8
ENDBRANCH   1   2
BRANCH   1  16
ATOM     14  O   UNL     1       7.441   5.854  16.595  0.00  0.00    +0.000 OA
ATOM     15  C   UNL     1       6.807   4.951  16.063  0.00  0.00    +0.000 C 
ATOM     16  N   UNL     1       5.981   4.083  16.750  0.00  0.00    +0.000 N 
ATOM     17  H   UNL     1       5.761   3.195  16.319  0.00  0.00    +0.000 HD
BRANCH  15  18
ATOM     18  C   UNL     1       6.917   4.725  14.596  0.00  0.00    +0.000 A 
ATOM     19  C   UNL     1       7.831   5.488  13.856  0.00  0.00    +0.000 A 
ATOM     20  C   UNL     1       7.941   5.309  12.475  0.00  0.00    +0.000 A 
ATOM     21  C   UNL     1       7.129   4.378  11.825  0.00  0.00    +0.000 A 
ATOM     22  C   UNL     1       6.204   3.638  12.564  0.00  0.00    +0.000 A 
ATOM     23 CL   UNL     1       5.176   2.517  11.757  0.00  0.00    +0.000 Cl
ATOM     24  C   UNL     1       6.092   3.804  13.940  0.00  0.00    +0.000 A 
ENDBRANCH  15  18
ENDBRANCH   1  16
TORSDOF 4
ENDMDL
MODEL 8
REMARK VINA RESULT:      -7.7      1.368      1.687
REMARK  Name = 
REMARK  4 active torsions:
REMARK  status: ('A' for Active; 'I' for Inactive)
REMARK    1  A    between atoms: C_2  and  C_17
REMARK    2  A    between atoms: N_3  and  C_4
REMARK    3  A    between atoms: C_4  and  C_5
REMARK    4  A    between atoms: C_9  and  N_10
REMARK                            x       y       z     vdW  Elec       q    Type
REMARK                         _______ _______ _______ _____ _____    ______ ____
ROOT
ATOM      1  C   UNL     1       1.650   9.686  18.669  0.00  0.00    +0.000 C 
ENDROOT
BRANCH   1   2
ATOM      2  C   UNL     1       2.250   8.334  18.400  0.00  0.00    +0.000 A 
ATOM      3  C   UNL     1       3.287   8.182  17.488  0.00  0.00    +0.000 A 
ATOM      4  N   UNL     1       3.928   7.017  17.258  0.00  0.00    +0.000 NA
ATOM      5  C   UNL     1       3.508   5.939  17.962  0.00  0.00    +0.000 A 
ATOM      6  C   UNL     1       2.465   5.952  18.888  0.00  0.00    +0.000 A 
ATOM      7  C   UNL     1       1.844   7.190  19.107  0.00  0.00    +0.000 A 
BRANCH   6   8
ATOM      8  N   UNL     1       2.058   4.782  19.578  0.00  0.00    +0.000 N 
ATOM      9  C   UNL     1       2.102   4.653  21.012  0.00  0.00    +0.000 C 
ATOM     10  C   UNL     1       1.904   3.171  21.255  0.00  0.00    +0.000 C 
ATOM     11  C   UNL     1       1.045   2.722  20.087  0.00  0.00    +0.000 C 
ATOM     12  C   UNL     1       1.421   3.682  18.989  0.00  0.00    +0.000 C 
ATOM     13  O   UNL     1       1.123   3.503  17.819  0.00  0.00    +0.000 OA
ENDBRANCH   6   8
ENDBRANCH   1   2
BRANCH   1  16
ATOM     14  O   UNL     1      -0.679  10.735  19.837  0.00  0.00    +0.000 OA
ATOM     15  C   UNL     1      -0.693  10.428  18.652  0.00  0.00    +0.000 C 
ATOM     16  N   UNL     1       0.388   9.882  17.986  0.00  0.00    +0.000 N 
ATOM     17  H   UNL     1       0.414   9.961  16.977  0.00  0.00    +0.000 HD
BRANCH  15  18
ATOM     18  C   UNL     1      -1.916  10.656  17.834  0.00  0.00    +0.000 A 
ATOM     19  C   UNL     1      -3.040  11.236  18.439  0.00  0.00    +0.000 A 
ATOM     20  C   UNL     1      -4.207  11.444  17.700  0.00  0.00    +0.000 A 
ATOM     21  C   UNL     1      -4.262  11.060  16.360  0.00  0.00    +0.000 A 
ATOM     22  C   UNL     1      -3.148  10.461  15.770  0.00  0.00    +0.000 A 
ATOM     23 CL   UNL     1      -3.228   9.952  14.126  0.00  0.00    +0.000 Cl
ATOM     24  C   UNL     1      -1.980  10.256  16.495  0.00  0.00    +0.000 A 
ENDBRANCH  15  18
ENDBRANCH   1  16
TORSDOF 4
ENDMDL
MODEL 9
REMARK VINA RESULT:      -7.7      6.268      8.736
REMARK  Name = 
REMARK  4 active torsions:
REMARK  status: ('A' for Active; 'I' for Inactive)
REMARK    1  A    between atoms: C_2  and  C_17
REMARK    2  A    between atoms: N_3  and  C_4
REMARK    3  A    between atoms: C_4  and  C_5
REMARK    4  A    between atoms: C_9  and  N_10
REMARK                            x       y       z     vdW  Elec       q    Type
REMARK                         _______ _______ _______ _____ _____    ______ ____
ROOT
ATOM      1  C   UNL     1       7.201   5.007  15.920  0.00  0.00    +0.000 C 
ENDROOT
BRANCH   1   2
ATOM      2  C   UNL     1       6.502   4.843  17.240  0.00  0.00    +0.000 A 
ATOM      3  C   UNL     1       7.089   5.285  18.419  0.00  0.00    +0.000 A 
ATOM      4  N   UNL     1       6.486   5.246  19.626  0.00  0.00    +0.000 NA
ATOM      5  C   UNL     1       5.236   4.726  19.669  0.00  0.00    +0.000 A 
ATOM      6  C   UNL     1       4.546   4.227  18.565  0.00  0.00    +0.000 A 
ATOM      7  C   UNL     1       5.206   4.308  17.330  0.00  0.00    +0.000 A 
BRANCH   6   8
ATOM      8  N   UNL     1       3.246   3.674  18.679  0.00  0.00    +0.000 N 
ATOM      9  C   UNL     1       2.054   4.474  18.803  0.00  0.00    +0.000 C 
ATOM     10  C   UNL     1       0.987   3.483  19.224  0.00  0.00    +0.000 C 
ATOM     11  C   UNL     1       1.434   2.177  18.594  0.00  0.00    +0.000 C 
ATOM     12  C   UNL     1       2.932   2.316  18.527  0.00  0.00    +0.000 C 
ATOM     13  O   UNL     1       3.678   1.377  18.300  0.00  0.00    +0.000 OA
ENDBRANCH   6   8
ENDBRANCH   1   2
BRANCH   1  16
ATOM     14  O   UNL     1       7.636   5.362  13.168  0.00  0.00    +0.000 OA
ATOM     15  C   UNL     1       6.907   4.453  13.544  0.00  0.00    +0.000 C 
ATOM     16  N   UNL     1       6.607   4.206  14.870  0.00  0.00    +0.000 N 
ATOM     17  H   UNL     1       6.284   3.280  15.119  0.00  0.00    +0.000 HD
BRANCH  15  18
ATOM     18  C   UNL     1       6.301   3.522  12.552  0.00  0.00    +0.000 A 
ATOM     19  C   UNL     1       7.088   2.496  12.013  0.00  0.00    +0.000 A 
ATOM     20  C   UNL     1       6.550   1.620  11.067  0.00  0.00    +0.000 A 
ATOM     21  C   UNL     1       5.229   1.775  10.645  0.00  0.00    +0.000 A 
ATOM     22  C   UNL     1       4.457   2.814  11.167  0.00  0.00    +0.000 A 
ATOM     23 CL   UNL     1       2.839   3.029  10.618  0.00  0.00    +0.000 Cl
ATOM     24  C   UNL     1       4.982   3.686  12.115  0.00  0.00    +0.000 A 
ENDBRANCH  15  18
ENDBRANCH   1  16
TORSDOF 4
ENDMDL
