MODEL 1
REMARK VINA RESULT:      -8.1      0.000      0.000
REMARK  Name = 
REMARK  9 active torsions:
REMARK  status: ('A' for Active; 'I' for Inactive)
REMARK    1  A    between atoms: N_3  and  C_4
REMARK    2  A    between atoms: C_4  and  C_5
REMARK    3  A    between atoms: C_5  and  C_6
REMARK    4  A    between atoms: C_6  and  S_7
REMARK    5  A    between atoms: S_7  and  C_8
REMARK    6  A    between atoms: N_20  and  C_21
REMARK    7  A    between atoms: C_21  and  C_22
REMARK    8  A    between atoms: C_22  and  C_23
REMARK    9  A    between atoms: C_23  and  C_24
REMARK                            x       y       z     vdW  Elec       q    Type
REMARK                         _______ _______ _______ _____ _____    ______ ____
ROOT
ATOM      1  O   UNL     1       7.766   4.557  18.783  0.00  0.00    +0.000 OA
ATOM      2  C   UNL     1       7.874   5.619  18.177  0.00  0.00    +0.000 C 
ATOM      3  N   UNL     1       7.629   5.767  16.845  0.00  0.00    +0.000 N 
ATOM      4  N   UNL     1       8.268   6.753  18.848  0.00  0.00    +0.000 N 
ATOM      5  C   UNL     1       8.393   8.028  18.347  0.00  0.00    +0.000 C 
ATOM      6  O   UNL     1       8.156   8.335  17.181  0.00  0.00    +0.000 OA
ATOM      7  N   UNL     1       8.832   8.935  19.280  0.00  0.00    +0.000 N 
ATOM      8  H   UNL     1       7.717   6.710  16.469  0.00  0.00    +0.000 HD
ATOM      9  H   UNL     1       8.455   6.591  19.821  0.00  0.00    +0.000 HD
ATOM     10  H   UNL     1       8.907   8.664  20.249  0.00  0.00    +0.000 HD
ENDROOT
BRANCH   3  11
ATOM     11  C   UNL     1       7.168   4.705  15.981  0.00  0.00    +0.000 C 
BRANCH  11  12
ATOM     12  C   UNL     1       5.646   4.555  15.977  0.00  0.00    +0.000 C 
BRANCH  12  13
ATOM     13  C   UNL     1       4.922   5.833  15.543  0.00  0.00    +0.000 C 
BRANCH  13  14
ATOM     14  S   UNL     1       4.528   6.844  17.008  0.00  0.00    +0.000 S 
BRANCH  14  15
ATOM     15  C   UNL     1       3.689   5.684  18.021  0.00  0.00    +0.000 A 
ATOM     16  N   UNL     1       2.631   5.029  17.603  0.00  0.00    +0.000 NA
ATOM     17  C   UNL     1       2.166   4.202  18.614  0.00  0.00    +0.000 A 
ATOM     18  C   UNL     1       1.039   3.359  18.536  0.00  0.00    +0.000 A 
ATOM     19  C   UNL     1       0.673   2.578  19.637  0.00  0.00    +0.000 A 
ATOM     20  C   UNL     1       1.416   2.624  20.813  0.00  0.00    +0.000 A 
ATOM     21  C   UNL     1       2.540   3.450  20.915  0.00  0.00    +0.000 A 
ATOM     22  C   UNL     1       2.897   4.233  19.804  0.00  0.00    +0.000 A 
ATOM     23  S   UNL     1       4.205   5.341  19.618  0.00  0.00    +0.000 S 
ENDBRANCH  14  15
ENDBRANCH  13  14
ENDBRANCH  12  13
ENDBRANCH  11  12
ENDBRANCH   3  11
BRANCH   7  24
ATOM     24  C   UNL     1       9.013  10.334  18.936  0.00  0.00    +0.000 C 
BRANCH  24  25
ATOM     25  C   UNL     1       9.629  11.153  20.070  0.00  0.00    +0.000 C 
BRANCH  25  26
ATOM     26  C   UNL     1      11.057  11.603  19.753  0.00  0.00    +0.000 C 
BRANCH  26  27
ATOM     27  C   UNL     1      11.088  12.748  18.771  0.00  0.00    +0.000 A 
ATOM     28  C   UNL     1      11.829  12.648  17.585  0.00  0.00    +0.000 A 
ATOM     29  C   UNL     1      11.864  13.710  16.680  0.00  0.00    +0.000 A 
ATOM     30  C   UNL     1      11.164  14.884  16.952  0.00  0.00    +0.000 A 
ATOM     31  C   UNL     1      10.430  14.996  18.132  0.00  0.00    +0.000 A 
ATOM     32  C   UNL     1      10.393  13.936  19.039  0.00  0.00    +0.000 A 
ENDBRANCH  26  27
ENDBRANCH  25  26
ENDBRANCH  24  25
ENDBRANCH   7  24
TORSDOF 9
ENDMDL
MODEL 2
REMARK VINA RESULT:      -7.9      1.528      2.286
REMARK  Name = 
REMARK  9 active torsions:
REMARK  status: ('A' for Active; 'I' for Inactive)
REMARK    1  A    between atoms: N_3  and  C_4
REMARK    2  A    between atoms: C_4  and  C_5
REMARK    3  A    between atoms: C_5  and  C_6
REMARK    4  A    between atoms: C_6  and  S_7
REMARK    5  A    between atoms: S_7  and  C_8
REMARK    6  A    between atoms: N_20  and  C_21
REMARK    7  A    between atoms: C_21  and  C_22
REMARK    8  A    between atoms: C_22  and  C_23
REMARK    9  A    between atoms: C_23  and  C_24
REMARK                            x       y       z     vdW  Elec       q    Type
REMARK                         _______ _______ _______ _____ _____    ______ ____
ROOT
ATOM      1  O   UNL     1       8.120   5.102  19.806  0.00  0.00    +0.000 OA
ATOM      2  C   UNL     1       7.950   5.964  18.949  0.00  0.00    +0.000 C 
ATOM      3  N   UNL     1       7.275   5.759  17.784  0.00  0.00    +0.000 N 
ATOM      4  N   UNL     1       8.460   7.227  19.137  0.00  0.00    +0.000 N 
ATOM      5  C   UNL     1       8.326   8.321  18.315  0.00  0.00    +0.000 C 
ATOM      6  O   UNL     1       7.702   8.314  17.257  0.00  0.00    +0.000 OA
ATOM      7  N   UNL     1       8.980   9.434  18.784  0.00  0.00    +0.000 N 
ATOM      8  H   UNL     1       7.169   6.567  17.172  0.00  0.00    +0.000 HD
ATOM      9  H   UNL     1       8.965   7.324  20.000  0.00  0.00    +0.000 HD
ATOM     10  H   UNL     1       9.385   9.427  19.709  0.00  0.00    +0.000 HD
ENDROOT
BRANCH   3  11
ATOM     11  C   UNL     1       6.633   4.516  17.424  0.00  0.00    +0.000 C 
BRANCH  11  12
ATOM     12  C   UNL     1       5.221   4.710  16.871  0.00  0.00    +0.000 C 
BRANCH  12  13
ATOM     13  C   UNL     1       5.005   6.098  16.260  0.00  0.00    +0.000 C 
BRANCH  13  14
ATOM     14  S   UNL     1       3.993   7.114  17.384  0.00  0.00    +0.000 S 
BRANCH  14  15
ATOM     15  C   UNL     1       3.185   5.884  18.339  0.00  0.00    +0.000 A 
ATOM     16  N   UNL     1       3.477   5.677  19.601  0.00  0.00    +0.000 NA
ATOM     17  C   UNL     1       2.704   4.637  20.094  0.00  0.00    +0.000 A 
ATOM     18  C   UNL     1       2.753   4.123  21.405  0.00  0.00    +0.000 A 
ATOM     19  C   UNL     1       1.919   3.062  21.771  0.00  0.00    +0.000 A 
ATOM     20  C   UNL     1       1.036   2.508  20.850  0.00  0.00    +0.000 A 
ATOM     21  C   UNL     1       0.967   3.000  19.543  0.00  0.00    +0.000 A 
ATOM     22  C   UNL     1       1.811   4.065  19.184  0.00  0.00    +0.000 A 
ATOM     23  S   UNL     1       1.967   4.880  17.673  0.00  0.00    +0.000 S 
ENDBRANCH  14  15
ENDBRANCH  13  14
ENDBRANCH  12  13
ENDBRANCH  11  12
ENDBRANCH   3  11
BRANCH   7  24
ATOM     24  C   UNL     1       8.940  10.689  18.054  0.00  0.00    +0.000 C 
BRANCH  24  25
ATOM     25  C   UNL     1      10.151  11.580  18.331  0.00  0.00    +0.000 C 
BRANCH  25  26
ATOM     26  C   UNL     1      10.644  11.459  19.775  0.00  0.00    +0.000 C 
BRANCH  26  27
ATOM     27  C   UNL     1      10.320  12.686  20.592  0.00  0.00    +0.000 A 
ATOM     28  C   UNL     1      10.800  13.944  20.205  0.00  0.00    +0.000 A 
ATOM     29  C   UNL     1      10.507  15.078  20.964  0.00  0.00    +0.000 A 
ATOM     30  C   UNL     1       9.736  14.965  22.120  0.00  0.00    +0.000 A 
ATOM     31  C   UNL     1       9.260  13.717  22.518  0.00  0.00    +0.000 A 
ATOM     32  C   UNL     1       9.552  12.581  21.760  0.00  0.00    +0.000 A 
ENDBRANCH  26  27
ENDBRANCH  25  26
ENDBRANCH  24  25
ENDBRANCH   7  24
TORSDOF 9
ENDMDL
MODEL 3
REMARK VINA RESULT:      -7.6      2.691     10.339
REMARK  Name = 
REMARK  9 active torsions:
REMARK  status: ('A' for Active; 'I' for Inactive)
REMARK    1  A    between atoms: N_3  and  C_4
REMARK    2  A    between atoms: C_4  and  C_5
REMARK    3  A    between atoms: C_5  and  C_6
REMARK    4  A    between atoms: C_6  and  S_7
REMARK    5  A    between atoms: S_7  and  C_8
REMARK    6  A    between atoms: N_20  and  C_21
REMARK    7  A    between atoms: C_21  and  C_22
REMARK    8  A    between atoms: C_22  and  C_23
REMARK    9  A    between atoms: C_23  and  C_24
REMARK                            x       y       z     vdW  Elec       q    Type
REMARK                         _______ _______ _______ _____ _____    ______ ____
ROOT
ATOM      1  O   UNL     1       8.017   5.648  19.566  0.00  0.00    +0.000 OA
ATOM      2  C   UNL     1       7.133   5.396  18.753  0.00  0.00    +0.000 C 
ATOM      3  N   UNL     1       6.873   6.150  17.649  0.00  0.00    +0.000 N 
ATOM      4  N   UNL     1       6.332   4.292  18.933  0.00  0.00    +0.000 N 
ATOM      5  C   UNL     1       5.336   3.830  18.105  0.00  0.00    +0.000 C 
ATOM      6  O   UNL     1       5.017   4.367  17.046  0.00  0.00    +0.000 OA
ATOM      7  N   UNL     1       4.707   2.709  18.588  0.00  0.00    +0.000 N 
ATOM      8  H   UNL     1       6.138   5.812  17.031  0.00  0.00    +0.000 HD
ATOM      9  H   UNL     1       6.549   3.779  19.768  0.00  0.00    +0.000 HD
ATOM     10  H   UNL     1       5.074   2.238  19.402  0.00  0.00    +0.000 HD
ENDROOT
BRANCH   3  11
ATOM     11  C   UNL     1       7.630   7.320  17.268  0.00  0.00    +0.000 C 
BRANCH  11  12
ATOM     12  C   UNL     1       8.182   8.093  18.467  0.00  0.00    +0.000 C 
BRANCH  12  13
ATOM     13  C   UNL     1       8.481   9.560  18.142  0.00  0.00    +0.000 C 
BRANCH  13  14
ATOM     14  S   UNL     1       9.360  10.331  19.540  0.00  0.00    +0.000 S 
BRANCH  14  15
ATOM     15  C   UNL     1       9.633  11.954  18.931  0.00  0.00    +0.000 A 
ATOM     16  N   UNL     1      10.518  12.209  17.997  0.00  0.00    +0.000 NA
ATOM     17  C   UNL     1      10.535  13.569  17.729  0.00  0.00    +0.000 A 
ATOM     18  C   UNL     1      11.369  14.215  16.795  0.00  0.00    +0.000 A 
ATOM     19  C   UNL     1      11.289  15.602  16.629  0.00  0.00    +0.000 A 
ATOM     20  C   UNL     1      10.387  16.351  17.377  0.00  0.00    +0.000 A 
ATOM     21  C   UNL     1       9.546  15.735  18.309  0.00  0.00    +0.000 A 
ATOM     22  C   UNL     1       9.637  14.341  18.471  0.00  0.00    +0.000 A 
ATOM     23  S   UNL     1       8.757  13.301  19.527  0.00  0.00    +0.000 S 
ENDBRANCH  14  15
ENDBRANCH  13  14
ENDBRANCH  12  13
ENDBRANCH  11  12
ENDBRANCH   3  11
BRANCH   7  24
ATOM     24  C   UNL     1       3.635   2.072  17.843  0.00  0.00    +0.000 C 
BRANCH  24  25
ATOM     25  C   UNL     1       2.247   2.406  18.389  0.00  0.00    +0.000 C 
BRANCH  25  26
ATOM     26  C   UNL     1       1.646   3.650  17.730  0.00  0.00    +0.000 C 
BRANCH  26  27
ATOM     27  C   UNL     1       1.828   4.886  18.576  0.00  0.00    +0.000 A 
ATOM     28  C   UNL     1       2.289   6.079  18.003  0.00  0.00    +0.000 A 
ATOM     29  C   UNL     1       2.464   7.221  18.787  0.00  0.00    +0.000 A 
ATOM     30  C   UNL     1       2.185   7.181  20.152  0.00  0.00    +0.000 A 
ATOM     31  C   UNL     1       1.733   5.998  20.733  0.00  0.00    +0.000 A 
ATOM     32  C   UNL     1       1.557   4.855  19.951  0.00  0.00    +0.000 A 
ENDBRANCH  26  27
ENDBRANCH  25  26
ENDBRANCH  24  25
ENDBRANCH   7  24
TORSDOF 9
ENDMDL
MODEL 4
REMARK VINA RESULT:      -7.5      5.743      8.869
REMARK  Name = 
REMARK  9 active torsions:
REMARK  status: ('A' for Active; 'I' for Inactive)
REMARK    1  A    between atoms: N_3  and  C_4
REMARK    2  A    between atoms: C_4  and  C_5
REMARK    3  A    between atoms: C_5  and  C_6
REMARK    4  A    between atoms: C_6  and  S_7
REMARK    5  A    between atoms: S_7  and  C_8
REMARK    6  A    between atoms: N_20  and  C_21
REMARK    7  A    between atoms: C_21  and  C_22
REMARK    8  A    between atoms: C_22  and  C_23
REMARK    9  A    between atoms: C_23  and  C_24
REMARK                            x       y       z     vdW  Elec       q    Type
REMARK                         _______ _______ _______ _____ _____    ______ ____
ROOT
ATOM      1  O   UNL     1       2.746   6.507  18.797  0.00  0.00    +0.000 OA
ATOM      2  C   UNL     1       2.120   6.917  19.770  0.00  0.00    +0.000 C 
ATOM      3  N   UNL     1       1.797   6.150  20.848  0.00  0.00    +0.000 N 
ATOM      4  N   UNL     1       1.699   8.226  19.812  0.00  0.00    +0.000 N 
ATOM      5  C   UNL     1       1.037   8.865  20.834  0.00  0.00    +0.000 C 
ATOM      6  O   UNL     1       0.723   8.327  21.893  0.00  0.00    +0.000 OA
ATOM      7  N   UNL     1       0.739  10.175  20.549  0.00  0.00    +0.000 N 
ATOM      8  H   UNL     1       1.309   6.619  21.610  0.00  0.00    +0.000 HD
ATOM      9  H   UNL     1       1.944   8.745  18.989  0.00  0.00    +0.000 HD
ATOM     10  H   UNL     1       1.113  10.606  19.716  0.00  0.00    +0.000 HD
ENDROOT
BRANCH   3  11
ATOM     11  C   UNL     1       2.185   4.768  21.008  0.00  0.00    +0.000 C 
BRANCH  11  12
ATOM     12  C   UNL     1       1.157   3.788  20.440  0.00  0.00    +0.000 C 
BRANCH  12  13
ATOM     13  C   UNL     1       1.544   3.255  19.056  0.00  0.00    +0.000 C 
BRANCH  13  14
ATOM     14  S   UNL     1       3.081   2.284  19.179  0.00  0.00    +0.000 S 
BRANCH  14  15
ATOM     15  C   UNL     1       4.275   3.444  18.627  0.00  0.00    +0.000 A 
ATOM     16  N   UNL     1       5.183   3.947  19.430  0.00  0.00    +0.000 NA
ATOM     17  C   UNL     1       5.974   4.848  18.734  0.00  0.00    +0.000 A 
ATOM     18  C   UNL     1       7.041   5.594  19.271  0.00  0.00    +0.000 A 
ATOM     19  C   UNL     1       7.756   6.478  18.455  0.00  0.00    +0.000 A 
ATOM     20  C   UNL     1       7.423   6.624  17.113  0.00  0.00    +0.000 A 
ATOM     21  C   UNL     1       6.370   5.894  16.554  0.00  0.00    +0.000 A 
ATOM     22  C   UNL     1       5.656   5.011  17.383  0.00  0.00    +0.000 A 
ATOM     23  S   UNL     1       4.321   3.988  17.003  0.00  0.00    +0.000 S 
ENDBRANCH  14  15
ENDBRANCH  13  14
ENDBRANCH  12  13
ENDBRANCH  11  12
ENDBRANCH   3  11
BRANCH   7  24
ATOM     24  C   UNL     1       0.051  11.013  21.514  0.00  0.00    +0.000 C 
BRANCH  24  25
ATOM     25  C   UNL     1       0.219  12.507  21.236  0.00  0.00    +0.000 C 
BRANCH  25  26
ATOM     26  C   UNL     1      -1.119  13.207  20.984  0.00  0.00    +0.000 C 
BRANCH  26  27
ATOM     27  C   UNL     1      -1.874  12.593  19.831  0.00  0.00    +0.000 A 
ATOM     28  C   UNL     1      -1.203  12.226  18.656  0.00  0.00    +0.000 A 
ATOM     29  C   UNL     1      -1.903  11.665  17.587  0.00  0.00    +0.000 A 
ATOM     30  C   UNL     1      -3.280  11.469  17.678  0.00  0.00    +0.000 A 
ATOM     31  C   UNL     1      -3.957  11.836  18.839  0.00  0.00    +0.000 A 
ATOM     32  C   UNL     1      -3.260  12.397  19.911  0.00  0.00    +0.000 A 
ENDBRANCH  26  27
ENDBRANCH  25  26
ENDBRANCH  24  25
ENDBRANCH   7  24
TORSDOF 9
ENDMDL
MODEL 5
REMARK VINA RESULT:      -7.5      4.741      8.486
REMARK  Name = 
REMARK  9 active torsions:
REMARK  status: ('A' for Active; 'I' for Inactive)
REMARK    1  A    between atoms: N_3  and  C_4
REMARK    2  A    between atoms: C_4  and  C_5
REMARK    3  A    between atoms: C_5  and  C_6
REMARK    4  A    between atoms: C_6  and  S_7
REMARK    5  A    between atoms: S_7  and  C_8
REMARK    6  A    between atoms: N_20  and  C_21
REMARK    7  A    between atoms: C_21  and  C_22
REMARK    8  A    between atoms: C_22  and  C_23
REMARK    9  A    between atoms: C_23  and  C_24
REMARK                            x       y       z     vdW  Elec       q    Type
REMARK                         _______ _______ _______ _____ _____    ______ ____
ROOT
ATOM      1  O   UNL     1       3.837   1.065  19.076  0.00  0.00    +0.000 OA
ATOM      2  C   UNL     1       3.588   1.883  18.195  0.00  0.00    +0.000 C 
ATOM      3  N   UNL     1       2.331   2.287  17.861  0.00  0.00    +0.000 N 
ATOM      4  N   UNL     1       4.616   2.448  17.476  0.00  0.00    +0.000 N 
ATOM      5  C   UNL     1       4.529   3.409  16.496  0.00  0.00    +0.000 C 
ATOM      6  O   UNL     1       3.474   3.914  16.120  0.00  0.00    +0.000 OA
ATOM      7  N   UNL     1       5.747   3.743  15.956  0.00  0.00    +0.000 N 
ATOM      8  H   UNL     1       2.261   3.002  17.138  0.00  0.00    +0.000 HD
ATOM      9  H   UNL     1       5.520   2.105  17.745  0.00  0.00    +0.000 HD
ATOM     10  H   UNL     1       6.596   3.386  16.371  0.00  0.00    +0.000 HD
ENDROOT
BRANCH   3  11
ATOM     11  C   UNL     1       1.130   1.841  18.527  0.00  0.00    +0.000 C 
BRANCH  11  12
ATOM     12  C   UNL     1       0.772   2.689  19.748  0.00  0.00    +0.000 C 
BRANCH  12  13
ATOM     13  C   UNL     1       1.019   4.185  19.527  0.00  0.00    +0.000 C 
BRANCH  13  14
ATOM     14  S   UNL     1       2.166   4.812  20.796  0.00  0.00    +0.000 S 
BRANCH  14  15
ATOM     15  C   UNL     1       3.501   5.385  19.812  0.00  0.00    +0.000 A 
ATOM     16  N   UNL     1       4.727   4.948  19.975  0.00  0.00    +0.000 NA
ATOM     17  C   UNL     1       5.573   5.585  19.080  0.00  0.00    +0.000 A 
ATOM     18  C   UNL     1       6.963   5.383  18.973  0.00  0.00    +0.000 A 
ATOM     19  C   UNL     1       7.703   6.101  18.027  0.00  0.00    +0.000 A 
ATOM     20  C   UNL     1       7.075   7.015  17.187  0.00  0.00    +0.000 A 
ATOM     21  C   UNL     1       5.697   7.233  17.271  0.00  0.00    +0.000 A 
ATOM     22  C   UNL     1       4.963   6.509  18.227  0.00  0.00    +0.000 A 
ATOM     23  S   UNL     1       3.276   6.554  18.579  0.00  0.00    +0.000 S 
ENDBRANCH  14  15
ENDBRANCH  13  14
ENDBRANCH  12  13
ENDBRANCH  11  12
ENDBRANCH   3  11
BRANCH   7  24
ATOM     24  C   UNL     1       5.854   4.750  14.916  0.00  0.00    +0.000 C 
BRANCH  24  25
ATOM     25  C   UNL     1       7.245   4.811  14.284  0.00  0.00    +0.000 C 
BRANCH  25  26
ATOM     26  C   UNL     1       7.187   4.910  12.758  0.00  0.00    +0.000 C 
BRANCH  26  27
ATOM     27  C   UNL     1       6.703   3.630  12.122  0.00  0.00    +0.000 A 
ATOM     28  C   UNL     1       7.618   2.681  11.647  0.00  0.00    +0.000 A 
ATOM     29  C   UNL     1       7.170   1.501  11.052  0.00  0.00    +0.000 A 
ATOM     30  C   UNL     1       5.804   1.259  10.921  0.00  0.00    +0.000 A 
ATOM     31  C   UNL     1       4.885   2.199  11.384  0.00  0.00    +0.000 A 
ATOM     32  C   UNL     1       5.330   3.381  11.980  0.00  0.00    +0.000 A 
ENDBRANCH  26  27
ENDBRANCH  25  26
ENDBRANCH  24  25
ENDBRANCH   7  24
TORSDOF 9
ENDMDL
MODEL 6
REMARK VINA RESULT:      -7.4      5.255      7.390
REMARK  Name = 
REMARK  9 active torsions:
REMARK  status: ('A' for Active; 'I' for Inactive)
REMARK    1  A    between atoms: N_3  and  C_4
REMARK    2  A    between atoms: C_4  and  C_5
REMARK    3  A    between atoms: C_5  and  C_6
REMARK    4  A    between atoms: C_6  and  S_7
REMARK    5  A    between atoms: S_7  and  C_8
REMARK    6  A    between atoms: N_20  and  C_21
REMARK    7  A    between atoms: C_21  and  C_22
REMARK    8  A    between atoms: C_22  and  C_23
REMARK    9  A    between atoms: C_23  and  C_24
REMARK                            x       y       z     vdW  Elec       q    Type
REMARK                         _______ _______ _______ _____ _____    ______ ____
ROOT
ATOM      1  O   UNL     1       3.064   6.724  19.040  0.00  0.00    +0.000 OA
ATOM      2  C   UNL     1       2.193   7.058  19.837  0.00  0.00    +0.000 C 
ATOM      3  N   UNL     1       1.672   6.234  20.789  0.00  0.00    +0.000 N 
ATOM      4  N   UNL     1       1.682   8.335  19.799  0.00  0.00    +0.000 N 
ATOM      5  C   UNL     1       0.748   8.894  20.639  0.00  0.00    +0.000 C 
ATOM      6  O   UNL     1       0.224   8.300  21.578  0.00  0.00    +0.000 OA
ATOM      7  N   UNL     1       0.436  10.191  20.313  0.00  0.00    +0.000 N 
ATOM      8  H   UNL     1       0.981   6.644  21.416  0.00  0.00    +0.000 HD
ATOM      9  H   UNL     1       2.083   8.898  19.070  0.00  0.00    +0.000 HD
ATOM     10  H   UNL     1       0.970  10.675  19.606  0.00  0.00    +0.000 HD
ENDROOT
BRANCH   3  11
ATOM     11  C   UNL     1       2.106   4.875  21.012  0.00  0.00    +0.000 C 
BRANCH  11  12
ATOM     12  C   UNL     1       1.130   3.835  20.459  0.00  0.00    +0.000 C 
BRANCH  12  13
ATOM     13  C   UNL     1       1.471   3.400  19.030  0.00  0.00    +0.000 C 
BRANCH  13  14
ATOM     14  S   UNL     1       2.965   2.358  19.045  0.00  0.00    +0.000 S 
BRANCH  14  15
ATOM     15  C   UNL     1       4.198   3.503  18.551  0.00  0.00    +0.000 A 
ATOM     16  N   UNL     1       5.132   3.922  19.373  0.00  0.00    +0.000 NA
ATOM     17  C   UNL     1       5.951   4.832  18.723  0.00  0.00    +0.000 A 
ATOM     18  C   UNL     1       7.051   5.504  19.292  0.00  0.00    +0.000 A 
ATOM     19  C   UNL     1       7.792   6.407  18.524  0.00  0.00    +0.000 A 
ATOM     20  C   UNL     1       7.453   6.648  17.196  0.00  0.00    +0.000 A 
ATOM     21  C   UNL     1       6.368   5.994  16.606  0.00  0.00    +0.000 A 
ATOM     22  C   UNL     1       5.628   5.090  17.388  0.00  0.00    +0.000 A 
ATOM     23  S   UNL     1       4.251   4.144  16.962  0.00  0.00    +0.000 S 
ENDBRANCH  14  15
ENDBRANCH  13  14
ENDBRANCH  12  13
ENDBRANCH  11  12
ENDBRANCH   3  11
BRANCH   7  24
ATOM     24  C   UNL     1      -0.524  10.949  21.096  0.00  0.00    +0.000 C 
BRANCH  24  25
ATOM     25  C   UNL     1      -0.624  12.412  20.664  0.00  0.00    +0.000 C 
BRANCH  25  26
ATOM     26  C   UNL     1       0.437  13.290  21.333  0.00  0.00    +0.000 C 
BRANCH  26  27
ATOM     27  C   UNL     1       1.553  13.655  20.386  0.00  0.00    +0.000 A 
ATOM     28  C   UNL     1       1.420  13.428  19.010  0.00  0.00    +0.000 A 
ATOM     29  C   UNL     1       2.456  13.758  18.134  0.00  0.00    +0.000 A 
ATOM     30  C   UNL     1       3.637  14.313  18.625  0.00  0.00    +0.000 A 
ATOM     31  C   UNL     1       3.781  14.536  19.993  0.00  0.00    +0.000 A 
ATOM     32  C   UNL     1       2.747  14.207  20.871  0.00  0.00    +0.000 A 
ENDBRANCH  26  27
ENDBRANCH  25  26
ENDBRANCH  24  25
ENDBRANCH   7  24
TORSDOF 9
ENDMDL
MODEL 7
REMARK VINA RESULT:      -7.3      6.482      9.191
REMARK  Name = 
REMARK  9 active torsions:
REMARK  status: ('A' for Active; 'I' for Inactive)
REMARK    1  A    between atoms: N_3  and  C_4
REMARK    2  A    between atoms: C_4  and  C_5
REMARK    3  A    between atoms: C_5  and  C_6
REMARK    4  A    between atoms: C_6  and  S_7
REMARK    5  A    between atoms: S_7  and  C_8
REMARK    6  A    between atoms: N_20  and  C_21
REMARK    7  A    between atoms: C_21  and  C_22
REMARK    8  A    between atoms: C_22  and  C_23
REMARK    9  A    between atoms: C_23  and  C_24
REMARK                            x       y       z     vdW  Elec       q    Type
REMARK                         _______ _______ _______ _____ _____    ______ ____
ROOT
ATOM      1  O   UNL     1       1.457   9.345  19.010  0.00  0.00    +0.000 OA
ATOM      2  C   UNL     1       1.898   8.274  19.412  0.00  0.00    +0.000 C 
ATOM      3  N   UNL     1       1.899   7.890  20.720  0.00  0.00    +0.000 N 
ATOM      4  N   UNL     1       2.437   7.376  18.520  0.00  0.00    +0.000 N 
ATOM      5  C   UNL     1       2.927   6.118  18.782  0.00  0.00    +0.000 C 
ATOM      6  O   UNL     1       2.948   5.607  19.899  0.00  0.00    +0.000 OA
ATOM      7  N   UNL     1       3.417   5.485  17.666  0.00  0.00    +0.000 N 
ATOM      8  H   UNL     1       2.259   6.958  20.920  0.00  0.00    +0.000 HD
ATOM      9  H   UNL     1       2.431   7.710  17.573  0.00  0.00    +0.000 HD
ATOM     10  H   UNL     1       3.278   5.895  16.754  0.00  0.00    +0.000 HD
ENDROOT
BRANCH   3  11
ATOM     11  C   UNL     1       1.343   8.675  21.796  0.00  0.00    +0.000 C 
BRANCH  11  12
ATOM     12  C   UNL     1      -0.169   8.873  21.674  0.00  0.00    +0.000 C 
BRANCH  12  13
ATOM     13  C   UNL     1      -0.660  10.152  22.360  0.00  0.00    +0.000 C 
BRANCH  13  14
ATOM     14  S   UNL     1      -0.224  11.601  21.344  0.00  0.00    +0.000 S 
BRANCH  14  15
ATOM     15  C   UNL     1      -1.322  11.422  19.987  0.00  0.00    +0.000 A 
ATOM     16  N   UNL     1      -1.077  10.599  18.995  0.00  0.00    +0.000 NA
ATOM     17  C   UNL     1      -2.097  10.680  18.060  0.00  0.00    +0.000 A 
ATOM     18  C   UNL     1      -2.170   9.954  16.854  0.00  0.00    +0.000 A 
ATOM     19  C   UNL     1      -3.256  10.137  15.992  0.00  0.00    +0.000 A 
ATOM     20  C   UNL     1      -4.272  11.031  16.318  0.00  0.00    +0.000 A 
ATOM     21  C   UNL     1      -4.226  11.762  17.509  0.00  0.00    +0.000 A 
ATOM     22  C   UNL     1      -3.128  11.573  18.367  0.00  0.00    +0.000 A 
ATOM     23  S   UNL     1      -2.780  12.317  19.882  0.00  0.00    +0.000 S 
ENDBRANCH  14  15
ENDBRANCH  13  14
ENDBRANCH  12  13
ENDBRANCH  11  12
ENDBRANCH   3  11
BRANCH   7  24
ATOM     24  C   UNL     1       3.966   4.143  17.747  0.00  0.00    +0.000 C 
BRANCH  24  25
ATOM     25  C   UNL     1       4.793   3.761  16.519  0.00  0.00    +0.000 C 
BRANCH  25  26
ATOM     26  C   UNL     1       5.464   4.973  15.869  0.00  0.00    +0.000 C 
BRANCH  26  27
ATOM     27  C   UNL     1       6.035   4.648  14.511  0.00  0.00    +0.000 A 
ATOM     28  C   UNL     1       5.388   3.734  13.668  0.00  0.00    +0.000 A 
ATOM     29  C   UNL     1       5.921   3.427  12.415  0.00  0.00    +0.000 A 
ATOM     30  C   UNL     1       7.107   4.025  11.994  0.00  0.00    +0.000 A 
ATOM     31  C   UNL     1       7.762   4.930  12.827  0.00  0.00    +0.000 A 
ATOM     32  C   UNL     1       7.232   5.239  14.082  0.00  0.00    +0.000 A 
ENDBRANCH  26  27
ENDBRANCH  25  26
ENDBRANCH  24  25
ENDBRANCH   7  24
TORSDOF 9
ENDMDL
MODEL 8
REMARK VINA RESULT:      -7.3      6.955      9.971
REMARK  Name = 
REMARK  9 active torsions:
REMARK  status: ('A' for Active; 'I' for Inactive)
REMARK    1  A    between atoms: N_3  and  C_4
REMARK    2  A    between atoms: C_4  and  C_5
REMARK    3  A    between atoms: C_5  and  C_6
REMARK    4  A    between atoms: C_6  and  S_7
REMARK    5  A    between atoms: S_7  and  C_8
REMARK    6  A    between atoms: N_20  and  C_21
REMARK    7  A    between atoms: C_21  and  C_22
REMARK    8  A    between atoms: C_22  and  C_23
REMARK    9  A    between atoms: C_23  and  C_24
REMARK                            x       y       z     vdW  Elec       q    Type
REMARK                         _______ _______ _______ _____ _____    ______ ____
ROOT
ATOM      1  O   UNL     1       2.710   7.567  18.976  0.00  0.00    +0.000 OA
ATOM      2  C   UNL     1       1.907   7.703  19.893  0.00  0.00    +0.000 C 
ATOM      3  N   UNL     1       1.591   6.721  20.784  0.00  0.00    +0.000 N 
ATOM      4  N   UNL     1       1.261   8.905  20.066  0.00  0.00    +0.000 N 
ATOM      5  C   UNL     1       0.375   9.250  21.059  0.00  0.00    +0.000 C 
ATOM      6  O   UNL     1       0.030   8.496  21.966  0.00  0.00    +0.000 OA
ATOM      7  N   UNL     1      -0.111  10.528  20.931  0.00  0.00    +0.000 N 
ATOM      8  H   UNL     1       0.937   6.972  21.524  0.00  0.00    +0.000 HD
ATOM      9  H   UNL     1       1.511   9.590  19.376  0.00  0.00    +0.000 HD
ATOM     10  H   UNL     1       0.283  11.149  20.238  0.00  0.00    +0.000 HD
ENDROOT
BRANCH   3  11
ATOM     11  C   UNL     1       2.192   5.408  20.792  0.00  0.00    +0.000 C 
BRANCH  11  12
ATOM     12  C   UNL     1       1.240   4.310  20.316  0.00  0.00    +0.000 C 
BRANCH  12  13
ATOM     13  C   UNL     1       1.590   3.782  18.921  0.00  0.00    +0.000 C 
BRANCH  13  14
ATOM     14  S   UNL     1       3.117   2.791  19.004  0.00  0.00    +0.000 S 
BRANCH  14  15
ATOM     15  C   UNL     1       4.335   3.989  18.604  0.00  0.00    +0.000 A 
ATOM     16  N   UNL     1       5.414   4.157  19.332  0.00  0.00    +0.000 NA
ATOM     17  C   UNL     1       6.183   5.179  18.796  0.00  0.00    +0.000 A 
ATOM     18  C   UNL     1       7.404   5.651  19.317  0.00  0.00    +0.000 A 
ATOM     19  C   UNL     1       8.077   6.699  18.679  0.00  0.00    +0.000 A 
ATOM     20  C   UNL     1       7.551   7.279  17.529  0.00  0.00    +0.000 A 
ATOM     21  C   UNL     1       6.343   6.827  16.991  0.00  0.00    +0.000 A 
ATOM     22  C   UNL     1       5.673   5.776  17.641  0.00  0.00    +0.000 A 
ATOM     23  S   UNL     1       4.182   5.010  17.236  0.00  0.00    +0.000 S 
ENDBRANCH  14  15
ENDBRANCH  13  14
ENDBRANCH  12  13
ENDBRANCH  11  12
ENDBRANCH   3  11
BRANCH   7  24
ATOM     24  C   UNL     1      -1.050  11.073  21.895  0.00  0.00    +0.000 C 
BRANCH  24  25
ATOM     25  C   UNL     1      -0.690  12.489  22.345  0.00  0.00    +0.000 C 
BRANCH  25  26
ATOM     26  C   UNL     1      -1.753  13.515  21.944  0.00  0.00    +0.000 C 
BRANCH  26  27
ATOM     27  C   UNL     1      -3.085  13.240  22.598  0.00  0.00    +0.000 A 
ATOM     28  C   UNL     1      -4.248  13.134  21.824  0.00  0.00    +0.000 A 
ATOM     29  C   UNL     1      -5.482  12.887  22.430  0.00  0.00    +0.000 A 
ATOM     30  C   UNL     1      -5.565  12.750  23.814  0.00  0.00    +0.000 A 
ATOM     31  C   UNL     1      -4.415  12.861  24.593  0.00  0.00    +0.000 A 
ATOM     32  C   UNL     1      -3.180  13.107  23.990  0.00  0.00    +0.000 A 
ENDBRANCH  26  27
ENDBRANCH  25  26
ENDBRANCH  24  25
ENDBRANCH   7  24
TORSDOF 9
ENDMDL
MODEL 9
REMARK VINA RESULT:      -7.3      1.580      2.212
REMARK  Name = 
REMARK  9 active torsions:
REMARK  status: ('A' for Active; 'I' for Inactive)
REMARK    1  A    between atoms: N_3  and  C_4
REMARK    2  A    between atoms: C_4  and  C_5
REMARK    3  A    between atoms: C_5  and  C_6
REMARK    4  A    between atoms: C_6  and  S_7
REMARK    5  A    between atoms: S_7  and  C_8
REMARK    6  A    between atoms: N_20  and  C_21
REMARK    7  A    between atoms: C_21  and  C_22
REMARK    8  A    between atoms: C_22  and  C_23
REMARK    9  A    between atoms: C_23  and  C_24
REMARK                            x       y       z     vdW  Elec       q    Type
REMARK                         _______ _______ _______ _____ _____    ______ ____
ROOT
ATOM      1  O   UNL     1       8.007   6.260  18.970  0.00  0.00    +0.000 OA
ATOM      2  C   UNL     1       7.987   7.379  18.467  0.00  0.00    +0.000 C 
ATOM      3  N   UNL     1       7.208   7.725  17.405  0.00  0.00    +0.000 N 
ATOM      4  N   UNL     1       8.788   8.374  18.978  0.00  0.00    +0.000 N 
ATOM      5  C   UNL     1       8.857   9.688  18.579  0.00  0.00    +0.000 C 
ATOM      6  O   UNL     1       8.181  10.168  17.672  0.00  0.00    +0.000 OA
ATOM      7  N   UNL     1       9.781  10.420  19.283  0.00  0.00    +0.000 N 
ATOM      8  H   UNL     1       7.253   8.699  17.106  0.00  0.00    +0.000 HD
ATOM      9  H   UNL     1       9.356   8.067  19.747  0.00  0.00    +0.000 HD
ATOM     10  H   UNL     1      10.233  10.016  20.091  0.00  0.00    +0.000 HD
ENDROOT
BRANCH   3  11
ATOM     11  C   UNL     1       6.273   6.834  16.759  0.00  0.00    +0.000 C 
BRANCH  11  12
ATOM     12  C   UNL     1       6.955   5.783  15.883  0.00  0.00    +0.000 C 
BRANCH  12  13
ATOM     13  C   UNL     1       6.784   4.358  16.420  0.00  0.00    +0.000 C 
BRANCH  13  14
ATOM     14  S   UNL     1       5.256   3.627  15.746  0.00  0.00    +0.000 S 
BRANCH  14  15
ATOM     15  C   UNL     1       4.237   3.566  17.173  0.00  0.00    +0.000 A 
ATOM     16  N   UNL     1       2.974   3.214  17.114  0.00  0.00    +0.000 NA
ATOM     17  C   UNL     1       2.414   3.276  18.381  0.00  0.00    +0.000 A 
ATOM     18  C   UNL     1       1.074   2.983  18.704  0.00  0.00    +0.000 A 
ATOM     19  C   UNL     1       0.634   3.094  20.027  0.00  0.00    +0.000 A 
ATOM     20  C   UNL     1       1.512   3.489  21.031  0.00  0.00    +0.000 A 
ATOM     21  C   UNL     1       2.847   3.783  20.738  0.00  0.00    +0.000 A 
ATOM     22  C   UNL     1       3.278   3.672  19.405  0.00  0.00    +0.000 A 
ATOM     23  S   UNL     1       4.836   3.966  18.728  0.00  0.00    +0.000 S 
ENDBRANCH  14  15
ENDBRANCH  13  14
ENDBRANCH  12  13
ENDBRANCH  11  12
ENDBRANCH   3  11
BRANCH   7  24
ATOM     24  C   UNL     1       9.987  11.831  19.008  0.00  0.00    +0.000 C 
BRANCH  24  25
ATOM     25  C   UNL     1      11.099  12.086  17.992  0.00  0.00    +0.000 C 
BRANCH  25  26
ATOM     26  C   UNL     1      10.866  13.364  17.183  0.00  0.00    +0.000 C 
BRANCH  26  27
ATOM     27  C   UNL     1      10.923  14.601  18.045  0.00  0.00    +0.000 A 
ATOM     28  C   UNL     1       9.820  15.462  18.126  0.00  0.00    +0.000 A 
ATOM     29  C   UNL     1       9.875  16.611  18.917  0.00  0.00    +0.000 A 
ATOM     30  C   UNL     1      11.033  16.913  19.631  0.00  0.00    +0.000 A 
ATOM     31  C   UNL     1      12.137  16.068  19.552  0.00  0.00    +0.000 A 
ATOM     32  C   UNL     1      12.085  14.918  18.761  0.00  0.00    +0.000 A 
ENDBRANCH  26  27
ENDBRANCH  25  26
ENDBRANCH  24  25
ENDBRANCH   7  24
TORSDOF 9
ENDMDL
