MODEL 1
REMARK VINA RESULT:      -6.2      0.000      0.000
REMARK  Name = 
REMARK  7 active torsions:
REMARK  status: ('A' for Active; 'I' for Inactive)
REMARK    1  A    between atoms: C_1  and  O_2
REMARK    2  A    between atoms: O_2  and  C_3
REMARK    3  A    between atoms: C_3  and  C_4
REMARK    4  A    between atoms: C_4  and  O_5
REMARK    5  A    between atoms: C_4  and  C_6
REMARK    6  A    between atoms: C_6  and  N_7
REMARK    7  A    between atoms: C_8  and  C_9
REMARK                            x       y       z     vdW  Elec       q    Type
REMARK                         _______ _______ _______ _____ _____    ______ ____
ROOT
ATOM      1  N   UNL     1       4.095   4.800  18.238  0.00  0.00    +0.000 N 
ATOM      2  C   UNL     1       4.004   4.083  17.057  0.00  0.00    +0.000 A 
ATOM      3  N   UNL     1       2.978   3.257  17.099  0.00  0.00    +0.000 NA
ATOM      4  C   UNL     1       2.388   3.439  18.325  0.00  0.00    +0.000 A 
ATOM      5  C   UNL     1       1.270   2.804  18.885  0.00  0.00    +0.000 A 
ATOM      6  C   UNL     1       0.871   3.157  20.181  0.00  0.00    +0.000 A 
ATOM      7  C   UNL     1       1.564   4.129  20.901  0.00  0.00    +0.000 A 
ATOM      8  C   UNL     1       2.672   4.784  20.353  0.00  0.00    +0.000 A 
ATOM      9  C   UNL     1       3.064   4.407  19.063  0.00  0.00    +0.000 A 
ENDROOT
BRANCH   2  10
ATOM     10  C   UNL     1       4.908   4.183  15.956  0.00  0.00    +0.000 C 
ATOM     11  N   UNL     1       5.577   4.258  15.008  0.00  0.00    +0.000 NA
ENDBRANCH   2  10
BRANCH   1  12
ATOM     12  C   UNL     1       5.106   5.778  18.567  0.00  0.00    +0.000 C 
BRANCH  12  13
ATOM     13  C   UNL     1       6.532   5.225  18.661  0.00  0.00    +0.000 C 
BRANCH  13  14
ATOM     14  O   UNL     1       6.921   5.312  20.042  0.00  0.00    +0.000 OA
ATOM     15  H   UNL     1       6.250   4.860  20.583  0.00  0.00    +0.000 HD
ENDBRANCH  13  14
BRANCH  13  16
ATOM     16  C   UNL     1       7.516   5.972  17.744  0.00  0.00    +0.000 C 
BRANCH  16  18
ATOM     17  C   UNL     1       7.862   8.303  17.690  0.00  0.00    +0.000 C 
ATOM     18  O   UNL     1       8.043   7.104  18.438  0.00  0.00    +0.000 OA
ENDBRANCH  16  18
ENDBRANCH  13  16
ENDBRANCH  12  13
ENDBRANCH   1  12
TORSDOF 6
ENDMDL
MODEL 2
REMARK VINA RESULT:      -6.2      2.706      4.049
REMARK  Name = 
REMARK  7 active torsions:
REMARK  status: ('A' for Active; 'I' for Inactive)
REMARK    1  A    between atoms: C_1  and  O_2
REMARK    2  A    between atoms: O_2  and  C_3
REMARK    3  A    between atoms: C_3  and  C_4
REMARK    4  A    between atoms: C_4  and  O_5
REMARK    5  A    between atoms: C_4  and  C_6
REMARK    6  A    between atoms: C_6  and  N_7
REMARK    7  A    between atoms: C_8  and  C_9
REMARK                            x       y       z     vdW  Elec       q    Type
REMARK                         _______ _______ _______ _____ _____    ______ ____
ROOT
ATOM      1  N   UNL     1       5.430   4.782  17.513  0.00  0.00    +0.000 N 
ATOM      2  C   UNL     1       6.162   5.069  18.651  0.00  0.00    +0.000 A 
ATOM      3  N   UNL     1       5.654   4.444  19.695  0.00  0.00    +0.000 NA
ATOM      4  C   UNL     1       4.575   3.736  19.229  0.00  0.00    +0.000 A 
ATOM      5  C   UNL     1       3.676   2.911  19.923  0.00  0.00    +0.000 A 
ATOM      6  C   UNL     1       2.629   2.307  19.215  0.00  0.00    +0.000 A 
ATOM      7  C   UNL     1       2.484   2.510  17.843  0.00  0.00    +0.000 A 
ATOM      8  C   UNL     1       3.380   3.316  17.132  0.00  0.00    +0.000 A 
ATOM      9  C   UNL     1       4.410   3.923  17.860  0.00  0.00    +0.000 A 
ENDROOT
BRANCH   2  10
ATOM     10  C   UNL     1       7.287   5.947  18.714  0.00  0.00    +0.000 C 
ATOM     11  N   UNL     1       8.150   6.723  18.784  0.00  0.00    +0.000 NA
ENDBRANCH   2  10
BRANCH   1  12
ATOM     12  C   UNL     1       5.671   5.306  16.188  0.00  0.00    +0.000 C 
BRANCH  12  13
ATOM     13  C   UNL     1       6.724   4.546  15.376  0.00  0.00    +0.000 C 
BRANCH  13  14
ATOM     14  O   UNL     1       7.701   5.513  14.954  0.00  0.00    +0.000 OA
ATOM     15  H   UNL     1       7.403   5.911  14.118  0.00  0.00    +0.000 HD
ENDBRANCH  13  14
BRANCH  13  16
ATOM     16  C   UNL     1       6.116   3.792  14.181  0.00  0.00    +0.000 C 
BRANCH  16  18
ATOM     17  C   UNL     1       6.577   3.317  11.918  0.00  0.00    +0.000 C 
ATOM     18  O   UNL     1       6.709   4.268  12.970  0.00  0.00    +0.000 OA
ENDBRANCH  16  18
ENDBRANCH  13  16
ENDBRANCH  12  13
ENDBRANCH   1  12
TORSDOF 6
ENDMDL
MODEL 3
REMARK VINA RESULT:      -6.2      2.472      3.659
REMARK  Name = 
REMARK  7 active torsions:
REMARK  status: ('A' for Active; 'I' for Inactive)
REMARK    1  A    between atoms: C_1  and  O_2
REMARK    2  A    between atoms: O_2  and  C_3
REMARK    3  A    between atoms: C_3  and  C_4
REMARK    4  A    between atoms: C_4  and  O_5
REMARK    5  A    between atoms: C_4  and  C_6
REMARK    6  A    between atoms: C_6  and  N_7
REMARK    7  A    between atoms: C_8  and  C_9
REMARK                            x       y       z     vdW  Elec       q    Type
REMARK                         _______ _______ _______ _____ _____    ______ ____
ROOT
ATOM      1  N   UNL     1       3.864   5.497  18.177  0.00  0.00    +0.000 N 
ATOM      2  C   UNL     1       3.709   4.736  19.324  0.00  0.00    +0.000 A 
ATOM      3  N   UNL     1       2.945   5.367  20.193  0.00  0.00    +0.000 NA
ATOM      4  C   UNL     1       2.593   6.555  19.604  0.00  0.00    +0.000 A 
ATOM      5  C   UNL     1       1.802   7.603  20.100  0.00  0.00    +0.000 A 
ATOM      6  C   UNL     1       1.605   8.737  19.302  0.00  0.00    +0.000 A 
ATOM      7  C   UNL     1       2.174   8.824  18.032  0.00  0.00    +0.000 A 
ATOM      8  C   UNL     1       2.953   7.783  17.515  0.00  0.00    +0.000 A 
ATOM      9  C   UNL     1       3.151   6.665  18.334  0.00  0.00    +0.000 A 
ENDROOT
BRANCH   2  10
ATOM     10  C   UNL     1       4.316   3.466  19.564  0.00  0.00    +0.000 C 
ATOM     11  N   UNL     1       4.786   2.440  19.840  0.00  0.00    +0.000 NA
ENDBRANCH   2  10
BRANCH   1  12
ATOM     12  C   UNL     1       4.654   5.144  17.020  0.00  0.00    +0.000 C 
BRANCH  12  13
ATOM     13  C   UNL     1       6.067   5.736  16.998  0.00  0.00    +0.000 C 
BRANCH  13  14
ATOM     14  O   UNL     1       6.161   6.542  15.812  0.00  0.00    +0.000 OA
ATOM     15  H   UNL     1       5.907   5.998  15.046  0.00  0.00    +0.000 HD
ENDBRANCH  13  14
BRANCH  13  16
ATOM     16  C   UNL     1       7.160   4.654  17.041  0.00  0.00    +0.000 C 
BRANCH  16  18
ATOM     17  C   UNL     1       7.706   5.727  19.068  0.00  0.00    +0.000 C 
ATOM     18  O   UNL     1       7.600   4.480  18.390  0.00  0.00    +0.000 OA
ENDBRANCH  16  18
ENDBRANCH  13  16
ENDBRANCH  12  13
ENDBRANCH   1  12
TORSDOF 6
ENDMDL
MODEL 4
REMARK VINA RESULT:      -6.2      2.452      3.437
REMARK  Name = 
REMARK  7 active torsions:
REMARK  status: ('A' for Active; 'I' for Inactive)
REMARK    1  A    between atoms: C_1  and  O_2
REMARK    2  A    between atoms: O_2  and  C_3
REMARK    3  A    between atoms: C_3  and  C_4
REMARK    4  A    between atoms: C_4  and  O_5
REMARK    5  A    between atoms: C_4  and  C_6
REMARK    6  A    between atoms: C_6  and  N_7
REMARK    7  A    between atoms: C_8  and  C_9
REMARK                            x       y       z     vdW  Elec       q    Type
REMARK                         _______ _______ _______ _____ _____    ______ ____
ROOT
ATOM      1  N   UNL     1       4.484   5.063  18.191  0.00  0.00    +0.000 N 
ATOM      2  C   UNL     1       5.454   4.587  19.056  0.00  0.00    +0.000 A 
ATOM      3  N   UNL     1       4.986   3.573  19.758  0.00  0.00    +0.000 NA
ATOM      4  C   UNL     1       3.692   3.384  19.343  0.00  0.00    +0.000 A 
ATOM      5  C   UNL     1       2.740   2.447  19.773  0.00  0.00    +0.000 A 
ATOM      6  C   UNL     1       1.462   2.470  19.199  0.00  0.00    +0.000 A 
ATOM      7  C   UNL     1       1.141   3.399  18.210  0.00  0.00    +0.000 A 
ATOM      8  C   UNL     1       2.081   4.330  17.758  0.00  0.00    +0.000 A 
ATOM      9  C   UNL     1       3.348   4.301  18.354  0.00  0.00    +0.000 A 
ENDROOT
BRANCH   2  10
ATOM     10  C   UNL     1       6.766   5.128  19.209  0.00  0.00    +0.000 C 
ATOM     11  N   UNL     1       7.812   5.595  19.410  0.00  0.00    +0.000 NA
ENDBRANCH   2  10
BRANCH   1  12
ATOM     12  C   UNL     1       4.623   6.180  17.285  0.00  0.00    +0.000 C 
BRANCH  12  13
ATOM     13  C   UNL     1       5.462   5.897  16.035  0.00  0.00    +0.000 C 
BRANCH  13  14
ATOM     14  O   UNL     1       5.152   6.929  15.085  0.00  0.00    +0.000 OA
ATOM     15  H   UNL     1       5.904   7.025  14.474  0.00  0.00    +0.000 HD
ENDBRANCH  13  14
BRANCH  13  16
ATOM     16  C   UNL     1       5.205   4.494  15.458  0.00  0.00    +0.000 C 
BRANCH  16  18
ATOM     17  C   UNL     1       6.308   3.863  13.472  0.00  0.00    +0.000 C 
ATOM     18  O   UNL     1       6.414   3.989  14.887  0.00  0.00    +0.000 OA
ENDBRANCH  16  18
ENDBRANCH  13  16
ENDBRANCH  12  13
ENDBRANCH   1  12
TORSDOF 6
ENDMDL
MODEL 5
REMARK VINA RESULT:      -6.1      1.612      2.176
REMARK  Name = 
REMARK  7 active torsions:
REMARK  status: ('A' for Active; 'I' for Inactive)
REMARK    1  A    between atoms: C_1  and  O_2
REMARK    2  A    between atoms: O_2  and  C_3
REMARK    3  A    between atoms: C_3  and  C_4
REMARK    4  A    between atoms: C_4  and  O_5
REMARK    5  A    between atoms: C_4  and  C_6
REMARK    6  A    between atoms: C_6  and  N_7
REMARK    7  A    between atoms: C_8  and  C_9
REMARK                            x       y       z     vdW  Elec       q    Type
REMARK                         _______ _______ _______ _____ _____    ______ ____
ROOT
ATOM      1  N   UNL     1       6.298   4.391  17.311  0.00  0.00    +0.000 N 
ATOM      2  C   UNL     1       5.998   4.575  15.972  0.00  0.00    +0.000 A 
ATOM      3  N   UNL     1       4.728   4.305  15.745  0.00  0.00    +0.000 NA
ATOM      4  C   UNL     1       4.190   3.942  16.954  0.00  0.00    +0.000 A 
ATOM      5  C   UNL     1       2.882   3.548  17.272  0.00  0.00    +0.000 A 
ATOM      6  C   UNL     1       2.583   3.203  18.596  0.00  0.00    +0.000 A 
ATOM      7  C   UNL     1       3.562   3.259  19.587  0.00  0.00    +0.000 A 
ATOM      8  C   UNL     1       4.868   3.665  19.292  0.00  0.00    +0.000 A 
ATOM      9  C   UNL     1       5.150   3.991  17.960  0.00  0.00    +0.000 A 
ENDROOT
BRANCH   2  10
ATOM     10  C   UNL     1       6.928   4.962  14.960  0.00  0.00    +0.000 C 
ATOM     11  N   UNL     1       7.738   5.221  14.167  0.00  0.00    +0.000 NA
ENDBRANCH   2  10
BRANCH   1  12
ATOM     12  C   UNL     1       7.594   4.563  17.926  0.00  0.00    +0.000 C 
BRANCH  12  13
ATOM     13  C   UNL     1       7.811   5.920  18.604  0.00  0.00    +0.000 C 
BRANCH  13  14
ATOM     14  O   UNL     1       7.578   5.725  20.009  0.00  0.00    +0.000 OA
ATOM     15  H   UNL     1       7.224   6.552  20.382  0.00  0.00    +0.000 HD
ENDBRANCH  13  14
BRANCH  13  16
ATOM     16  C   UNL     1       6.905   7.020  18.023  0.00  0.00    +0.000 C 
BRANCH  16  18
ATOM     17  C   UNL     1       8.227   8.973  17.980  0.00  0.00    +0.000 C 
ATOM     18  O   UNL     1       7.689   7.899  17.213  0.00  0.00    +0.000 OA
ENDBRANCH  16  18
ENDBRANCH  13  16
ENDBRANCH  12  13
ENDBRANCH   1  12
TORSDOF 6
ENDMDL
MODEL 6
REMARK VINA RESULT:      -6.1      2.117      3.068
REMARK  Name = 
REMARK  7 active torsions:
REMARK  status: ('A' for Active; 'I' for Inactive)
REMARK    1  A    between atoms: C_1  and  O_2
REMARK    2  A    between atoms: O_2  and  C_3
REMARK    3  A    between atoms: C_3  and  C_4
REMARK    4  A    between atoms: C_4  and  O_5
REMARK    5  A    between atoms: C_4  and  C_6
REMARK    6  A    between atoms: C_6  and  N_7
REMARK    7  A    between atoms: C_8  and  C_9
REMARK                            x       y       z     vdW  Elec       q    Type
REMARK                         _______ _______ _______ _____ _____    ______ ____
ROOT
ATOM      1  N   UNL     1       3.597   5.529  18.286  0.00  0.00    +0.000 N 
ATOM      2  C   UNL     1       2.777   6.568  18.692  0.00  0.00    +0.000 A 
ATOM      3  N   UNL     1       2.138   6.243  19.798  0.00  0.00    +0.000 NA
ATOM      4  C   UNL     1       2.549   4.974  20.121  0.00  0.00    +0.000 A 
ATOM      5  C   UNL     1       2.171   4.155  21.195  0.00  0.00    +0.000 A 
ATOM      6  C   UNL     1       2.727   2.873  21.295  0.00  0.00    +0.000 A 
ATOM      7  C   UNL     1       3.648   2.419  20.353  0.00  0.00    +0.000 A 
ATOM      8  C   UNL     1       4.049   3.228  19.285  0.00  0.00    +0.000 A 
ATOM      9  C   UNL     1       3.471   4.499  19.193  0.00  0.00    +0.000 A 
ENDROOT
BRANCH   2  10
ATOM     10  C   UNL     1       2.604   7.806  18.001  0.00  0.00    +0.000 C 
ATOM     11  N   UNL     1       2.422   8.841  17.506  0.00  0.00    +0.000 NA
ENDBRANCH   2  10
BRANCH   1  12
ATOM     12  C   UNL     1       4.429   5.510  17.105  0.00  0.00    +0.000 C 
BRANCH  12  13
ATOM     13  C   UNL     1       5.871   5.979  17.323  0.00  0.00    +0.000 C 
BRANCH  13  14
ATOM     14  O   UNL     1       6.129   6.997  16.342  0.00  0.00    +0.000 OA
ATOM     15  H   UNL     1       5.279   7.371  16.051  0.00  0.00    +0.000 HD
ENDBRANCH  13  14
BRANCH  13  16
ATOM     16  C   UNL     1       6.886   4.828  17.231  0.00  0.00    +0.000 C 
BRANCH  16  18
ATOM     17  C   UNL     1       7.751   5.731  19.229  0.00  0.00    +0.000 C 
ATOM     18  O   UNL     1       7.395   4.539  18.535  0.00  0.00    +0.000 OA
ENDBRANCH  16  18
ENDBRANCH  13  16
ENDBRANCH  12  13
ENDBRANCH   1  12
TORSDOF 6
ENDMDL
MODEL 7
REMARK VINA RESULT:      -6.1      2.820      4.113
REMARK  Name = 
REMARK  7 active torsions:
REMARK  status: ('A' for Active; 'I' for Inactive)
REMARK    1  A    between atoms: C_1  and  O_2
REMARK    2  A    between atoms: O_2  and  C_3
REMARK    3  A    between atoms: C_3  and  C_4
REMARK    4  A    between atoms: C_4  and  O_5
REMARK    5  A    between atoms: C_4  and  C_6
REMARK    6  A    between atoms: C_6  and  N_7
REMARK    7  A    between atoms: C_8  and  C_9
REMARK                            x       y       z     vdW  Elec       q    Type
REMARK                         _______ _______ _______ _____ _____    ______ ____
ROOT
ATOM      1  N   UNL     1       5.634   5.019  17.038  0.00  0.00    +0.000 N 
ATOM      2  C   UNL     1       5.636   6.359  17.386  0.00  0.00    +0.000 A 
ATOM      3  N   UNL     1       4.443   6.726  17.810  0.00  0.00    +0.000 NA
ATOM      4  C   UNL     1       3.650   5.608  17.740  0.00  0.00    +0.000 A 
ATOM      5  C   UNL     1       2.294   5.448  18.061  0.00  0.00    +0.000 A 
ATOM      6  C   UNL     1       1.700   4.193  17.882  0.00  0.00    +0.000 A 
ATOM      7  C   UNL     1       2.443   3.114  17.402  0.00  0.00    +0.000 A 
ATOM      8  C   UNL     1       3.800   3.250  17.092  0.00  0.00    +0.000 A 
ATOM      9  C   UNL     1       4.371   4.517  17.264  0.00  0.00    +0.000 A 
ENDROOT
BRANCH   2  10
ATOM     10  C   UNL     1       6.752   7.244  17.270  0.00  0.00    +0.000 C 
ATOM     11  N   UNL     1       7.621   8.014  17.231  0.00  0.00    +0.000 NA
ENDBRANCH   2  10
BRANCH   1  12
ATOM     12  C   UNL     1       6.751   4.274  16.507  0.00  0.00    +0.000 C 
BRANCH  12  13
ATOM     13  C   UNL     1       6.978   4.434  15.001  0.00  0.00    +0.000 C 
BRANCH  13  14
ATOM     14  O   UNL     1       7.818   5.587  14.827  0.00  0.00    +0.000 OA
ATOM     15  H   UNL     1       8.704   5.379  15.171  0.00  0.00    +0.000 HD
ENDBRANCH  13  14
BRANCH  13  16
ATOM     16  C   UNL     1       5.660   4.565  14.217  0.00  0.00    +0.000 C 
BRANCH  16  18
ATOM     17  C   UNL     1       6.623   3.685  12.254  0.00  0.00    +0.000 C 
ATOM     18  O   UNL     1       5.594   3.537  13.227  0.00  0.00    +0.000 OA
ENDBRANCH  16  18
ENDBRANCH  13  16
ENDBRANCH  12  13
ENDBRANCH   1  12
TORSDOF 6
ENDMDL
MODEL 8
REMARK VINA RESULT:      -6.1      2.308      3.269
REMARK  Name = 
REMARK  7 active torsions:
REMARK  status: ('A' for Active; 'I' for Inactive)
REMARK    1  A    between atoms: C_1  and  O_2
REMARK    2  A    between atoms: O_2  and  C_3
REMARK    3  A    between atoms: C_3  and  C_4
REMARK    4  A    between atoms: C_4  and  O_5
REMARK    5  A    between atoms: C_4  and  C_6
REMARK    6  A    between atoms: C_6  and  N_7
REMARK    7  A    between atoms: C_8  and  C_9
REMARK                            x       y       z     vdW  Elec       q    Type
REMARK                         _______ _______ _______ _____ _____    ______ ____
ROOT
ATOM      1  N   UNL     1       3.639   5.667  18.217  0.00  0.00    +0.000 N 
ATOM      2  C   UNL     1       2.805   6.687  18.641  0.00  0.00    +0.000 A 
ATOM      3  N   UNL     1       2.158   6.330  19.732  0.00  0.00    +0.000 NA
ATOM      4  C   UNL     1       2.578   5.057  20.027  0.00  0.00    +0.000 A 
ATOM      5  C   UNL     1       2.196   4.207  21.076  0.00  0.00    +0.000 A 
ATOM      6  C   UNL     1       2.762   2.928  21.150  0.00  0.00    +0.000 A 
ATOM      7  C   UNL     1       3.697   2.506  20.206  0.00  0.00    +0.000 A 
ATOM      8  C   UNL     1       4.102   3.345  19.163  0.00  0.00    +0.000 A 
ATOM      9  C   UNL     1       3.513   4.613  19.097  0.00  0.00    +0.000 A 
ENDROOT
BRANCH   2  10
ATOM     10  C   UNL     1       2.628   7.941  17.980  0.00  0.00    +0.000 C 
ATOM     11  N   UNL     1       2.456   8.992  17.514  0.00  0.00    +0.000 NA
ENDBRANCH   2  10
BRANCH   1  12
ATOM     12  C   UNL     1       4.482   5.684  17.045  0.00  0.00    +0.000 C 
BRANCH  12  13
ATOM     13  C   UNL     1       5.962   5.975  17.318  0.00  0.00    +0.000 C 
BRANCH  13  14
ATOM     14  O   UNL     1       6.221   7.302  16.830  0.00  0.00    +0.000 OA
ATOM     15  H   UNL     1       5.939   7.351  15.900  0.00  0.00    +0.000 HD
ENDBRANCH  13  14
BRANCH  13  16
ATOM     16  C   UNL     1       6.896   4.937  16.672  0.00  0.00    +0.000 C 
BRANCH  16  18
ATOM     17  C   UNL     1       6.871   4.737  14.323  0.00  0.00    +0.000 C 
ATOM     18  O   UNL     1       7.395   5.454  15.437  0.00  0.00    +0.000 OA
ENDBRANCH  16  18
ENDBRANCH  13  16
ENDBRANCH  12  13
ENDBRANCH   1  12
TORSDOF 6
ENDMDL
MODEL 9
REMARK VINA RESULT:      -6.0      2.678      3.860
REMARK  Name = 
REMARK  7 active torsions:
REMARK  status: ('A' for Active; 'I' for Inactive)
REMARK    1  A    between atoms: C_1  and  O_2
REMARK    2  A    between atoms: O_2  and  C_3
REMARK    3  A    between atoms: C_3  and  C_4
REMARK    4  A    between atoms: C_4  and  O_5
REMARK    5  A    between atoms: C_4  and  C_6
REMARK    6  A    between atoms: C_6  and  N_7
REMARK    7  A    between atoms: C_8  and  C_9
REMARK                            x       y       z     vdW  Elec       q    Type
REMARK                         _______ _______ _______ _____ _____    ______ ____
ROOT
ATOM      1  N   UNL     1       3.836   5.634  18.153  0.00  0.00    +0.000 N 
ATOM      2  C   UNL     1       3.698   4.854  19.288  0.00  0.00    +0.000 A 
ATOM      3  N   UNL     1       2.929   5.460  20.171  0.00  0.00    +0.000 NA
ATOM      4  C   UNL     1       2.558   6.653  19.602  0.00  0.00    +0.000 A 
ATOM      5  C   UNL     1       1.754   7.681  20.118  0.00  0.00    +0.000 A 
ATOM      6  C   UNL     1       1.537   8.825  19.339  0.00  0.00    +0.000 A 
ATOM      7  C   UNL     1       2.099   8.939  18.068  0.00  0.00    +0.000 A 
ATOM      8  C   UNL     1       2.889   7.918  17.531  0.00  0.00    +0.000 A 
ATOM      9  C   UNL     1       3.107   6.790  18.331  0.00  0.00    +0.000 A 
ENDROOT
BRANCH   2  10
ATOM     10  C   UNL     1       4.323   3.589  19.506  0.00  0.00    +0.000 C 
ATOM     11  N   UNL     1       4.777   2.546  19.745  0.00  0.00    +0.000 NA
ENDBRANCH   2  10
BRANCH   1  12
ATOM     12  C   UNL     1       4.625   5.311  16.986  0.00  0.00    +0.000 C 
BRANCH  12  13
ATOM     13  C   UNL     1       6.101   5.714  17.073  0.00  0.00    +0.000 C 
BRANCH  13  14
ATOM     14  O   UNL     1       6.205   7.033  16.512  0.00  0.00    +0.000 OA
ATOM     15  H   UNL     1       5.879   7.007  15.595  0.00  0.00    +0.000 HD
ENDBRANCH  13  14
BRANCH  13  16
ATOM     16  C   UNL     1       7.027   4.715  16.357  0.00  0.00    +0.000 C 
BRANCH  16  18
ATOM     17  C   UNL     1       6.962   4.729  14.001  0.00  0.00    +0.000 C 
ATOM     18  O   UNL     1       7.537   5.314  15.165  0.00  0.00    +0.000 OA
ENDBRANCH  16  18
ENDBRANCH  13  16
ENDBRANCH  12  13
ENDBRANCH   1  12
TORSDOF 6
ENDMDL
