MODEL 1
REMARK VINA RESULT:      -8.5      0.000      0.000
REMARK  Name = 
REMARK  9 active torsions:
REMARK  status: ('A' for Active; 'I' for Inactive)
REMARK    1  A    between atoms: C_1  and  C_2
REMARK    2  A    between atoms: C_2  and  C_3
REMARK    3  A    between atoms: C_3  and  C_4
REMARK    4  A    between atoms: C_4  and  C_5
REMARK    5  A    between atoms: C_14  and  C_15
REMARK    6  A    between atoms: C_18  and  C_19
REMARK    7  A    between atoms: C_19  and  C_20
REMARK    8  A    between atoms: C_19  and  C_21
REMARK    9  A    between atoms: C_19  and  C_22
REMARK                            x       y       z     vdW  Elec       q    Type
REMARK                         _______ _______ _______ _____ _____    ______ ____
ROOT
ATOM      1  C   UNL     1       3.301   3.695  17.444  0.00  0.00    +0.000 A 
ATOM      2  N   UNL     1       4.347   3.173  16.833  0.00  0.00    +0.000 NA
ATOM      3  C   UNL     1       5.356   4.057  16.583  0.00  0.00    +0.000 A 
ATOM      4  N   UNL     1       6.554   3.773  15.990  0.00  0.00    +0.000 N 
ATOM      5  N   UNL     1       7.370   4.853  15.882  0.00  0.00    +0.000 NA
ATOM      6  C   UNL     1       6.660   5.852  16.428  0.00  0.00    +0.000 A 
ATOM      7  C   UNL     1       5.424   5.399  16.866  0.00  0.00    +0.000 A 
ATOM      8  C   UNL     1       4.243   5.940  17.514  0.00  0.00    +0.000 A 
ATOM      9  N   UNL     1       3.939   7.144  17.903  0.00  0.00    +0.000 NA
ATOM     10  C   UNL     1       2.664   6.984  18.422  0.00  0.00    +0.000 A 
ATOM     11  N   UNL     1       2.196   5.716  18.382  0.00  0.00    +0.000 NA
ATOM     12  N   UNL     1       3.223   5.066  17.784  0.00  0.00    +0.000 N 
ATOM     13  H   UNL     1       6.877   2.875  15.645  0.00  0.00    +0.000 HD
ENDROOT
BRANCH  10  14
ATOM     14  C   UNL     1       1.928   8.146  18.918  0.00  0.00    +0.000 A 
ATOM     15  C   UNL     1       1.560   8.187  20.267  0.00  0.00    +0.000 A 
ATOM     16  C   UNL     1       0.892   9.290  20.804  0.00  0.00    +0.000 A 
ATOM     17  C   UNL     1       0.561  10.399  20.013  0.00  0.00    +0.000 A 
ATOM     18  C   UNL     1       0.912  10.340  18.649  0.00  0.00    +0.000 A 
ATOM     19  C   UNL     1       1.589   9.232  18.107  0.00  0.00    +0.000 A 
BRANCH  17  20
ATOM     20  C   UNL     1      -0.124  11.643  20.607  0.00  0.00    +0.000 C 
ATOM     21  C   UNL     1      -0.541  11.467  22.087  0.00  0.00    +0.000 C 
ATOM     22  C   UNL     1       0.844  12.845  20.548  0.00  0.00    +0.000 C 
ATOM     23  C   UNL     1      -1.402  11.987  19.813  0.00  0.00    +0.000 C 
ENDBRANCH  17  20
ENDBRANCH  10  14
BRANCH   1  24
ATOM     24  C   UNL     1       2.120   2.840  17.833  0.00  0.00    +0.000 C 
BRANCH  24  25
ATOM     25  C   UNL     1       2.364   2.261  19.229  0.00  0.00    +0.000 C 
BRANCH  25  27
ATOM     26  C   UNL     1       1.962   3.074  21.571  0.00  0.00    +0.000 C 
ATOM     27  C   UNL     1       1.316   2.720  20.240  0.00  0.00    +0.000 C 
ENDBRANCH  25  27
ENDBRANCH  24  25
ENDBRANCH   1  24
TORSDOF 5
ENDMDL
MODEL 2
REMARK VINA RESULT:      -8.5      0.279      1.319
REMARK  Name = 
REMARK  9 active torsions:
REMARK  status: ('A' for Active; 'I' for Inactive)
REMARK    1  A    between atoms: C_1  and  C_2
REMARK    2  A    between atoms: C_2  and  C_3
REMARK    3  A    between atoms: C_3  and  C_4
REMARK    4  A    between atoms: C_4  and  C_5
REMARK    5  A    between atoms: C_14  and  C_15
REMARK    6  A    between atoms: C_18  and  C_19
REMARK    7  A    between atoms: C_19  and  C_20
REMARK    8  A    between atoms: C_19  and  C_21
REMARK    9  A    between atoms: C_19  and  C_22
REMARK                            x       y       z     vdW  Elec       q    Type
REMARK                         _______ _______ _______ _____ _____    ______ ____
ROOT
ATOM      1  C   UNL     1       3.239   3.744  17.450  0.00  0.00    +0.000 A 
ATOM      2  N   UNL     1       4.280   3.206  16.845  0.00  0.00    +0.000 NA
ATOM      3  C   UNL     1       5.305   4.073  16.599  0.00  0.00    +0.000 A 
ATOM      4  N   UNL     1       6.501   3.770  16.014  0.00  0.00    +0.000 N 
ATOM      5  N   UNL     1       7.334   4.838  15.909  0.00  0.00    +0.000 NA
ATOM      6  C   UNL     1       6.637   5.848  16.450  0.00  0.00    +0.000 A 
ATOM      7  C   UNL     1       5.392   5.415  16.881  0.00  0.00    +0.000 A 
ATOM      8  C   UNL     1       4.215   5.975  17.522  0.00  0.00    +0.000 A 
ATOM      9  N   UNL     1       3.928   7.184  17.908  0.00  0.00    +0.000 NA
ATOM     10  C   UNL     1       2.648   7.044  18.420  0.00  0.00    +0.000 A 
ATOM     11  N   UNL     1       2.160   5.784  18.379  0.00  0.00    +0.000 NA
ATOM     12  N   UNL     1       3.180   5.117  17.788  0.00  0.00    +0.000 N 
ATOM     13  H   UNL     1       6.812   2.867  15.671  0.00  0.00    +0.000 HD
ENDROOT
BRANCH  10  14
ATOM     14  C   UNL     1       1.927   8.218  18.910  0.00  0.00    +0.000 A 
ATOM     15  C   UNL     1       1.611   9.241  18.010  0.00  0.00    +0.000 A 
ATOM     16  C   UNL     1       0.888  10.367  18.413  0.00  0.00    +0.000 A 
ATOM     17  C   UNL     1       0.453  10.518  19.737  0.00  0.00    +0.000 A 
ATOM     18  C   UNL     1       0.798   9.496  20.645  0.00  0.00    +0.000 A 
ATOM     19  C   UNL     1       1.521   8.359  20.239  0.00  0.00    +0.000 A 
BRANCH  17  20
ATOM     20  C   UNL     1      -0.391  11.727  20.180  0.00  0.00    +0.000 C 
ATOM     21  C   UNL     1       0.276  13.089  19.870  0.00  0.00    +0.000 C 
ATOM     22  C   UNL     1      -1.748  11.708  19.442  0.00  0.00    +0.000 C 
ATOM     23  C   UNL     1      -0.644  11.681  21.701  0.00  0.00    +0.000 C 
ENDBRANCH  17  20
ENDBRANCH  10  14
BRANCH   1  24
ATOM     24  C   UNL     1       2.044   2.909  17.834  0.00  0.00    +0.000 C 
BRANCH  24  25
ATOM     25  C   UNL     1       2.271   2.326  19.231  0.00  0.00    +0.000 C 
BRANCH  25  27
ATOM     26  C   UNL     1       1.869   2.971  21.624  0.00  0.00    +0.000 C 
ATOM     27  C   UNL     1       1.245   2.828  20.244  0.00  0.00    +0.000 C 
ENDBRANCH  25  27
ENDBRANCH  24  25
ENDBRANCH   1  24
TORSDOF 5
ENDMDL
MODEL 3
REMARK VINA RESULT:      -8.3      1.239      3.712
REMARK  Name = 
REMARK  9 active torsions:
REMARK  status: ('A' for Active; 'I' for Inactive)
REMARK    1  A    between atoms: C_1  and  C_2
REMARK    2  A    between atoms: C_2  and  C_3
REMARK    3  A    between atoms: C_3  and  C_4
REMARK    4  A    between atoms: C_4  and  C_5
REMARK    5  A    between atoms: C_14  and  C_15
REMARK    6  A    between atoms: C_18  and  C_19
REMARK    7  A    between atoms: C_19  and  C_20
REMARK    8  A    between atoms: C_19  and  C_21
REMARK    9  A    between atoms: C_19  and  C_22
REMARK                            x       y       z     vdW  Elec       q    Type
REMARK                         _______ _______ _______ _____ _____    ______ ____
ROOT
ATOM      1  C   UNL     1       4.763   5.305  17.127  0.00  0.00    +0.000 A 
ATOM      2  N   UNL     1       4.982   4.007  17.047  0.00  0.00    +0.000 NA
ATOM      3  C   UNL     1       4.128   3.240  17.785  0.00  0.00    +0.000 A 
ATOM      4  N   UNL     1       4.119   1.876  17.857  0.00  0.00    +0.000 N 
ATOM      5  N   UNL     1       3.144   1.387  18.666  0.00  0.00    +0.000 NA
ATOM      6  C   UNL     1       2.516   2.483  19.117  0.00  0.00    +0.000 A 
ATOM      7  C   UNL     1       3.093   3.632  18.598  0.00  0.00    +0.000 A 
ATOM      8  C   UNL     1       2.901   5.070  18.681  0.00  0.00    +0.000 A 
ATOM      9  N   UNL     1       2.058   5.797  19.354  0.00  0.00    +0.000 NA
ATOM     10  C   UNL     1       2.422   7.088  19.004  0.00  0.00    +0.000 A 
ATOM     11  N   UNL     1       3.443   7.164  18.121  0.00  0.00    +0.000 NA
ATOM     12  N   UNL     1       3.742   5.856  17.938  0.00  0.00    +0.000 N 
ATOM     13  H   UNL     1       4.738   1.226  17.384  0.00  0.00    +0.000 HD
ENDROOT
BRANCH  10  14
ATOM     14  C   UNL     1       1.738   8.227  19.613  0.00  0.00    +0.000 A 
ATOM     15  C   UNL     1       1.424   9.332  18.814  0.00  0.00    +0.000 A 
ATOM     16  C   UNL     1       0.735  10.431  19.333  0.00  0.00    +0.000 A 
ATOM     17  C   UNL     1       0.333  10.473  20.675  0.00  0.00    +0.000 A 
ATOM     18  C   UNL     1       0.676   9.368  21.481  0.00  0.00    +0.000 A 
ATOM     19  C   UNL     1       1.365   8.258  20.959  0.00  0.00    +0.000 A 
BRANCH  17  20
ATOM     20  C   UNL     1      -0.475  11.654  21.244  0.00  0.00    +0.000 C 
ATOM     21  C   UNL     1      -0.995  11.407  22.680  0.00  0.00    +0.000 C 
ATOM     22  C   UNL     1       0.416  12.914  21.294  0.00  0.00    +0.000 C 
ATOM     23  C   UNL     1      -1.705  11.943  20.359  0.00  0.00    +0.000 C 
ENDBRANCH  17  20
ENDBRANCH  10  14
BRANCH   1  24
ATOM     24  C   UNL     1       5.591   6.285  16.335  0.00  0.00    +0.000 C 
BRANCH  24  25
ATOM     25  C   UNL     1       7.071   6.051  16.645  0.00  0.00    +0.000 C 
BRANCH  25  27
ATOM     26  C   UNL     1       7.772   8.253  17.627  0.00  0.00    +0.000 C 
ATOM     27  C   UNL     1       7.523   6.779  17.908  0.00  0.00    +0.000 C 
ENDBRANCH  25  27
ENDBRANCH  24  25
ENDBRANCH   1  24
TORSDOF 5
ENDMDL
MODEL 4
REMARK VINA RESULT:      -8.2      0.724      1.219
REMARK  Name = 
REMARK  9 active torsions:
REMARK  status: ('A' for Active; 'I' for Inactive)
REMARK    1  A    between atoms: C_1  and  C_2
REMARK    2  A    between atoms: C_2  and  C_3
REMARK    3  A    between atoms: C_3  and  C_4
REMARK    4  A    between atoms: C_4  and  C_5
REMARK    5  A    between atoms: C_14  and  C_15
REMARK    6  A    between atoms: C_18  and  C_19
REMARK    7  A    between atoms: C_19  and  C_20
REMARK    8  A    between atoms: C_19  and  C_21
REMARK    9  A    between atoms: C_19  and  C_22
REMARK                            x       y       z     vdW  Elec       q    Type
REMARK                         _______ _______ _______ _____ _____    ______ ____
ROOT
ATOM      1  C   UNL     1       3.860   3.595  18.172  0.00  0.00    +0.000 A 
ATOM      2  N   UNL     1       4.644   3.092  17.238  0.00  0.00    +0.000 NA
ATOM      3  C   UNL     1       5.158   4.012  16.371  0.00  0.00    +0.000 A 
ATOM      4  N   UNL     1       6.014   3.762  15.337  0.00  0.00    +0.000 N 
ATOM      5  N   UNL     1       6.366   4.880  14.649  0.00  0.00    +0.000 NA
ATOM      6  C   UNL     1       5.710   5.867  15.275  0.00  0.00    +0.000 A 
ATOM      7  C   UNL     1       4.961   5.371  16.332  0.00  0.00    +0.000 A 
ATOM      8  C   UNL     1       4.070   5.882  17.359  0.00  0.00    +0.000 A 
ATOM      9  N   UNL     1       3.637   7.082  17.616  0.00  0.00    +0.000 NA
ATOM     10  C   UNL     1       2.807   6.879  18.707  0.00  0.00    +0.000 A 
ATOM     11  N   UNL     1       2.743   5.598  19.135  0.00  0.00    +0.000 NA
ATOM     12  N   UNL     1       3.553   4.974  18.246  0.00  0.00    +0.000 N 
ATOM     13  H   UNL     1       6.396   2.867  15.051  0.00  0.00    +0.000 HD
ENDROOT
BRANCH  10  14
ATOM     14  C   UNL     1       2.060   8.001  19.273  0.00  0.00    +0.000 A 
ATOM     15  C   UNL     1       1.772   9.100  18.457  0.00  0.00    +0.000 A 
ATOM     16  C   UNL     1       1.026  10.182  18.931  0.00  0.00    +0.000 A 
ATOM     17  C   UNL     1       0.539  10.212  20.245  0.00  0.00    +0.000 A 
ATOM     18  C   UNL     1       0.855   9.113  21.070  0.00  0.00    +0.000 A 
ATOM     19  C   UNL     1       1.602   8.020  20.592  0.00  0.00    +0.000 A 
BRANCH  17  20
ATOM     20  C   UNL     1      -0.330  11.373  20.762  0.00  0.00    +0.000 C 
ATOM     21  C   UNL     1      -0.875  11.142  22.192  0.00  0.00    +0.000 C 
ATOM     22  C   UNL     1       0.508  12.669  20.799  0.00  0.00    +0.000 C 
ATOM     23  C   UNL     1      -1.549  11.587  19.840  0.00  0.00    +0.000 C 
ENDBRANCH  17  20
ENDBRANCH  10  14
BRANCH   1  24
ATOM     24  C   UNL     1       3.251   2.715  19.235  0.00  0.00    +0.000 C 
BRANCH  24  25
ATOM     25  C   UNL     1       1.898   2.200  18.739  0.00  0.00    +0.000 C 
BRANCH  25  27
ATOM     26  C   UNL     1       1.183   2.981  21.016  0.00  0.00    +0.000 C 
ATOM     27  C   UNL     1       0.735   2.711  19.587  0.00  0.00    +0.000 C 
ENDBRANCH  25  27
ENDBRANCH  24  25
ENDBRANCH   1  24
TORSDOF 5
ENDMDL
MODEL 5
REMARK VINA RESULT:      -8.2      0.746      1.165
REMARK  Name = 
REMARK  9 active torsions:
REMARK  status: ('A' for Active; 'I' for Inactive)
REMARK    1  A    between atoms: C_1  and  C_2
REMARK    2  A    between atoms: C_2  and  C_3
REMARK    3  A    between atoms: C_3  and  C_4
REMARK    4  A    between atoms: C_4  and  C_5
REMARK    5  A    between atoms: C_14  and  C_15
REMARK    6  A    between atoms: C_18  and  C_19
REMARK    7  A    between atoms: C_19  and  C_20
REMARK    8  A    between atoms: C_19  and  C_21
REMARK    9  A    between atoms: C_19  and  C_22
REMARK                            x       y       z     vdW  Elec       q    Type
REMARK                         _______ _______ _______ _____ _____    ______ ____
ROOT
ATOM      1  C   UNL     1       3.940   3.720  18.418  0.00  0.00    +0.000 A 
ATOM      2  N   UNL     1       4.719   3.190  17.496  0.00  0.00    +0.000 NA
ATOM      3  C   UNL     1       5.157   4.069  16.548  0.00  0.00    +0.000 A 
ATOM      4  N   UNL     1       5.992   3.786  15.504  0.00  0.00    +0.000 N 
ATOM      5  N   UNL     1       6.263   4.866  14.726  0.00  0.00    +0.000 NA
ATOM      6  C   UNL     1       5.576   5.863  15.303  0.00  0.00    +0.000 A 
ATOM      7  C   UNL     1       4.888   5.409  16.418  0.00  0.00    +0.000 A 
ATOM      8  C   UNL     1       4.005   5.950  17.437  0.00  0.00    +0.000 A 
ATOM      9  N   UNL     1       3.518   7.142  17.623  0.00  0.00    +0.000 NA
ATOM     10  C   UNL     1       2.735   6.978  18.755  0.00  0.00    +0.000 A 
ATOM     11  N   UNL     1       2.752   5.731  19.275  0.00  0.00    +0.000 NA
ATOM     12  N   UNL     1       3.564   5.085  18.405  0.00  0.00    +0.000 N 
ATOM     13  H   UNL     1       6.410   2.893  15.269  0.00  0.00    +0.000 HD
ENDROOT
BRANCH  10  14
ATOM     14  C   UNL     1       1.949   8.101  19.264  0.00  0.00    +0.000 A 
ATOM     15  C   UNL     1       1.554   8.095  20.606  0.00  0.00    +0.000 A 
ATOM     16  C   UNL     1       0.837   9.159  21.157  0.00  0.00    +0.000 A 
ATOM     17  C   UNL     1       0.482  10.276  20.388  0.00  0.00    +0.000 A 
ATOM     18  C   UNL     1       0.861  10.264  19.030  0.00  0.00    +0.000 A 
ATOM     19  C   UNL     1       1.588   9.195  18.474  0.00  0.00    +0.000 A 
BRANCH  17  20
ATOM     20  C   UNL     1      -0.259  11.480  20.998  0.00  0.00    +0.000 C 
ATOM     21  C   UNL     1       0.598  12.768  21.046  0.00  0.00    +0.000 C 
ATOM     22  C   UNL     1      -1.511  11.799  20.154  0.00  0.00    +0.000 C 
ATOM     23  C   UNL     1      -0.693  11.170  22.446  0.00  0.00    +0.000 C 
ENDBRANCH  17  20
ENDBRANCH  10  14
BRANCH   1  24
ATOM     24  C   UNL     1       3.412   2.892  19.562  0.00  0.00    +0.000 C 
BRANCH  24  25
ATOM     25  C   UNL     1       2.044   2.324  19.176  0.00  0.00    +0.000 C 
BRANCH  25  27
ATOM     26  C   UNL     1       1.469   2.812  21.571  0.00  0.00    +0.000 C 
ATOM     27  C   UNL     1       0.943   2.749  20.145  0.00  0.00    +0.000 C 
ENDBRANCH  25  27
ENDBRANCH  24  25
ENDBRANCH   1  24
TORSDOF 5
ENDMDL
MODEL 6
REMARK VINA RESULT:      -8.2      1.107      3.528
REMARK  Name = 
REMARK  9 active torsions:
REMARK  status: ('A' for Active; 'I' for Inactive)
REMARK    1  A    between atoms: C_1  and  C_2
REMARK    2  A    between atoms: C_2  and  C_3
REMARK    3  A    between atoms: C_3  and  C_4
REMARK    4  A    between atoms: C_4  and  C_5
REMARK    5  A    between atoms: C_14  and  C_15
REMARK    6  A    between atoms: C_18  and  C_19
REMARK    7  A    between atoms: C_19  and  C_20
REMARK    8  A    between atoms: C_19  and  C_21
REMARK    9  A    between atoms: C_19  and  C_22
REMARK                            x       y       z     vdW  Elec       q    Type
REMARK                         _______ _______ _______ _____ _____    ______ ____
ROOT
ATOM      1  C   UNL     1       4.789   5.128  16.775  0.00  0.00    +0.000 A 
ATOM      2  N   UNL     1       4.990   3.825  16.807  0.00  0.00    +0.000 NA
ATOM      3  C   UNL     1       4.137   3.139  17.623  0.00  0.00    +0.000 A 
ATOM      4  N   UNL     1       4.111   1.786  17.816  0.00  0.00    +0.000 N 
ATOM      5  N   UNL     1       3.143   1.386  18.680  0.00  0.00    +0.000 NA
ATOM      6  C   UNL     1       2.537   2.526  19.041  0.00  0.00    +0.000 A 
ATOM      7  C   UNL     1       3.121   3.617  18.413  0.00  0.00    +0.000 A 
ATOM      8  C   UNL     1       2.949   5.058  18.371  0.00  0.00    +0.000 A 
ATOM      9  N   UNL     1       2.127   5.855  18.988  0.00  0.00    +0.000 NA
ATOM     10  C   UNL     1       2.503   7.104  18.520  0.00  0.00    +0.000 A 
ATOM     11  N   UNL     1       3.511   7.087  17.619  0.00  0.00    +0.000 NA
ATOM     12  N   UNL     1       3.789   5.763  17.548  0.00  0.00    +0.000 N 
ATOM     13  H   UNL     1       4.714   1.089  17.393  0.00  0.00    +0.000 HD
ENDROOT
BRANCH  10  14
ATOM     14  C   UNL     1       1.844   8.303  19.035  0.00  0.00    +0.000 A 
ATOM     15  C   UNL     1       1.442   8.330  20.375  0.00  0.00    +0.000 A 
ATOM     16  C   UNL     1       0.846   9.464  20.932  0.00  0.00    +0.000 A 
ATOM     17  C   UNL     1       0.623  10.620  20.171  0.00  0.00    +0.000 A 
ATOM     18  C   UNL     1       1.008  10.577  18.815  0.00  0.00    +0.000 A 
ATOM     19  C   UNL     1       1.613   9.437  18.254  0.00  0.00    +0.000 A 
BRANCH  17  20
ATOM     20  C   UNL     1       0.018  11.894  20.788  0.00  0.00    +0.000 C 
ATOM     21  C   UNL     1      -0.577  11.669  22.199  0.00  0.00    +0.000 C 
ATOM     22  C   UNL     1       1.114  12.973  20.925  0.00  0.00    +0.000 C 
ATOM     23  C   UNL     1      -1.118  12.439  19.898  0.00  0.00    +0.000 C 
ENDBRANCH  17  20
ENDBRANCH  10  14
BRANCH   1  24
ATOM     24  C   UNL     1       5.617   6.021  15.886  0.00  0.00    +0.000 C 
BRANCH  24  25
ATOM     25  C   UNL     1       7.067   6.006  16.376  0.00  0.00    +0.000 C 
BRANCH  25  27
ATOM     26  C   UNL     1       7.840   8.058  17.599  0.00  0.00    +0.000 C 
ATOM     27  C   UNL     1       7.227   6.673  17.740  0.00  0.00    +0.000 C 
ENDBRANCH  25  27
ENDBRANCH  24  25
ENDBRANCH   1  24
TORSDOF 5
ENDMDL
MODEL 7
REMARK VINA RESULT:      -8.1      1.633      3.815
REMARK  Name = 
REMARK  9 active torsions:
REMARK  status: ('A' for Active; 'I' for Inactive)
REMARK    1  A    between atoms: C_1  and  C_2
REMARK    2  A    between atoms: C_2  and  C_3
REMARK    3  A    between atoms: C_3  and  C_4
REMARK    4  A    between atoms: C_4  and  C_5
REMARK    5  A    between atoms: C_14  and  C_15
REMARK    6  A    between atoms: C_18  and  C_19
REMARK    7  A    between atoms: C_19  and  C_20
REMARK    8  A    between atoms: C_19  and  C_21
REMARK    9  A    between atoms: C_19  and  C_22
REMARK                            x       y       z     vdW  Elec       q    Type
REMARK                         _______ _______ _______ _____ _____    ______ ____
ROOT
ATOM      1  C   UNL     1       4.977   5.360  17.553  0.00  0.00    +0.000 A 
ATOM      2  N   UNL     1       5.365   4.156  17.926  0.00  0.00    +0.000 NA
ATOM      3  C   UNL     1       4.649   3.623  18.959  0.00  0.00    +0.000 A 
ATOM      4  N   UNL     1       4.826   2.388  19.516  0.00  0.00    +0.000 N 
ATOM      5  N   UNL     1       3.956   2.125  20.525  0.00  0.00    +0.000 NA
ATOM      6  C   UNL     1       3.204   3.233  20.603  0.00  0.00    +0.000 A 
ATOM      7  C   UNL     1       3.602   4.169  19.660  0.00  0.00    +0.000 A 
ATOM      8  C   UNL     1       3.223   5.505  19.237  0.00  0.00    +0.000 A 
ATOM      9  N   UNL     1       2.316   6.330  19.672  0.00  0.00    +0.000 NA
ATOM     10  C   UNL     1       2.491   7.435  18.853  0.00  0.00    +0.000 A 
ATOM     11  N   UNL     1       3.459   7.295  17.920  0.00  0.00    +0.000 NA
ATOM     12  N   UNL     1       3.923   6.053  18.194  0.00  0.00    +0.000 N 
ATOM     13  H   UNL     1       5.508   1.683  19.257  0.00  0.00    +0.000 HD
ENDROOT
BRANCH  10  14
ATOM     14  C   UNL     1       1.684   8.635  19.067  0.00  0.00    +0.000 A 
ATOM     15  C   UNL     1       1.095   8.838  20.320  0.00  0.00    +0.000 A 
ATOM     16  C   UNL     1       0.348   9.986  20.594  0.00  0.00    +0.000 A 
ATOM     17  C   UNL     1       0.156  10.980  19.624  0.00  0.00    +0.000 A 
ATOM     18  C   UNL     1       0.730  10.757  18.356  0.00  0.00    +0.000 A 
ATOM     19  C   UNL     1       1.487   9.603  18.080  0.00  0.00    +0.000 A 
BRANCH  17  20
ATOM     20  C   UNL     1      -0.618  12.275  19.932  0.00  0.00    +0.000 C 
ATOM     21  C   UNL     1      -0.239  13.453  19.003  0.00  0.00    +0.000 C 
ATOM     22  C   UNL     1      -2.132  12.027  19.755  0.00  0.00    +0.000 C 
ATOM     23  C   UNL     1      -0.350  12.734  21.380  0.00  0.00    +0.000 C 
ENDBRANCH  17  20
ENDBRANCH  10  14
BRANCH   1  24
ATOM     24  C   UNL     1       5.637   6.066  16.395  0.00  0.00    +0.000 C 
BRANCH  24  25
ATOM     25  C   UNL     1       7.146   6.123  16.641  0.00  0.00    +0.000 C 
BRANCH  25  27
ATOM     26  C   UNL     1       7.870   8.303  17.655  0.00  0.00    +0.000 C 
ATOM     27  C   UNL     1       7.498   6.855  17.934  0.00  0.00    +0.000 C 
ENDBRANCH  25  27
ENDBRANCH  24  25
ENDBRANCH   1  24
TORSDOF 5
ENDMDL
MODEL 8
REMARK VINA RESULT:      -8.1      1.653      3.735
REMARK  Name = 
REMARK  9 active torsions:
REMARK  status: ('A' for Active; 'I' for Inactive)
REMARK    1  A    between atoms: C_1  and  C_2
REMARK    2  A    between atoms: C_2  and  C_3
REMARK    3  A    between atoms: C_3  and  C_4
REMARK    4  A    between atoms: C_4  and  C_5
REMARK    5  A    between atoms: C_14  and  C_15
REMARK    6  A    between atoms: C_18  and  C_19
REMARK    7  A    between atoms: C_19  and  C_20
REMARK    8  A    between atoms: C_19  and  C_21
REMARK    9  A    between atoms: C_19  and  C_22
REMARK                            x       y       z     vdW  Elec       q    Type
REMARK                         _______ _______ _______ _____ _____    ______ ____
ROOT
ATOM      1  C   UNL     1       4.804   5.545  17.767  0.00  0.00    +0.000 A 
ATOM      2  N   UNL     1       5.253   4.317  17.940  0.00  0.00    +0.000 NA
ATOM      3  C   UNL     1       4.616   3.613  18.921  0.00  0.00    +0.000 A 
ATOM      4  N   UNL     1       4.866   2.319  19.283  0.00  0.00    +0.000 N 
ATOM      5  N   UNL     1       4.065   1.879  20.287  0.00  0.00    +0.000 NA
ATOM      6  C   UNL     1       3.282   2.932  20.565  0.00  0.00    +0.000 A 
ATOM      7  C   UNL     1       3.594   4.009  19.748  0.00  0.00    +0.000 A 
ATOM      8  C   UNL     1       3.146   5.375  19.544  0.00  0.00    +0.000 A 
ATOM      9  N   UNL     1       2.238   6.091  20.140  0.00  0.00    +0.000 NA
ATOM     10  C   UNL     1       2.329   7.308  19.482  0.00  0.00    +0.000 A 
ATOM     11  N   UNL     1       3.246   7.343  18.489  0.00  0.00    +0.000 NA
ATOM     12  N   UNL     1       3.767   6.095  18.556  0.00  0.00    +0.000 N 
ATOM     13  H   UNL     1       5.555   1.688  18.890  0.00  0.00    +0.000 HD
ENDROOT
BRANCH  10  14
ATOM     14  C   UNL     1       1.496   8.430  19.910  0.00  0.00    +0.000 A 
ATOM     15  C   UNL     1       1.037   8.466  21.231  0.00  0.00    +0.000 A 
ATOM     16  C   UNL     1       0.272   9.534  21.706  0.00  0.00    +0.000 A 
ATOM     17  C   UNL     1      -0.068  10.613  20.878  0.00  0.00    +0.000 A 
ATOM     18  C   UNL     1       0.376  10.558  19.541  0.00  0.00    +0.000 A 
ATOM     19  C   UNL     1       1.150   9.485  19.062  0.00  0.00    +0.000 A 
BRANCH  17  20
ATOM     20  C   UNL     1      -0.863  11.821  21.406  0.00  0.00    +0.000 C 
ATOM     21  C   UNL     1      -1.486  11.584  22.803  0.00  0.00    +0.000 C 
ATOM     22  C   UNL     1       0.074  13.042  21.529  0.00  0.00    +0.000 C 
ATOM     23  C   UNL     1      -2.019  12.169  20.446  0.00  0.00    +0.000 C 
ENDBRANCH  17  20
ENDBRANCH  10  14
BRANCH   1  24
ATOM     24  C   UNL     1       5.372   6.436  16.691  0.00  0.00    +0.000 C 
BRANCH  24  25
ATOM     25  C   UNL     1       6.895   6.283  16.669  0.00  0.00    +0.000 C 
BRANCH  25  27
ATOM     26  C   UNL     1       7.866   8.362  17.688  0.00  0.00    +0.000 C 
ATOM     27  C   UNL     1       7.558   6.888  17.904  0.00  0.00    +0.000 C 
ENDBRANCH  25  27
ENDBRANCH  24  25
ENDBRANCH   1  24
TORSDOF 5
ENDMDL
MODEL 9
REMARK VINA RESULT:      -8.1      1.232      3.601
REMARK  Name = 
REMARK  9 active torsions:
REMARK  status: ('A' for Active; 'I' for Inactive)
REMARK    1  A    between atoms: C_1  and  C_2
REMARK    2  A    between atoms: C_2  and  C_3
REMARK    3  A    between atoms: C_3  and  C_4
REMARK    4  A    between atoms: C_4  and  C_5
REMARK    5  A    between atoms: C_14  and  C_15
REMARK    6  A    between atoms: C_18  and  C_19
REMARK    7  A    between atoms: C_19  and  C_20
REMARK    8  A    between atoms: C_19  and  C_21
REMARK    9  A    between atoms: C_19  and  C_22
REMARK                            x       y       z     vdW  Elec       q    Type
REMARK                         _______ _______ _______ _____ _____    ______ ____
ROOT
ATOM      1  C   UNL     1       4.823   5.145  16.885  0.00  0.00    +0.000 A 
ATOM      2  N   UNL     1       4.978   3.838  16.969  0.00  0.00    +0.000 NA
ATOM      3  C   UNL     1       4.064   3.208  17.763  0.00  0.00    +0.000 A 
ATOM      4  N   UNL     1       3.983   1.864  17.997  0.00  0.00    +0.000 N 
ATOM      5  N   UNL     1       2.961   1.524  18.825  0.00  0.00    +0.000 NA
ATOM      6  C   UNL     1       2.378   2.695  19.119  0.00  0.00    +0.000 A 
ATOM      7  C   UNL     1       3.028   3.745  18.487  0.00  0.00    +0.000 A 
ATOM      8  C   UNL     1       2.908   5.189  18.391  0.00  0.00    +0.000 A 
ATOM      9  N   UNL     1       2.085   6.032  18.942  0.00  0.00    +0.000 NA
ATOM     10  C   UNL     1       2.525   7.252  18.454  0.00  0.00    +0.000 A 
ATOM     11  N   UNL     1       3.574   7.172  17.604  0.00  0.00    +0.000 NA
ATOM     12  N   UNL     1       3.810   5.838  17.589  0.00  0.00    +0.000 N 
ATOM     13  H   UNL     1       4.581   1.133  17.626  0.00  0.00    +0.000 HD
ENDROOT
BRANCH  10  14
ATOM     14  C   UNL     1       1.884   8.488  18.898  0.00  0.00    +0.000 A 
ATOM     15  C   UNL     1       1.830   9.575  18.019  0.00  0.00    +0.000 A 
ATOM     16  C   UNL     1       1.194  10.767  18.375  0.00  0.00    +0.000 A 
ATOM     17  C   UNL     1       0.587  10.923  19.629  0.00  0.00    +0.000 A 
ATOM     18  C   UNL     1       0.667   9.833  20.520  0.00  0.00    +0.000 A 
ATOM     19  C   UNL     1       1.303   8.630  20.161  0.00  0.00    +0.000 A 
BRANCH  17  20
ATOM     20  C   UNL     1      -0.165  12.211  20.011  0.00  0.00    +0.000 C 
ATOM     21  C   UNL     1      -1.695  12.015  20.137  0.00  0.00    +0.000 C 
ATOM     22  C   UNL     1       0.341  12.720  21.378  0.00  0.00    +0.000 C 
ATOM     23  C   UNL     1       0.066  13.307  18.950  0.00  0.00    +0.000 C 
ENDBRANCH  17  20
ENDBRANCH  10  14
BRANCH   1  24
ATOM     24  C   UNL     1       5.723   5.981  16.011  0.00  0.00    +0.000 C 
BRANCH  24  25
ATOM     25  C   UNL     1       7.154   5.901  16.547  0.00  0.00    +0.000 C 
BRANCH  25  27
ATOM     26  C   UNL     1       7.764   5.933  18.983  0.00  0.00    +0.000 C 
ATOM     27  C   UNL     1       7.362   6.775  17.782  0.00  0.00    +0.000 C 
ENDBRANCH  25  27
ENDBRANCH  24  25
ENDBRANCH   1  24
TORSDOF 5
ENDMDL
