MODEL 1
REMARK VINA RESULT:      -7.3      0.000      0.000
REMARK  Name = 
REMARK  5 active torsions:
REMARK  status: ('A' for Active; 'I' for Inactive)
REMARK    1  A    between atoms: C_1  and  O_2
REMARK    2  A    between atoms: O_2  and  N_3
REMARK    3  A    between atoms: C_9  and  C_10
REMARK    4  A    between atoms: C_11  and  C_12
REMARK    5  A    between atoms: C_20  and  C_21
REMARK                            x       y       z     vdW  Elec       q    Type
REMARK                         _______ _______ _______ _____ _____    ______ ____
ROOT
ATOM      1  N   UNL     1       6.147   6.030  18.980  0.00  0.00    +0.000 NA
ATOM      2  C   UNL     1       5.320   5.645  18.053  0.00  0.00    +0.000 C 
ATOM      3  C   UNL     1       4.931   4.207  17.773  0.00  0.00    +0.000 C 
ATOM      4  C   UNL     1       5.497   3.833  16.399  0.00  0.00    +0.000 C 
ATOM      5  C   UNL     1       5.269   4.836  15.272  0.00  0.00    +0.000 C 
ATOM      6  C   UNL     1       5.224   6.301  15.672  0.00  0.00    +0.000 C 
ATOM      7  C   UNL     1       4.712   6.659  17.097  0.00  0.00    +0.000 C 
ATOM      8  C   UNL     1       5.206   8.105  17.357  0.00  0.00    +0.000 C 
ATOM      9  C   UNL     1       3.156   6.521  17.201  0.00  0.00    +0.000 C 
ATOM     10  N   UNL     1       2.603   5.191  17.428  0.00  0.00    +0.000 NA
ATOM     11  C   UNL     1       3.391   4.059  17.876  0.00  0.00    +0.000 C 
ATOM     12  H   UNL     1       1.786   4.956  16.871  0.00  0.00    +0.000 HD
ENDROOT
BRANCH   9  13
ATOM     13  C   UNL     1       2.501   7.535  18.146  0.00  0.00    +0.000 A 
ATOM     14  C   UNL     1       1.966   8.753  17.684  0.00  0.00    +0.000 A 
ATOM     15  C   UNL     1       1.304   9.632  18.545  0.00  0.00    +0.000 A 
ATOM     16  C   UNL     1       1.145   9.299  19.885  0.00  0.00    +0.000 A 
ATOM     17  C   UNL     1       1.667   8.101  20.354  0.00  0.00    +0.000 A 
ATOM     18  F   UNL     1       1.493   7.766  21.639  0.00  0.00    +0.000 F 
ATOM     19  C   UNL     1       2.351   7.229  19.509  0.00  0.00    +0.000 A 
ENDBRANCH   9  13
BRANCH  11  20
ATOM     20  C   UNL     1       2.977   3.547  19.269  0.00  0.00    +0.000 A 
ATOM     21  C   UNL     1       1.678   3.797  19.755  0.00  0.00    +0.000 A 
ATOM     22  C   UNL     1       1.242   3.276  20.981  0.00  0.00    +0.000 A 
ATOM     23  C   UNL     1       2.091   2.480  21.744  0.00  0.00    +0.000 A 
ATOM     24  C   UNL     1       3.379   2.241  21.285  0.00  0.00    +0.000 A 
ATOM     25  F   UNL     1       4.206   1.474  22.007  0.00  0.00    +0.000 F 
ATOM     26  C   UNL     1       3.824   2.792  20.087  0.00  0.00    +0.000 A 
ENDBRANCH  11  20
BRANCH   1  28
ATOM     27  C   UNL     1       7.987   5.206  20.070  0.00  0.00    +0.000 C 
ATOM     28  O   UNL     1       6.629   4.954  19.734  0.00  0.00    +0.000 OA
ENDBRANCH   1  28
TORSDOF 3
ENDMDL
MODEL 2
REMARK VINA RESULT:      -7.2      0.892      1.284
REMARK  Name = 
REMARK  5 active torsions:
REMARK  status: ('A' for Active; 'I' for Inactive)
REMARK    1  A    between atoms: C_1  and  O_2
REMARK    2  A    between atoms: O_2  and  N_3
REMARK    3  A    between atoms: C_9  and  C_10
REMARK    4  A    between atoms: C_11  and  C_12
REMARK    5  A    between atoms: C_20  and  C_21
REMARK                            x       y       z     vdW  Elec       q    Type
REMARK                         _______ _______ _______ _____ _____    ______ ____
ROOT
ATOM      1  N   UNL     1       6.423   5.915  18.752  0.00  0.00    +0.000 NA
ATOM      2  C   UNL     1       5.594   5.536  17.825  0.00  0.00    +0.000 C 
ATOM      3  C   UNL     1       5.273   4.096  17.475  0.00  0.00    +0.000 C 
ATOM      4  C   UNL     1       5.822   3.826  16.070  0.00  0.00    +0.000 C 
ATOM      5  C   UNL     1       5.513   4.874  15.005  0.00  0.00    +0.000 C 
ATOM      6  C   UNL     1       5.403   6.312  15.485  0.00  0.00    +0.000 C 
ATOM      7  C   UNL     1       4.910   6.565  16.939  0.00  0.00    +0.000 C 
ATOM      8  C   UNL     1       5.334   8.020  17.266  0.00  0.00    +0.000 C 
ATOM      9  C   UNL     1       3.366   6.340  17.071  0.00  0.00    +0.000 C 
ATOM     10  N   UNL     1       2.889   4.972  17.238  0.00  0.00    +0.000 NA
ATOM     11  C   UNL     1       3.746   3.861  17.605  0.00  0.00    +0.000 C 
ATOM     12  H   UNL     1       2.071   4.724  16.688  0.00  0.00    +0.000 HD
ENDROOT
BRANCH   9  13
ATOM     13  C   UNL     1       2.684   7.266  18.085  0.00  0.00    +0.000 A 
ATOM     14  C   UNL     1       2.157   8.519  17.719  0.00  0.00    +0.000 A 
ATOM     15  C   UNL     1       1.471   9.319  18.636  0.00  0.00    +0.000 A 
ATOM     16  C   UNL     1       1.278   8.868  19.938  0.00  0.00    +0.000 A 
ATOM     17  C   UNL     1       1.792   7.634  20.312  0.00  0.00    +0.000 A 
ATOM     18  F   UNL     1       1.587   7.187  21.558  0.00  0.00    +0.000 F 
ATOM     19  C   UNL     1       2.501   6.841  19.411  0.00  0.00    +0.000 A 
ENDBRANCH   9  13
BRANCH  11  20
ATOM     20  C   UNL     1       3.395   3.255  18.977  0.00  0.00    +0.000 A 
ATOM     21  C   UNL     1       4.391   2.611  19.739  0.00  0.00    +0.000 A 
ATOM     22  C   UNL     1       4.126   2.121  21.026  0.00  0.00    +0.000 A 
ATOM     23  C   UNL     1       2.862   2.276  21.586  0.00  0.00    +0.000 A 
ATOM     24  C   UNL     1       1.867   2.892  20.839  0.00  0.00    +0.000 A 
ATOM     25  F   UNL     1       0.647   3.051  21.368  0.00  0.00    +0.000 F 
ATOM     26  C   UNL     1       2.120   3.342  19.547  0.00  0.00    +0.000 A 
ENDBRANCH  11  20
BRANCH   1  28
ATOM     27  C   UNL     1       8.197   5.244  20.039  0.00  0.00    +0.000 C 
ATOM     28  O   UNL     1       6.979   4.827  19.435  0.00  0.00    +0.000 OA
ENDBRANCH   1  28
TORSDOF 3
ENDMDL
MODEL 3
REMARK VINA RESULT:      -7.2      1.192      1.768
REMARK  Name = 
REMARK  5 active torsions:
REMARK  status: ('A' for Active; 'I' for Inactive)
REMARK    1  A    between atoms: C_1  and  O_2
REMARK    2  A    between atoms: O_2  and  N_3
REMARK    3  A    between atoms: C_9  and  C_10
REMARK    4  A    between atoms: C_11  and  C_12
REMARK    5  A    between atoms: C_20  and  C_21
REMARK                            x       y       z     vdW  Elec       q    Type
REMARK                         _______ _______ _______ _____ _____    ______ ____
ROOT
ATOM      1  N   UNL     1       6.297   5.968  18.878  0.00  0.00    +0.000 NA
ATOM      2  C   UNL     1       5.489   5.572  17.940  0.00  0.00    +0.000 C 
ATOM      3  C   UNL     1       5.231   4.126  17.563  0.00  0.00    +0.000 C 
ATOM      4  C   UNL     1       5.796   3.906  16.156  0.00  0.00    +0.000 C 
ATOM      5  C   UNL     1       5.448   4.959  15.109  0.00  0.00    +0.000 C 
ATOM      6  C   UNL     1       5.275   6.382  15.614  0.00  0.00    +0.000 C 
ATOM      7  C   UNL     1       4.765   6.587  17.070  0.00  0.00    +0.000 C 
ATOM      8  C   UNL     1       5.127   8.053  17.426  0.00  0.00    +0.000 C 
ATOM      9  C   UNL     1       3.232   6.295  17.191  0.00  0.00    +0.000 C 
ATOM     10  N   UNL     1       2.812   4.905  17.329  0.00  0.00    +0.000 NA
ATOM     11  C   UNL     1       3.714   3.825  17.681  0.00  0.00    +0.000 C 
ATOM     12  H   UNL     1       2.008   4.633  16.771  0.00  0.00    +0.000 HD
ENDROOT
BRANCH   9  13
ATOM     13  C   UNL     1       2.507   7.172  18.217  0.00  0.00    +0.000 A 
ATOM     14  C   UNL     1       2.426   6.822  19.578  0.00  0.00    +0.000 A 
ATOM     15  C   UNL     1       1.827   7.667  20.515  0.00  0.00    +0.000 A 
ATOM     16  C   UNL     1       1.315   8.895  20.111  0.00  0.00    +0.000 A 
ATOM     17  C   UNL     1       1.388   9.253  18.771  0.00  0.00    +0.000 A 
ATOM     18  F   UNL     1       0.918  10.446  18.383  0.00  0.00    +0.000 F 
ATOM     19  C   UNL     1       1.960   8.405  17.825  0.00  0.00    +0.000 A 
ENDBRANCH   9  13
BRANCH  11  20
ATOM     20  C   UNL     1       3.383   3.179  19.040  0.00  0.00    +0.000 A 
ATOM     21  C   UNL     1       4.396   2.533  19.779  0.00  0.00    +0.000 A 
ATOM     22  C   UNL     1       4.148   2.008  21.055  0.00  0.00    +0.000 A 
ATOM     23  C   UNL     1       2.886   2.128  21.628  0.00  0.00    +0.000 A 
ATOM     24  C   UNL     1       1.875   2.744  20.903  0.00  0.00    +0.000 A 
ATOM     25  F   UNL     1       0.657   2.871  21.443  0.00  0.00    +0.000 F 
ATOM     26  C   UNL     1       2.112   3.231  19.620  0.00  0.00    +0.000 A 
ENDBRANCH  11  20
BRANCH   1  28
ATOM     27  C   UNL     1       8.198   5.284  19.961  0.00  0.00    +0.000 C 
ATOM     28  O   UNL     1       6.896   4.892  19.544  0.00  0.00    +0.000 OA
ENDBRANCH   1  28
TORSDOF 3
ENDMDL
MODEL 4
REMARK VINA RESULT:      -7.0      0.896      1.287
REMARK  Name = 
REMARK  5 active torsions:
REMARK  status: ('A' for Active; 'I' for Inactive)
REMARK    1  A    between atoms: C_1  and  O_2
REMARK    2  A    between atoms: O_2  and  N_3
REMARK    3  A    between atoms: C_9  and  C_10
REMARK    4  A    between atoms: C_11  and  C_12
REMARK    5  A    between atoms: C_20  and  C_21
REMARK                            x       y       z     vdW  Elec       q    Type
REMARK                         _______ _______ _______ _____ _____    ______ ____
ROOT
ATOM      1  N   UNL     1       6.116   6.091  19.017  0.00  0.00    +0.000 NA
ATOM      2  C   UNL     1       5.307   5.677  18.089  0.00  0.00    +0.000 C 
ATOM      3  C   UNL     1       5.002   4.223  17.781  0.00  0.00    +0.000 C 
ATOM      4  C   UNL     1       5.577   3.913  16.395  0.00  0.00    +0.000 C 
ATOM      5  C   UNL     1       5.279   4.923  15.291  0.00  0.00    +0.000 C 
ATOM      6  C   UNL     1       5.150   6.375  15.723  0.00  0.00    +0.000 C 
ATOM      7  C   UNL     1       4.630   6.671  17.159  0.00  0.00    +0.000 C 
ATOM      8  C   UNL     1       5.038   8.139  17.446  0.00  0.00    +0.000 C 
ATOM      9  C   UNL     1       3.086   6.438  17.272  0.00  0.00    +0.000 C 
ATOM     10  N   UNL     1       2.616   5.072  17.474  0.00  0.00    +0.000 NA
ATOM     11  C   UNL     1       3.475   3.981  17.892  0.00  0.00    +0.000 C 
ATOM     12  H   UNL     1       1.809   4.800  16.918  0.00  0.00    +0.000 HD
ENDROOT
BRANCH   9  13
ATOM     13  C   UNL     1       2.379   7.390  18.243  0.00  0.00    +0.000 A 
ATOM     14  C   UNL     1       2.290   7.124  19.623  0.00  0.00    +0.000 A 
ATOM     15  C   UNL     1       1.709   8.037  20.506  0.00  0.00    +0.000 A 
ATOM     16  C   UNL     1       1.224   9.249  20.028  0.00  0.00    +0.000 A 
ATOM     17  C   UNL     1       1.305   9.525  18.670  0.00  0.00    +0.000 A 
ATOM     18  F   UNL     1       0.861  10.702  18.210  0.00  0.00    +0.000 F 
ATOM     19  C   UNL     1       1.860   8.609  17.777  0.00  0.00    +0.000 A 
ENDBRANCH   9  13
BRANCH  11  20
ATOM     20  C   UNL     1       3.104   3.416  19.277  0.00  0.00    +0.000 A 
ATOM     21  C   UNL     1       1.799   3.584  19.780  0.00  0.00    +0.000 A 
ATOM     22  C   UNL     1       1.405   3.012  20.998  0.00  0.00    +0.000 A 
ATOM     23  C   UNL     1       2.304   2.247  21.735  0.00  0.00    +0.000 A 
ATOM     24  C   UNL     1       3.599   2.090  21.259  0.00  0.00    +0.000 A 
ATOM     25  F   UNL     1       4.474   1.353  21.955  0.00  0.00    +0.000 F 
ATOM     26  C   UNL     1       4.000   2.691  20.070  0.00  0.00    +0.000 A 
ENDBRANCH  11  20
BRANCH   1  28
ATOM     27  C   UNL     1       8.062   5.265  19.903  0.00  0.00    +0.000 C 
ATOM     28  O   UNL     1       6.669   5.030  19.744  0.00  0.00    +0.000 OA
ENDBRANCH   1  28
TORSDOF 3
ENDMDL
MODEL 5
REMARK VINA RESULT:      -6.9      2.427      4.967
REMARK  Name = 
REMARK  5 active torsions:
REMARK  status: ('A' for Active; 'I' for Inactive)
REMARK    1  A    between atoms: C_1  and  O_2
REMARK    2  A    between atoms: O_2  and  N_3
REMARK    3  A    between atoms: C_9  and  C_10
REMARK    4  A    between atoms: C_11  and  C_12
REMARK    5  A    between atoms: C_20  and  C_21
REMARK                            x       y       z     vdW  Elec       q    Type
REMARK                         _______ _______ _______ _____ _____    ______ ____
ROOT
ATOM      1  N   UNL     1       1.659   3.319  17.995  0.00  0.00    +0.000 NA
ATOM      2  C   UNL     1       2.511   3.579  18.942  0.00  0.00    +0.000 C 
ATOM      3  C   UNL     1       3.952   3.109  18.973  0.00  0.00    +0.000 C 
ATOM      4  C   UNL     1       4.090   2.109  20.126  0.00  0.00    +0.000 C 
ATOM      5  C   UNL     1       3.474   2.519  21.461  0.00  0.00    +0.000 C 
ATOM      6  C   UNL     1       2.232   3.392  21.391  0.00  0.00    +0.000 C 
ATOM      7  C   UNL     1       2.075   4.352  20.176  0.00  0.00    +0.000 C 
ATOM      8  C   UNL     1       0.572   4.733  20.150  0.00  0.00    +0.000 C 
ATOM      9  C   UNL     1       3.014   5.597  20.302  0.00  0.00    +0.000 C 
ATOM     10  N   UNL     1       4.407   5.445  19.894  0.00  0.00    +0.000 NA
ATOM     11  C   UNL     1       4.893   4.336  19.094  0.00  0.00    +0.000 C 
ATOM     12  H   UNL     1       5.093   5.864  20.515  0.00  0.00    +0.000 HD
ENDROOT
BRANCH   9  13
ATOM     13  C   UNL     1       2.428   6.885  19.712  0.00  0.00    +0.000 A 
ATOM     14  C   UNL     1       2.484   7.171  18.334  0.00  0.00    +0.000 A 
ATOM     15  C   UNL     1       1.879   8.312  17.801  0.00  0.00    +0.000 A 
ATOM     16  C   UNL     1       1.186   9.181  18.636  0.00  0.00    +0.000 A 
ATOM     17  C   UNL     1       1.123   8.911  19.996  0.00  0.00    +0.000 A 
ATOM     18  F   UNL     1       0.435   9.734  20.799  0.00  0.00    +0.000 F 
ATOM     19  C   UNL     1       1.745   7.789  20.541  0.00  0.00    +0.000 A 
ENDBRANCH   9  13
BRANCH  11  20
ATOM     20  C   UNL     1       5.416   4.770  17.713  0.00  0.00    +0.000 A 
ATOM     21  C   UNL     1       6.428   4.024  17.075  0.00  0.00    +0.000 A 
ATOM     22  C   UNL     1       6.868   4.343  15.783  0.00  0.00    +0.000 A 
ATOM     23  C   UNL     1       6.297   5.407  15.092  0.00  0.00    +0.000 A 
ATOM     24  C   UNL     1       5.313   6.162  15.716  0.00  0.00    +0.000 A 
ATOM     25  F   UNL     1       4.752   7.187  15.062  0.00  0.00    +0.000 F 
ATOM     26  C   UNL     1       4.904   5.869  17.014  0.00  0.00    +0.000 A 
ENDBRANCH  11  20
BRANCH   1  28
ATOM     27  C   UNL     1       2.814   3.462  16.020  0.00  0.00    +0.000 C 
ATOM     28  O   UNL     1       2.235   2.569  16.963  0.00  0.00    +0.000 OA
ENDBRANCH   1  28
TORSDOF 3
ENDMDL
MODEL 6
REMARK VINA RESULT:      -6.8      2.581      5.102
REMARK  Name = 
REMARK  5 active torsions:
REMARK  status: ('A' for Active; 'I' for Inactive)
REMARK    1  A    between atoms: C_1  and  O_2
REMARK    2  A    between atoms: O_2  and  N_3
REMARK    3  A    between atoms: C_9  and  C_10
REMARK    4  A    between atoms: C_11  and  C_12
REMARK    5  A    between atoms: C_20  and  C_21
REMARK                            x       y       z     vdW  Elec       q    Type
REMARK                         _______ _______ _______ _____ _____    ______ ____
ROOT
ATOM      1  N   UNL     1       1.650   3.134  18.094  0.00  0.00    +0.000 NA
ATOM      2  C   UNL     1       2.539   3.376  19.011  0.00  0.00    +0.000 C 
ATOM      3  C   UNL     1       3.994   2.952  18.950  0.00  0.00    +0.000 C 
ATOM      4  C   UNL     1       4.217   1.904  20.046  0.00  0.00    +0.000 C 
ATOM      5  C   UNL     1       3.657   2.232  21.426  0.00  0.00    +0.000 C 
ATOM      6  C   UNL     1       2.388   3.066  21.458  0.00  0.00    +0.000 C 
ATOM      7  C   UNL     1       2.142   4.076  20.300  0.00  0.00    +0.000 C 
ATOM      8  C   UNL     1       0.630   4.411  20.364  0.00  0.00    +0.000 C 
ATOM      9  C   UNL     1       3.050   5.344  20.440  0.00  0.00    +0.000 C 
ATOM     10  N   UNL     1       4.424   5.255  19.959  0.00  0.00    +0.000 NA
ATOM     11  C   UNL     1       4.903   4.201  19.085  0.00  0.00    +0.000 C 
ATOM     12  H   UNL     1       5.128   5.667  20.566  0.00  0.00    +0.000 HD
ENDROOT
BRANCH   9  13
ATOM     13  C   UNL     1       2.398   6.638  19.942  0.00  0.00    +0.000 A 
ATOM     14  C   UNL     1       1.647   7.474  20.790  0.00  0.00    +0.000 A 
ATOM     15  C   UNL     1       1.122   8.689  20.341  0.00  0.00    +0.000 A 
ATOM     16  C   UNL     1       1.358   9.102  19.034  0.00  0.00    +0.000 A 
ATOM     17  C   UNL     1       2.096   8.287  18.187  0.00  0.00    +0.000 A 
ATOM     18  F   UNL     1       2.345   8.695  16.935  0.00  0.00    +0.000 F 
ATOM     19  C   UNL     1       2.602   7.063  18.618  0.00  0.00    +0.000 A 
ENDBRANCH   9  13
BRANCH  11  20
ATOM     20  C   UNL     1       5.344   4.715  17.702  0.00  0.00    +0.000 A 
ATOM     21  C   UNL     1       6.240   3.959  16.921  0.00  0.00    +0.000 A 
ATOM     22  C   UNL     1       6.597   4.356  15.625  0.00  0.00    +0.000 A 
ATOM     23  C   UNL     1       6.056   5.513  15.074  0.00  0.00    +0.000 A 
ATOM     24  C   UNL     1       5.186   6.278  15.840  0.00  0.00    +0.000 A 
ATOM     25  F   UNL     1       4.654   7.392  15.321  0.00  0.00    +0.000 F 
ATOM     26  C   UNL     1       4.863   5.903  17.141  0.00  0.00    +0.000 A 
ENDBRANCH  11  20
BRANCH   1  28
ATOM     27  C   UNL     1       2.688   3.406  16.068  0.00  0.00    +0.000 C 
ATOM     28  O   UNL     1       2.196   2.451  17.000  0.00  0.00    +0.000 OA
ENDBRANCH   1  28
TORSDOF 3
ENDMDL
MODEL 7
REMARK VINA RESULT:      -6.6      2.296      4.879
REMARK  Name = 
REMARK  5 active torsions:
REMARK  status: ('A' for Active; 'I' for Inactive)
REMARK    1  A    between atoms: C_1  and  O_2
REMARK    2  A    between atoms: O_2  and  N_3
REMARK    3  A    between atoms: C_9  and  C_10
REMARK    4  A    between atoms: C_11  and  C_12
REMARK    5  A    between atoms: C_20  and  C_21
REMARK                            x       y       z     vdW  Elec       q    Type
REMARK                         _______ _______ _______ _____ _____    ______ ____
ROOT
ATOM      1  N   UNL     1       1.605   3.580  17.948  0.00  0.00    +0.000 NA
ATOM      2  C   UNL     1       2.396   3.805  18.955  0.00  0.00    +0.000 C 
ATOM      3  C   UNL     1       3.810   3.276  19.089  0.00  0.00    +0.000 C 
ATOM      4  C   UNL     1       3.821   2.273  20.248  0.00  0.00    +0.000 C 
ATOM      5  C   UNL     1       3.129   2.712  21.535  0.00  0.00    +0.000 C 
ATOM      6  C   UNL     1       1.933   3.636  21.377  0.00  0.00    +0.000 C 
ATOM      7  C   UNL     1       1.905   4.599  20.155  0.00  0.00    +0.000 C 
ATOM      8  C   UNL     1       0.426   5.043  20.020  0.00  0.00    +0.000 C 
ATOM      9  C   UNL     1       2.885   5.804  20.349  0.00  0.00    +0.000 C 
ATOM     10  N   UNL     1       4.295   5.592  20.043  0.00  0.00    +0.000 NA
ATOM     11  C   UNL     1       4.790   4.462  19.280  0.00  0.00    +0.000 C 
ATOM     12  H   UNL     1       4.952   5.983  20.712  0.00  0.00    +0.000 HD
ENDROOT
BRANCH   9  13
ATOM     13  C   UNL     1       2.398   7.114  19.720  0.00  0.00    +0.000 A 
ATOM     14  C   UNL     1       2.607   7.415  18.360  0.00  0.00    +0.000 A 
ATOM     15  C   UNL     1       2.091   8.578  17.783  0.00  0.00    +0.000 A 
ATOM     16  C   UNL     1       1.335   9.456  18.552  0.00  0.00    +0.000 A 
ATOM     17  C   UNL     1       1.122   9.171  19.895  0.00  0.00    +0.000 A 
ATOM     18  F   UNL     1       0.373  10.002  20.632  0.00  0.00    +0.000 F 
ATOM     19  C   UNL     1       1.654   8.026  20.485  0.00  0.00    +0.000 A 
ENDBRANCH   9  13
BRANCH  11  20
ATOM     20  C   UNL     1       5.430   4.871  17.939  0.00  0.00    +0.000 A 
ATOM     21  C   UNL     1       6.164   6.070  17.845  0.00  0.00    +0.000 A 
ATOM     22  C   UNL     1       6.828   6.431  16.664  0.00  0.00    +0.000 A 
ATOM     23  C   UNL     1       6.784   5.595  15.553  0.00  0.00    +0.000 A 
ATOM     24  C   UNL     1       6.048   4.420  15.627  0.00  0.00    +0.000 A 
ATOM     25  F   UNL     1       6.000   3.603  14.567  0.00  0.00    +0.000 F 
ATOM     26  C   UNL     1       5.357   4.081  16.787  0.00  0.00    +0.000 A 
ENDBRANCH  11  20
BRANCH   1  28
ATOM     27  C   UNL     1       2.394   1.484  17.461  0.00  0.00    +0.000 C 
ATOM     28  O   UNL     1       2.221   2.804  16.960  0.00  0.00    +0.000 OA
ENDBRANCH   1  28
TORSDOF 3
ENDMDL
MODEL 8
REMARK VINA RESULT:      -6.6      7.831     10.627
REMARK  Name = 
REMARK  5 active torsions:
REMARK  status: ('A' for Active; 'I' for Inactive)
REMARK    1  A    between atoms: C_1  and  O_2
REMARK    2  A    between atoms: O_2  and  N_3
REMARK    3  A    between atoms: C_9  and  C_10
REMARK    4  A    between atoms: C_11  and  C_12
REMARK    5  A    between atoms: C_20  and  C_21
REMARK                            x       y       z     vdW  Elec       q    Type
REMARK                         _______ _______ _______ _____ _____    ______ ____
ROOT
ATOM      1  N   UNL     1      -1.673  11.329  22.892  0.00  0.00    +0.000 NA
ATOM      2  C   UNL     1      -1.520  12.446  22.246  0.00  0.00    +0.000 C 
ATOM      3  C   UNL     1      -0.651  12.633  21.018  0.00  0.00    +0.000 C 
ATOM      4  C   UNL     1       0.513  13.550  21.408  0.00  0.00    +0.000 C 
ATOM      5  C   UNL     1       0.155  14.809  22.192  0.00  0.00    +0.000 C 
ATOM      6  C   UNL     1      -1.042  14.708  23.122  0.00  0.00    +0.000 C 
ATOM      7  C   UNL     1      -2.184  13.720  22.746  0.00  0.00    +0.000 C 
ATOM      8  C   UNL     1      -2.987  13.507  24.055  0.00  0.00    +0.000 C 
ATOM      9  C   UNL     1      -3.064  14.276  21.578  0.00  0.00    +0.000 C 
ATOM     10  N   UNL     1      -2.577  14.101  20.214  0.00  0.00    +0.000 NA
ATOM     11  C   UNL     1      -1.515  13.182  19.852  0.00  0.00    +0.000 C 
ATOM     12  H   UNL     1      -2.675  14.910  19.607  0.00  0.00    +0.000 HD
ENDROOT
BRANCH   9  13
ATOM     13  C   UNL     1      -4.543  13.881  21.666  0.00  0.00    +0.000 A 
ATOM     14  C   UNL     1      -5.524  14.759  22.165  0.00  0.00    +0.000 A 
ATOM     15  C   UNL     1      -6.878  14.414  22.169  0.00  0.00    +0.000 A 
ATOM     16  C   UNL     1      -7.280  13.188  21.653  0.00  0.00    +0.000 A 
ATOM     17  C   UNL     1      -6.323  12.312  21.158  0.00  0.00    +0.000 A 
ATOM     18  F   UNL     1      -6.711  11.140  20.638  0.00  0.00    +0.000 F 
ATOM     19  C   UNL     1      -4.968  12.637  21.174  0.00  0.00    +0.000 A 
ENDBRANCH   9  13
BRANCH  11  20
ATOM     20  C   UNL     1      -1.988  12.042  18.931  0.00  0.00    +0.000 A 
ATOM     21  C   UNL     1      -1.075  11.058  18.501  0.00  0.00    +0.000 A 
ATOM     22  C   UNL     1      -1.490   9.962  17.731  0.00  0.00    +0.000 A 
ATOM     23  C   UNL     1      -2.829   9.817  17.384  0.00  0.00    +0.000 A 
ATOM     24  C   UNL     1      -3.735  10.790  17.785  0.00  0.00    +0.000 A 
ATOM     25  F   UNL     1      -5.029  10.661  17.462  0.00  0.00    +0.000 F 
ATOM     26  C   UNL     1      -3.316  11.898  18.516  0.00  0.00    +0.000 A 
ENDBRANCH  11  20
BRANCH   1  28
ATOM     27  C   UNL     1      -0.140   9.673  23.294  0.00  0.00    +0.000 C 
ATOM     28  O   UNL     1      -0.959  10.279  22.301  0.00  0.00    +0.000 OA
ENDBRANCH   1  28
TORSDOF 3
ENDMDL
MODEL 9
REMARK VINA RESULT:      -6.5      4.880      8.190
REMARK  Name = 
REMARK  5 active torsions:
REMARK  status: ('A' for Active; 'I' for Inactive)
REMARK    1  A    between atoms: C_1  and  O_2
REMARK    2  A    between atoms: O_2  and  N_3
REMARK    3  A    between atoms: C_9  and  C_10
REMARK    4  A    between atoms: C_11  and  C_12
REMARK    5  A    between atoms: C_20  and  C_21
REMARK                            x       y       z     vdW  Elec       q    Type
REMARK                         _______ _______ _______ _____ _____    ______ ____
ROOT
ATOM      1  N   UNL     1      -0.842  11.530  22.022  0.00  0.00    +0.000 NA
ATOM      2  C   UNL     1      -0.376  12.179  20.997  0.00  0.00    +0.000 C 
ATOM      3  C   UNL     1       1.071  12.176  20.546  0.00  0.00    +0.000 C 
ATOM      4  C   UNL     1       1.628  13.587  20.764  0.00  0.00    +0.000 C 
ATOM      5  C   UNL     1       0.761  14.744  20.276  0.00  0.00    +0.000 C 
ATOM      6  C   UNL     1      -0.742  14.532  20.334  0.00  0.00    +0.000 C 
ATOM      7  C   UNL     1      -1.287  13.082  20.181  0.00  0.00    +0.000 C 
ATOM      8  C   UNL     1      -2.736  13.131  20.728  0.00  0.00    +0.000 C 
ATOM      9  C   UNL     1      -1.216  12.595  18.695  0.00  0.00    +0.000 C 
ATOM     10  N   UNL     1       0.058  12.079  18.207  0.00  0.00    +0.000 NA
ATOM     11  C   UNL     1       1.154  11.692  19.075  0.00  0.00    +0.000 C 
ATOM     12  H   UNL     1       0.331  12.392  17.279  0.00  0.00    +0.000 HD
ENDROOT
BRANCH   9  13
ATOM     13  C   UNL     1      -2.358  11.657  18.289  0.00  0.00    +0.000 A 
ATOM     14  C   UNL     1      -2.158  10.278  18.086  0.00  0.00    +0.000 A 
ATOM     15  C   UNL     1      -3.222   9.422  17.791  0.00  0.00    +0.000 A 
ATOM     16  C   UNL     1      -4.515   9.928  17.713  0.00  0.00    +0.000 A 
ATOM     17  C   UNL     1      -4.726  11.286  17.910  0.00  0.00    +0.000 A 
ATOM     18  F   UNL     1      -5.974  11.771  17.860  0.00  0.00    +0.000 F 
ATOM     19  C   UNL     1      -3.668  12.151  18.180  0.00  0.00    +0.000 A 
ENDBRANCH   9  13
BRANCH  11  20
ATOM     20  C   UNL     1       1.479  10.188  19.005  0.00  0.00    +0.000 A 
ATOM     21  C   UNL     1       2.073   9.648  17.846  0.00  0.00    +0.000 A 
ATOM     22  C   UNL     1       2.458   8.302  17.781  0.00  0.00    +0.000 A 
ATOM     23  C   UNL     1       2.270   7.467  18.877  0.00  0.00    +0.000 A 
ATOM     24  C   UNL     1       1.669   7.981  20.018  0.00  0.00    +0.000 A 
ATOM     25  F   UNL     1       1.486   7.190  21.082  0.00  0.00    +0.000 F 
ATOM     26  C   UNL     1       1.252   9.308  20.068  0.00  0.00    +0.000 A 
ENDBRANCH  11  20
BRANCH   1  28
ATOM     27  C   UNL     1      -0.450   9.632  23.245  0.00  0.00    +0.000 C 
ATOM     28  O   UNL     1       0.151  10.784  22.667  0.00  0.00    +0.000 OA
ENDBRANCH   1  28
TORSDOF 3
ENDMDL
