MODEL 1
REMARK VINA RESULT:      -7.0      0.000      0.000
REMARK  Name = 
REMARK  3 active torsions:
REMARK  status: ('A' for Active; 'I' for Inactive)
REMARK    1  A    between atoms: C_1  and  C_2
REMARK    2  A    between atoms: C_3  and  C_4
REMARK    3  A    between atoms: C_8  and  O_9
REMARK                            x       y       z     vdW  Elec       q    Type
REMARK                         _______ _______ _______ _____ _____    ______ ____
ROOT
ATOM      1  C   UNL     1       7.563   7.012  17.754  0.00  0.00    +0.000 C 
ATOM      2  C   UNL     1       6.499   5.982  18.029  0.00  0.00    +0.000 A 
ATOM      3  C   UNL     1       5.438   5.702  17.241  0.00  0.00    +0.000 A 
ATOM      4  C   UNL     1       5.117   6.419  15.954  0.00  0.00    +0.000 C 
ATOM      5  C   UNL     1       4.527   4.607  17.638  0.00  0.00    +0.000 A 
ATOM      6  C   UNL     1       3.455   4.159  16.848  0.00  0.00    +0.000 A 
ATOM      7  C   UNL     1       2.651   3.087  17.256  0.00  0.00    +0.000 A 
ATOM      8  C   UNL     1       2.900   2.465  18.473  0.00  0.00    +0.000 A 
ATOM      9  C   UNL     1       3.939   2.896  19.283  0.00  0.00    +0.000 A 
ATOM     10  C   UNL     1       4.742   3.952  18.849  0.00  0.00    +0.000 A 
ATOM     11  O   UNL     1       5.804   4.308  19.692  0.00  0.00    +0.000 OA
ATOM     12  C   UNL     1       6.733   5.257  19.314  0.00  0.00    +0.000 A 
ATOM     13  O   UNL     1       7.705   5.505  20.022  0.00  0.00    +0.000 OA
ENDROOT
BRANCH   8  14
ATOM     14  O   UNL     1       2.145   1.416  18.903  0.00  0.00    +0.000 OA
ATOM     15  H   UNL     1       1.285   1.749  19.205  0.00  0.00    +0.000 HD
ENDBRANCH   8  14
TORSDOF 1
ENDMDL
MODEL 2
REMARK VINA RESULT:      -6.9      1.622      1.739
REMARK  Name = 
REMARK  3 active torsions:
REMARK  status: ('A' for Active; 'I' for Inactive)
REMARK    1  A    between atoms: C_1  and  C_2
REMARK    2  A    between atoms: C_3  and  C_4
REMARK    3  A    between atoms: C_8  and  O_9
REMARK                            x       y       z     vdW  Elec       q    Type
REMARK                         _______ _______ _______ _____ _____    ______ ____
ROOT
ATOM      1  C   UNL     1       7.545   4.949  17.232  0.00  0.00    +0.000 C 
ATOM      2  C   UNL     1       6.168   4.804  17.826  0.00  0.00    +0.000 A 
ATOM      3  C   UNL     1       5.055   4.412  17.168  0.00  0.00    +0.000 A 
ATOM      4  C   UNL     1       5.000   4.091  15.696  0.00  0.00    +0.000 C 
ATOM      5  C   UNL     1       3.797   4.261  17.929  0.00  0.00    +0.000 A 
ATOM      6  C   UNL     1       2.605   3.761  17.376  0.00  0.00    +0.000 A 
ATOM      7  C   UNL     1       1.454   3.599  18.158  0.00  0.00    +0.000 A 
ATOM      8  C   UNL     1       1.478   3.956  19.500  0.00  0.00    +0.000 A 
ATOM      9  C   UNL     1       2.633   4.468  20.070  0.00  0.00    +0.000 A 
ATOM     10  C   UNL     1       3.776   4.603  19.280  0.00  0.00    +0.000 A 
ATOM     11  O   UNL     1       4.923   5.082  19.928  0.00  0.00    +0.000 OA
ATOM     12  C   UNL     1       6.140   5.146  19.279  0.00  0.00    +0.000 A 
ATOM     13  O   UNL     1       7.156   5.490  19.877  0.00  0.00    +0.000 OA
ENDROOT
BRANCH   8  14
ATOM     14  O   UNL     1       0.382   3.808  20.296  0.00  0.00    +0.000 OA
ATOM     15  H   UNL     1       0.567   4.206  21.162  0.00  0.00    +0.000 HD
ENDBRANCH   8  14
TORSDOF 1
ENDMDL
MODEL 3
REMARK VINA RESULT:      -6.9      1.265      1.265
REMARK  Name = 
REMARK  3 active torsions:
REMARK  status: ('A' for Active; 'I' for Inactive)
REMARK    1  A    between atoms: C_1  and  C_2
REMARK    2  A    between atoms: C_3  and  C_4
REMARK    3  A    between atoms: C_8  and  O_9
REMARK                            x       y       z     vdW  Elec       q    Type
REMARK                         _______ _______ _______ _____ _____    ______ ____
ROOT
ATOM      1  C   UNL     1       6.889   7.076  17.485  0.00  0.00    +0.000 C 
ATOM      2  C   UNL     1       5.873   6.012  17.811  0.00  0.00    +0.000 A 
ATOM      3  C   UNL     1       4.530   6.146  17.741  0.00  0.00    +0.000 A 
ATOM      4  C   UNL     1       3.816   7.419  17.362  0.00  0.00    +0.000 C 
ATOM      5  C   UNL     1       3.683   4.970  18.034  0.00  0.00    +0.000 A 
ATOM      6  C   UNL     1       2.285   4.961  17.894  0.00  0.00    +0.000 A 
ATOM      7  C   UNL     1       1.538   3.803  18.145  0.00  0.00    +0.000 A 
ATOM      8  C   UNL     1       2.183   2.645  18.560  0.00  0.00    +0.000 A 
ATOM      9  C   UNL     1       3.559   2.627  18.725  0.00  0.00    +0.000 A 
ATOM     10  C   UNL     1       4.288   3.785  18.450  0.00  0.00    +0.000 A 
ATOM     11  O   UNL     1       5.679   3.688  18.591  0.00  0.00    +0.000 OA
ATOM     12  C   UNL     1       6.511   4.731  18.236  0.00  0.00    +0.000 A 
ATOM     13  O   UNL     1       7.733   4.609  18.285  0.00  0.00    +0.000 OA
ENDROOT
BRANCH   8  14
ATOM     14  O   UNL     1       1.494   1.496  18.808  0.00  0.00    +0.000 OA
ATOM     15  H   UNL     1       1.498   0.947  18.007  0.00  0.00    +0.000 HD
ENDBRANCH   8  14
TORSDOF 1
ENDMDL
MODEL 4
REMARK VINA RESULT:      -6.7      1.586      4.449
REMARK  Name = 
REMARK  3 active torsions:
REMARK  status: ('A' for Active; 'I' for Inactive)
REMARK    1  A    between atoms: C_1  and  C_2
REMARK    2  A    between atoms: C_3  and  C_4
REMARK    3  A    between atoms: C_8  and  O_9
REMARK                            x       y       z     vdW  Elec       q    Type
REMARK                         _______ _______ _______ _____ _____    ______ ____
ROOT
ATOM      1  C   UNL     1       2.139   2.282  19.767  0.00  0.00    +0.000 C 
ATOM      2  C   UNL     1       3.205   3.186  19.206  0.00  0.00    +0.000 A 
ATOM      3  C   UNL     1       3.013   4.188  18.320  0.00  0.00    +0.000 A 
ATOM      4  C   UNL     1       1.682   4.542  17.705  0.00  0.00    +0.000 C 
ATOM      5  C   UNL     1       4.170   5.021  17.928  0.00  0.00    +0.000 A 
ATOM      6  C   UNL     1       4.072   6.150  17.098  0.00  0.00    +0.000 A 
ATOM      7  C   UNL     1       5.198   6.928  16.794  0.00  0.00    +0.000 A 
ATOM      8  C   UNL     1       6.439   6.568  17.304  0.00  0.00    +0.000 A 
ATOM      9  C   UNL     1       6.571   5.449  18.111  0.00  0.00    +0.000 A 
ATOM     10  C   UNL     1       5.434   4.699  18.418  0.00  0.00    +0.000 A 
ATOM     11  O   UNL     1       5.627   3.608  19.277  0.00  0.00    +0.000 OA
ATOM     12  C   UNL     1       4.561   2.865  19.743  0.00  0.00    +0.000 A 
ATOM     13  O   UNL     1       4.730   1.962  20.558  0.00  0.00    +0.000 OA
ENDROOT
BRANCH   8  14
ATOM     14  O   UNL     1       7.557   7.301  17.038  0.00  0.00    +0.000 OA
ATOM     15  H   UNL     1       8.323   6.705  17.003  0.00  0.00    +0.000 HD
ENDBRANCH   8  14
TORSDOF 1
ENDMDL
MODEL 5
REMARK VINA RESULT:      -6.6      2.329      4.779
REMARK  Name = 
REMARK  3 active torsions:
REMARK  status: ('A' for Active; 'I' for Inactive)
REMARK    1  A    between atoms: C_1  and  C_2
REMARK    2  A    between atoms: C_3  and  C_4
REMARK    3  A    between atoms: C_8  and  O_9
REMARK                            x       y       z     vdW  Elec       q    Type
REMARK                         _______ _______ _______ _____ _____    ______ ____
ROOT
ATOM      1  C   UNL     1       1.162   3.891  20.352  0.00  0.00    +0.000 C 
ATOM      2  C   UNL     1       2.129   4.179  19.235  0.00  0.00    +0.000 A 
ATOM      3  C   UNL     1       2.645   5.388  18.920  0.00  0.00    +0.000 A 
ATOM      4  C   UNL     1       2.295   6.676  19.623  0.00  0.00    +0.000 C 
ATOM      5  C   UNL     1       3.638   5.474  17.828  0.00  0.00    +0.000 A 
ATOM      6  C   UNL     1       4.317   6.655  17.483  0.00  0.00    +0.000 A 
ATOM      7  C   UNL     1       5.281   6.668  16.466  0.00  0.00    +0.000 A 
ATOM      8  C   UNL     1       5.559   5.499  15.769  0.00  0.00    +0.000 A 
ATOM      9  C   UNL     1       4.893   4.322  16.074  0.00  0.00    +0.000 A 
ATOM     10  C   UNL     1       3.952   4.326  17.104  0.00  0.00    +0.000 A 
ATOM     11  O   UNL     1       3.348   3.094  17.395  0.00  0.00    +0.000 OA
ATOM     12  C   UNL     1       2.490   2.951  18.467  0.00  0.00    +0.000 A 
ATOM     13  O   UNL     1       2.030   1.851  18.763  0.00  0.00    +0.000 OA
ENDROOT
BRANCH   8  14
ATOM     14  O   UNL     1       6.494   5.467  14.778  0.00  0.00    +0.000 OA
ATOM     15  H   UNL     1       7.063   4.691  14.907  0.00  0.00    +0.000 HD
ENDBRANCH   8  14
TORSDOF 1
ENDMDL
MODEL 6
REMARK VINA RESULT:      -6.6      2.294      2.852
REMARK  Name = 
REMARK  3 active torsions:
REMARK  status: ('A' for Active; 'I' for Inactive)
REMARK    1  A    between atoms: C_1  and  C_2
REMARK    2  A    between atoms: C_3  and  C_4
REMARK    3  A    between atoms: C_8  and  O_9
REMARK                            x       y       z     vdW  Elec       q    Type
REMARK                         _______ _______ _______ _____ _____    ______ ____
ROOT
ATOM      1  C   UNL     1       5.089   6.482  15.869  0.00  0.00    +0.000 C 
ATOM      2  C   UNL     1       4.561   5.742  17.070  0.00  0.00    +0.000 A 
ATOM      3  C   UNL     1       3.657   6.209  17.959  0.00  0.00    +0.000 A 
ATOM      4  C   UNL     1       3.052   7.589  17.917  0.00  0.00    +0.000 C 
ATOM      5  C   UNL     1       3.201   5.315  19.045  0.00  0.00    +0.000 A 
ATOM      6  C   UNL     1       2.192   5.654  19.962  0.00  0.00    +0.000 A 
ATOM      7  C   UNL     1       1.770   4.748  20.944  0.00  0.00    +0.000 A 
ATOM      8  C   UNL     1       2.370   3.498  21.031  0.00  0.00    +0.000 A 
ATOM      9  C   UNL     1       3.381   3.141  20.152  0.00  0.00    +0.000 A 
ATOM     10  C   UNL     1       3.773   4.050  19.167  0.00  0.00    +0.000 A 
ATOM     11  O   UNL     1       4.766   3.611  18.281  0.00  0.00    +0.000 OA
ATOM     12  C   UNL     1       5.151   4.376  17.198  0.00  0.00    +0.000 A 
ATOM     13  O   UNL     1       5.963   3.949  16.380  0.00  0.00    +0.000 OA
ENDROOT
BRANCH   8  14
ATOM     14  O   UNL     1       1.985   2.587  21.967  0.00  0.00    +0.000 OA
ATOM     15  H   UNL     1       1.433   3.032  22.631  0.00  0.00    +0.000 HD
ENDBRANCH   8  14
TORSDOF 1
ENDMDL
MODEL 7
REMARK VINA RESULT:      -6.5      2.233      4.630
REMARK  Name = 
REMARK  3 active torsions:
REMARK  status: ('A' for Active; 'I' for Inactive)
REMARK    1  A    between atoms: C_1  and  C_2
REMARK    2  A    between atoms: C_3  and  C_4
REMARK    3  A    between atoms: C_8  and  O_9
REMARK                            x       y       z     vdW  Elec       q    Type
REMARK                         _______ _______ _______ _____ _____    ______ ____
ROOT
ATOM      1  C   UNL     1       0.899   3.625  19.808  0.00  0.00    +0.000 C 
ATOM      2  C   UNL     1       2.177   4.133  19.194  0.00  0.00    +0.000 A 
ATOM      3  C   UNL     1       2.908   3.508  18.244  0.00  0.00    +0.000 A 
ATOM      4  C   UNL     1       2.578   2.155  17.665  0.00  0.00    +0.000 C 
ATOM      5  C   UNL     1       4.105   4.189  17.707  0.00  0.00    +0.000 A 
ATOM      6  C   UNL     1       4.879   3.684  16.648  0.00  0.00    +0.000 A 
ATOM      7  C   UNL     1       5.979   4.395  16.150  0.00  0.00    +0.000 A 
ATOM      8  C   UNL     1       6.329   5.611  16.725  0.00  0.00    +0.000 A 
ATOM      9  C   UNL     1       5.596   6.126  17.782  0.00  0.00    +0.000 A 
ATOM     10  C   UNL     1       4.490   5.412  18.250  0.00  0.00    +0.000 A 
ATOM     11  O   UNL     1       3.764   6.010  19.289  0.00  0.00    +0.000 OA
ATOM     12  C   UNL     1       2.587   5.455  19.753  0.00  0.00    +0.000 A 
ATOM     13  O   UNL     1       1.914   6.027  20.607  0.00  0.00    +0.000 OA
ENDROOT
BRANCH   8  14
ATOM     14  O   UNL     1       7.387   6.336  16.267  0.00  0.00    +0.000 OA
ATOM     15  H   UNL     1       7.555   7.070  16.880  0.00  0.00    +0.000 HD
ENDBRANCH   8  14
TORSDOF 1
ENDMDL
MODEL 8
REMARK VINA RESULT:      -6.5      2.620      4.792
REMARK  Name = 
REMARK  3 active torsions:
REMARK  status: ('A' for Active; 'I' for Inactive)
REMARK    1  A    between atoms: C_1  and  C_2
REMARK    2  A    between atoms: C_3  and  C_4
REMARK    3  A    between atoms: C_8  and  O_9
REMARK                            x       y       z     vdW  Elec       q    Type
REMARK                         _______ _______ _______ _____ _____    ______ ____
ROOT
ATOM      1  C   UNL     1       1.189   3.231  20.871  0.00  0.00    +0.000 C 
ATOM      2  C   UNL     1       2.090   3.925  19.885  0.00  0.00    +0.000 A 
ATOM      3  C   UNL     1       2.834   3.327  18.927  0.00  0.00    +0.000 A 
ATOM      4  C   UNL     1       2.916   1.836  18.716  0.00  0.00    +0.000 C 
ATOM      5  C   UNL     1       3.611   4.175  17.999  0.00  0.00    +0.000 A 
ATOM      6  C   UNL     1       4.335   3.673  16.904  0.00  0.00    +0.000 A 
ATOM      7  C   UNL     1       5.019   4.529  16.032  0.00  0.00    +0.000 A 
ATOM      8  C   UNL     1       5.003   5.900  16.260  0.00  0.00    +0.000 A 
ATOM      9  C   UNL     1       4.313   6.424  17.341  0.00  0.00    +0.000 A 
ATOM     10  C   UNL     1       3.620   5.556  18.187  0.00  0.00    +0.000 A 
ATOM     11  O   UNL     1       2.904   6.153  19.234  0.00  0.00    +0.000 OA
ATOM     12  C   UNL     1       2.089   5.408  20.063  0.00  0.00    +0.000 A 
ATOM     13  O   UNL     1       1.402   5.949  20.926  0.00  0.00    +0.000 OA
ENDROOT
BRANCH   8  14
ATOM     14  O   UNL     1       5.649   6.767  15.431  0.00  0.00    +0.000 OA
ATOM     15  H   UNL     1       5.598   7.660  15.809  0.00  0.00    +0.000 HD
ENDBRANCH   8  14
TORSDOF 1
ENDMDL
MODEL 9
REMARK VINA RESULT:      -6.4      2.288      4.549
REMARK  Name = 
REMARK  3 active torsions:
REMARK  status: ('A' for Active; 'I' for Inactive)
REMARK    1  A    between atoms: C_1  and  C_2
REMARK    2  A    between atoms: C_3  and  C_4
REMARK    3  A    between atoms: C_8  and  O_9
REMARK                            x       y       z     vdW  Elec       q    Type
REMARK                         _______ _______ _______ _____ _____    ______ ____
ROOT
ATOM      1  C   UNL     1       2.506   2.541  21.643  0.00  0.00    +0.000 C 
ATOM      2  C   UNL     1       3.151   3.347  20.546  0.00  0.00    +0.000 A 
ATOM      3  C   UNL     1       2.665   4.485  20.003  0.00  0.00    +0.000 A 
ATOM      4  C   UNL     1       1.352   5.121  20.385  0.00  0.00    +0.000 C 
ATOM      5  C   UNL     1       3.470   5.182  18.977  0.00  0.00    +0.000 A 
ATOM      6  C   UNL     1       3.117   6.422  18.420  0.00  0.00    +0.000 A 
ATOM      7  C   UNL     1       3.941   7.057  17.481  0.00  0.00    +0.000 A 
ATOM      8  C   UNL     1       5.120   6.444  17.075  0.00  0.00    +0.000 A 
ATOM      9  C   UNL     1       5.486   5.212  17.593  0.00  0.00    +0.000 A 
ATOM     10  C   UNL     1       4.662   4.605  18.543  0.00  0.00    +0.000 A 
ATOM     11  O   UNL     1       5.112   3.384  19.063  0.00  0.00    +0.000 OA
ATOM     12  C   UNL     1       4.441   2.750  20.089  0.00  0.00    +0.000 A 
ATOM     13  O   UNL     1       4.886   1.722  20.594  0.00  0.00    +0.000 OA
ENDROOT
BRANCH   8  14
ATOM     14  O   UNL     1       5.952   7.031  16.170  0.00  0.00    +0.000 OA
ATOM     15  H   UNL     1       6.867   6.772  16.369  0.00  0.00    +0.000 HD
ENDBRANCH   8  14
TORSDOF 1
ENDMDL
