MODEL 1
REMARK VINA RESULT:      -7.1      0.000      0.000
REMARK  Name = 
REMARK  4 active torsions:
REMARK  status: ('A' for Active; 'I' for Inactive)
REMARK    1  A    between atoms: C_2  and  C_15
REMARK    2  A    between atoms: N_3  and  C_4
REMARK    3  A    between atoms: C_8  and  N_9
REMARK    4  A    between atoms: C_15  and  C_17
REMARK                            x       y       z     vdW  Elec       q    Type
REMARK                         _______ _______ _______ _____ _____    ______ ____
ROOT
ATOM      1  O   UNL     1       1.771   5.067  18.285  0.00  0.00    +0.000 OA
ATOM      2  C   UNL     1       2.438   5.224  19.299  0.00  0.00    +0.000 C 
ATOM      3  N   UNL     1       2.746   6.415  19.942  0.00  0.00    +0.000 N 
ATOM      4  H   UNL     1       3.668   6.430  20.375  0.00  0.00    +0.000 HD
ENDROOT
BRANCH   3   5
ATOM      5  C   UNL     1       2.224   7.664  19.525  0.00  0.00    +0.000 A 
ATOM      6  C   UNL     1       2.617   8.291  18.327  0.00  0.00    +0.000 A 
ATOM      7 CL   UNL     1       3.627   7.506  17.160  0.00  0.00    +0.000 Cl
ATOM      8  C   UNL     1       2.087   9.535  17.964  0.00  0.00    +0.000 A 
ATOM      9  C   UNL     1       1.158  10.162  18.801  0.00  0.00    +0.000 A 
ATOM     10  C   UNL     1       0.720   9.537  19.972  0.00  0.00    +0.000 A 
ATOM     11  C   UNL     1       1.238   8.285  20.314  0.00  0.00    +0.000 A 
ATOM     12 CL   UNL     1       0.668   7.546  21.771  0.00  0.00    +0.000 Cl
BRANCH   9  13
ATOM     13  N   UNL     1       0.618  11.478  18.435  0.00  0.00    +0.000 N 
ATOM     14  O   UNL     1       1.419  12.414  18.320  0.00  0.00    +0.000 OA
ATOM     15  O   UNL     1      -0.606  11.569  18.271  0.00  0.00    +0.000 OA
ENDBRANCH   9  13
ENDBRANCH   3   5
BRANCH   2  16
ATOM     16  C   UNL     1       3.195   4.030  19.859  0.00  0.00    +0.000 C 
ATOM     17  O   UNL     1       2.836   3.550  20.928  0.00  0.00    +0.000 OA
BRANCH  16  18
ATOM     18  C   UNL     1       4.374   3.558  19.058  0.00  0.00    +0.000 C 
ATOM     19  C   UNL     1       5.350   4.673  18.827  0.00  0.00    +0.000 C 
ATOM     20  O   UNL     1       5.682   5.435  19.735  0.00  0.00    +0.000 OA
ATOM     21  N   UNL     1       5.862   4.825  17.570  0.00  0.00    +0.000 N 
ATOM     22  C   UNL     1       5.508   4.100  16.478  0.00  0.00    +0.000 C 
ATOM     23  S   UNL     1       6.177   4.400  14.989  0.00  0.00    +0.000 S 
ATOM     24  N   UNL     1       4.585   3.118  16.658  0.00  0.00    +0.000 N 
ATOM     25  C   UNL     1       3.965   2.796  17.836  0.00  0.00    +0.000 C 
ATOM     26  O   UNL     1       3.149   1.877  17.864  0.00  0.00    +0.000 OA
ATOM     27  H   UNL     1       6.521   5.584  17.438  0.00  0.00    +0.000 HD
ATOM     28  H   UNL     1       4.310   2.572  15.850  0.00  0.00    +0.000 HD
ENDBRANCH  16  18
ENDBRANCH   2  16
TORSDOF 4
ENDMDL
MODEL 2
REMARK VINA RESULT:      -6.8      0.331      1.954
REMARK  Name = 
REMARK  4 active torsions:
REMARK  status: ('A' for Active; 'I' for Inactive)
REMARK    1  A    between atoms: C_2  and  C_15
REMARK    2  A    between atoms: N_3  and  C_4
REMARK    3  A    between atoms: C_8  and  N_9
REMARK    4  A    between atoms: C_15  and  C_17
REMARK                            x       y       z     vdW  Elec       q    Type
REMARK                         _______ _______ _______ _____ _____    ______ ____
ROOT
ATOM      1  O   UNL     1       1.521   5.136  18.480  0.00  0.00    +0.000 OA
ATOM      2  C   UNL     1       2.311   5.314  19.397  0.00  0.00    +0.000 C 
ATOM      3  N   UNL     1       2.681   6.516  19.984  0.00  0.00    +0.000 N 
ATOM      4  H   UNL     1       3.651   6.550  20.293  0.00  0.00    +0.000 HD
ENDROOT
BRANCH   3   5
ATOM      5  C   UNL     1       2.089   7.753  19.626  0.00  0.00    +0.000 A 
ATOM      6  C   UNL     1       1.213   8.452  20.479  0.00  0.00    +0.000 A 
ATOM      7 CL   UNL     1       0.928   7.962  22.115  0.00  0.00    +0.000 Cl
ATOM      8  C   UNL     1       0.637   9.662  20.075  0.00  0.00    +0.000 A 
ATOM      9  C   UNL     1       0.936  10.183  18.812  0.00  0.00    +0.000 A 
ATOM     10  C   UNL     1       1.838   9.530  17.968  0.00  0.00    +0.000 A 
ATOM     11  C   UNL     1       2.425   8.333  18.388  0.00  0.00    +0.000 A 
ATOM     12 CL   UNL     1       3.538   7.558  17.314  0.00  0.00    +0.000 Cl
BRANCH   9  13
ATOM     13  N   UNL     1       0.316  11.441  18.376  0.00  0.00    +0.000 N 
ATOM     14  O   UNL     1      -0.886  11.415  18.080  0.00  0.00    +0.000 OA
ATOM     15  O   UNL     1       1.035  12.447  18.326  0.00  0.00    +0.000 OA
ENDBRANCH   9  13
ENDBRANCH   3   5
BRANCH   2  16
ATOM     16  C   UNL     1       3.155   4.138  19.864  0.00  0.00    +0.000 C 
ATOM     17  O   UNL     1       2.924   3.642  20.960  0.00  0.00    +0.000 OA
BRANCH  16  18
ATOM     18  C   UNL     1       4.255   3.702  18.939  0.00  0.00    +0.000 C 
ATOM     19  C   UNL     1       5.285   4.781  18.781  0.00  0.00    +0.000 C 
ATOM     20  O   UNL     1       5.715   5.405  19.751  0.00  0.00    +0.000 OA
ATOM     21  N   UNL     1       5.734   5.057  17.522  0.00  0.00    +0.000 N 
ATOM     22  C   UNL     1       5.274   4.492  16.375  0.00  0.00    +0.000 C 
ATOM     23  S   UNL     1       5.877   4.935  14.893  0.00  0.00    +0.000 S 
ATOM     24  N   UNL     1       4.303   3.549  16.495  0.00  0.00    +0.000 N 
ATOM     25  C   UNL     1       3.731   3.121  17.663  0.00  0.00    +0.000 C 
ATOM     26  O   UNL     1       2.861   2.253  17.633  0.00  0.00    +0.000 OA
ATOM     27  H   UNL     1       6.431   5.788  17.440  0.00  0.00    +0.000 HD
ATOM     28  H   UNL     1       3.949   3.123  15.647  0.00  0.00    +0.000 HD
ENDBRANCH  16  18
ENDBRANCH   2  16
TORSDOF 4
ENDMDL
MODEL 3
REMARK VINA RESULT:      -6.6      2.188      2.650
REMARK  Name = 
REMARK  4 active torsions:
REMARK  status: ('A' for Active; 'I' for Inactive)
REMARK    1  A    between atoms: C_2  and  C_15
REMARK    2  A    between atoms: N_3  and  C_4
REMARK    3  A    between atoms: C_8  and  N_9
REMARK    4  A    between atoms: C_15  and  C_17
REMARK                            x       y       z     vdW  Elec       q    Type
REMARK                         _______ _______ _______ _____ _____    ______ ____
ROOT
ATOM      1  O   UNL     1       1.915   4.554  17.298  0.00  0.00    +0.000 OA
ATOM      2  C   UNL     1       2.984   4.516  17.892  0.00  0.00    +0.000 C 
ATOM      3  N   UNL     1       3.465   5.408  18.841  0.00  0.00    +0.000 N 
ATOM      4  H   UNL     1       4.473   5.547  18.812  0.00  0.00    +0.000 HD
ENDROOT
BRANCH   3   5
ATOM      5  C   UNL     1       2.692   6.491  19.331  0.00  0.00    +0.000 A 
ATOM      6  C   UNL     1       2.606   7.727  18.663  0.00  0.00    +0.000 A 
ATOM      7 CL   UNL     1       3.280   7.977  17.088  0.00  0.00    +0.000 Cl
ATOM      8  C   UNL     1       1.845   8.774  19.195  0.00  0.00    +0.000 A 
ATOM      9  C   UNL     1       1.162   8.591  20.401  0.00  0.00    +0.000 A 
ATOM     10  C   UNL     1       1.196   7.357  21.057  0.00  0.00    +0.000 A 
ATOM     11  C   UNL     1       1.941   6.310  20.508  0.00  0.00    +0.000 A 
ATOM     12 CL   UNL     1       1.955   4.799  21.351  0.00  0.00    +0.000 Cl
BRANCH   9  13
ATOM     13  N   UNL     1       0.381   9.695  20.973  0.00  0.00    +0.000 N 
ATOM     14  O   UNL     1       0.811  10.227  22.005  0.00  0.00    +0.000 OA
ATOM     15  O   UNL     1      -0.663  10.020  20.391  0.00  0.00    +0.000 OA
ENDBRANCH   9  13
ENDBRANCH   3   5
BRANCH   2  16
ATOM     16  C   UNL     1       4.026   3.503  17.445  0.00  0.00    +0.000 C 
ATOM     17  O   UNL     1       3.701   2.326  17.344  0.00  0.00    +0.000 OA
BRANCH  16  18
ATOM     18  C   UNL     1       5.408   4.036  17.201  0.00  0.00    +0.000 C 
ATOM     19  C   UNL     1       6.028   4.527  18.476  0.00  0.00    +0.000 C 
ATOM     20  O   UNL     1       5.960   3.873  19.517  0.00  0.00    +0.000 OA
ATOM     21  N   UNL     1       6.672   5.730  18.452  0.00  0.00    +0.000 N 
ATOM     22  C   UNL     1       6.739   6.572  17.388  0.00  0.00    +0.000 C 
ATOM     23  S   UNL     1       7.526   8.031  17.489  0.00  0.00    +0.000 S 
ATOM     24  N   UNL     1       6.138   6.166  16.238  0.00  0.00    +0.000 N 
ATOM     25  C   UNL     1       5.456   4.994  16.052  0.00  0.00    +0.000 C 
ATOM     26  O   UNL     1       4.961   4.744  14.955  0.00  0.00    +0.000 OA
ATOM     27  H   UNL     1       7.086   6.041  19.324  0.00  0.00    +0.000 HD
ATOM     28  H   UNL     1       6.178   6.787  15.438  0.00  0.00    +0.000 HD
ENDBRANCH  16  18
ENDBRANCH   2  16
TORSDOF 4
ENDMDL
MODEL 4
REMARK VINA RESULT:      -6.6      3.919      7.810
REMARK  Name = 
REMARK  4 active torsions:
REMARK  status: ('A' for Active; 'I' for Inactive)
REMARK    1  A    between atoms: C_2  and  C_15
REMARK    2  A    between atoms: N_3  and  C_4
REMARK    3  A    between atoms: C_8  and  N_9
REMARK    4  A    between atoms: C_15  and  C_17
REMARK                            x       y       z     vdW  Elec       q    Type
REMARK                         _______ _______ _______ _____ _____    ______ ____
ROOT
ATOM      1  O   UNL     1       2.290   8.412  21.737  0.00  0.00    +0.000 OA
ATOM      2  C   UNL     1       1.309   8.082  21.086  0.00  0.00    +0.000 C 
ATOM      3  N   UNL     1       1.263   7.261  19.968  0.00  0.00    +0.000 N 
ATOM      4  H   UNL     1       0.552   7.521  19.287  0.00  0.00    +0.000 HD
ENDROOT
BRANCH   3   5
ATOM      5  C   UNL     1       2.409   6.597  19.462  0.00  0.00    +0.000 A 
ATOM      6  C   UNL     1       2.899   5.398  20.013  0.00  0.00    +0.000 A 
ATOM      7 CL   UNL     1       2.040   4.523  21.236  0.00  0.00    +0.000 Cl
ATOM      8  C   UNL     1       4.046   4.788  19.491  0.00  0.00    +0.000 A 
ATOM      9  C   UNL     1       4.711   5.375  18.410  0.00  0.00    +0.000 A 
ATOM     10  C   UNL     1       4.215   6.540  17.818  0.00  0.00    +0.000 A 
ATOM     11  C   UNL     1       3.057   7.130  18.332  0.00  0.00    +0.000 A 
ATOM     12 CL   UNL     1       2.477   8.570  17.568  0.00  0.00    +0.000 Cl
BRANCH   9  13
ATOM     13  N   UNL     1       5.927   4.750  17.874  0.00  0.00    +0.000 N 
ATOM     14  O   UNL     1       6.892   4.625  18.640  0.00  0.00    +0.000 OA
ATOM     15  O   UNL     1       5.913   4.392  16.689  0.00  0.00    +0.000 OA
ENDBRANCH   9  13
ENDBRANCH   3   5
BRANCH   2  16
ATOM     16  C   UNL     1      -0.018   8.765  21.378  0.00  0.00    +0.000 C 
ATOM     17  O   UNL     1      -0.964   8.085  21.755  0.00  0.00    +0.000 OA
BRANCH  16  18
ATOM     18  C   UNL     1      -0.069  10.246  21.131  0.00  0.00    +0.000 C 
ATOM     19  C   UNL     1      -0.643  10.969  22.314  0.00  0.00    +0.000 C 
ATOM     20  O   UNL     1      -0.290  10.702  23.463  0.00  0.00    +0.000 OA
ATOM     21  N   UNL     1      -1.576  11.937  22.080  0.00  0.00    +0.000 N 
ATOM     22  C   UNL     1      -2.098  12.258  20.868  0.00  0.00    +0.000 C 
ATOM     23  S   UNL     1      -3.258  13.436  20.713  0.00  0.00    +0.000 S 
ATOM     24  N   UNL     1      -1.627  11.577  19.790  0.00  0.00    +0.000 N 
ATOM     25  C   UNL     1      -0.685  10.584  19.810  0.00  0.00    +0.000 C 
ATOM     26  O   UNL     1      -0.342  10.049  18.757  0.00  0.00    +0.000 OA
ATOM     27  H   UNL     1      -1.948  12.414  22.894  0.00  0.00    +0.000 HD
ATOM     28  H   UNL     1      -2.012  11.804  18.881  0.00  0.00    +0.000 HD
ENDBRANCH  16  18
ENDBRANCH   2  16
TORSDOF 4
ENDMDL
MODEL 5
REMARK VINA RESULT:      -6.5      6.547      9.199
REMARK  Name = 
REMARK  4 active torsions:
REMARK  status: ('A' for Active; 'I' for Inactive)
REMARK    1  A    between atoms: C_2  and  C_15
REMARK    2  A    between atoms: N_3  and  C_4
REMARK    3  A    between atoms: C_8  and  N_9
REMARK    4  A    between atoms: C_15  and  C_17
REMARK                            x       y       z     vdW  Elec       q    Type
REMARK                         _______ _______ _______ _____ _____    ______ ____
ROOT
ATOM      1  O   UNL     1      -1.008  11.036  21.969  0.00  0.00    +0.000 OA
ATOM      2  C   UNL     1      -0.824  12.155  21.511  0.00  0.00    +0.000 C 
ATOM      3  N   UNL     1      -1.706  13.226  21.493  0.00  0.00    +0.000 N 
ATOM      4  H   UNL     1      -1.628  13.819  20.669  0.00  0.00    +0.000 HD
ENDROOT
BRANCH   3   5
ATOM      5  C   UNL     1      -2.978  13.177  22.117  0.00  0.00    +0.000 A 
ATOM      6  C   UNL     1      -3.180  13.538  23.462  0.00  0.00    +0.000 A 
ATOM      7 CL   UNL     1      -1.933  14.256  24.425  0.00  0.00    +0.000 Cl
ATOM      8  C   UNL     1      -4.453  13.455  24.040  0.00  0.00    +0.000 A 
ATOM      9  C   UNL     1      -5.534  13.010  23.274  0.00  0.00    +0.000 A 
ATOM     10  C   UNL     1      -5.365  12.690  21.923  0.00  0.00    +0.000 A 
ATOM     11  C   UNL     1      -4.095  12.797  21.349  0.00  0.00    +0.000 A 
ATOM     12 CL   UNL     1      -3.930  12.393  19.675  0.00  0.00    +0.000 Cl
BRANCH   9  13
ATOM     13  N   UNL     1      -6.865  12.901  23.883  0.00  0.00    +0.000 N 
ATOM     14  O   UNL     1      -7.357  11.770  23.985  0.00  0.00    +0.000 OA
ATOM     15  O   UNL     1      -7.415  13.947  24.251  0.00  0.00    +0.000 OA
ENDBRANCH   9  13
ENDBRANCH   3   5
BRANCH   2  16
ATOM     16  C   UNL     1       0.432  12.403  20.689  0.00  0.00    +0.000 C 
ATOM     17  O   UNL     1       1.402  12.918  21.232  0.00  0.00    +0.000 OA
BRANCH  16  18
ATOM     18  C   UNL     1       0.359  12.028  19.237  0.00  0.00    +0.000 C 
ATOM     19  C   UNL     1      -0.493  12.998  18.473  0.00  0.00    +0.000 C 
ATOM     20  O   UNL     1      -0.383  14.213  18.632  0.00  0.00    +0.000 OA
ATOM     21  N   UNL     1      -1.403  12.492  17.590  0.00  0.00    +0.000 N 
ATOM     22  C   UNL     1      -1.667  11.174  17.392  0.00  0.00    +0.000 C 
ATOM     23  S   UNL     1      -2.825  10.679  16.311  0.00  0.00    +0.000 S 
ATOM     24  N   UNL     1      -0.940  10.281  18.115  0.00  0.00    +0.000 N 
ATOM     25  C   UNL     1       0.026  10.583  19.037  0.00  0.00    +0.000 C 
ATOM     26  O   UNL     1       0.615   9.675  19.621  0.00  0.00    +0.000 OA
ATOM     27  H   UNL     1      -1.965  13.166  17.083  0.00  0.00    +0.000 HD
ATOM     28  H   UNL     1      -1.130   9.295  17.979  0.00  0.00    +0.000 HD
ENDBRANCH  16  18
ENDBRANCH   2  16
TORSDOF 4
ENDMDL
MODEL 6
REMARK VINA RESULT:      -6.4      6.513     10.625
REMARK  Name = 
REMARK  4 active torsions:
REMARK  status: ('A' for Active; 'I' for Inactive)
REMARK    1  A    between atoms: C_2  and  C_15
REMARK    2  A    between atoms: N_3  and  C_4
REMARK    3  A    between atoms: C_8  and  N_9
REMARK    4  A    between atoms: C_15  and  C_17
REMARK                            x       y       z     vdW  Elec       q    Type
REMARK                         _______ _______ _______ _____ _____    ______ ____
ROOT
ATOM      1  O   UNL     1       0.056  13.489  22.457  0.00  0.00    +0.000 OA
ATOM      2  C   UNL     1      -1.037  12.947  22.536  0.00  0.00    +0.000 C 
ATOM      3  N   UNL     1      -1.481  11.816  21.864  0.00  0.00    +0.000 N 
ATOM      4  H   UNL     1      -2.471  11.832  21.627  0.00  0.00    +0.000 HD
ENDROOT
BRANCH   3   5
ATOM      5  C   UNL     1      -0.639  11.056  21.014  0.00  0.00    +0.000 A 
ATOM      6  C   UNL     1      -0.450  11.366  19.654  0.00  0.00    +0.000 A 
ATOM      7 CL   UNL     1      -1.076  12.815  18.941  0.00  0.00    +0.000 Cl
ATOM      8  C   UNL     1       0.377  10.575  18.849  0.00  0.00    +0.000 A 
ATOM      9  C   UNL     1       1.023   9.464  19.401  0.00  0.00    +0.000 A 
ATOM     10  C   UNL     1       0.886   9.164  20.759  0.00  0.00    +0.000 A 
ATOM     11  C   UNL     1       0.075   9.972  21.560  0.00  0.00    +0.000 A 
ATOM     12 CL   UNL     1      -0.065   9.567  23.236  0.00  0.00    +0.000 Cl
BRANCH   9  13
ATOM     13  N   UNL     1       1.873   8.618  18.553  0.00  0.00    +0.000 N 
ATOM     14  O   UNL     1       2.316   7.574  19.048  0.00  0.00    +0.000 OA
ATOM     15  O   UNL     1       2.098   9.006  17.399  0.00  0.00    +0.000 OA
ENDBRANCH   9  13
ENDBRANCH   3   5
BRANCH   2  16
ATOM     16  C   UNL     1      -2.143  13.655  23.305  0.00  0.00    +0.000 C 
ATOM     17  O   UNL     1      -1.844  14.337  24.278  0.00  0.00    +0.000 OA
BRANCH  16  18
ATOM     18  C   UNL     1      -3.544  13.418  22.820  0.00  0.00    +0.000 C 
ATOM     19  C   UNL     1      -4.073  14.619  22.094  0.00  0.00    +0.000 C 
ATOM     20  O   UNL     1      -3.391  15.220  21.264  0.00  0.00    +0.000 OA
ATOM     21  N   UNL     1      -5.341  15.034  22.383  0.00  0.00    +0.000 N 
ATOM     22  C   UNL     1      -6.151  14.501  23.334  0.00  0.00    +0.000 C 
ATOM     23  S   UNL     1      -7.667  15.114  23.619  0.00  0.00    +0.000 S 
ATOM     24  N   UNL     1      -5.668  13.443  24.038  0.00  0.00    +0.000 N 
ATOM     25  C   UNL     1      -4.433  12.869  23.891  0.00  0.00    +0.000 C 
ATOM     26  O   UNL     1      -4.121  11.909  24.592  0.00  0.00    +0.000 OA
ATOM     27  H   UNL     1      -5.678  15.846  21.879  0.00  0.00    +0.000 HD
ATOM     28  H   UNL     1      -6.262  13.039  24.753  0.00  0.00    +0.000 HD
ENDBRANCH  16  18
ENDBRANCH   2  16
TORSDOF 4
ENDMDL
MODEL 7
REMARK VINA RESULT:      -6.3      6.445     10.656
REMARK  Name = 
REMARK  4 active torsions:
REMARK  status: ('A' for Active; 'I' for Inactive)
REMARK    1  A    between atoms: C_2  and  C_15
REMARK    2  A    between atoms: N_3  and  C_4
REMARK    3  A    between atoms: C_8  and  N_9
REMARK    4  A    between atoms: C_15  and  C_17
REMARK                            x       y       z     vdW  Elec       q    Type
REMARK                         _______ _______ _______ _____ _____    ______ ____
ROOT
ATOM      1  O   UNL     1       0.306  13.492  22.361  0.00  0.00    +0.000 OA
ATOM      2  C   UNL     1      -0.802  12.993  22.503  0.00  0.00    +0.000 C 
ATOM      3  N   UNL     1      -1.295  11.832  21.925  0.00  0.00    +0.000 N 
ATOM      4  H   UNL     1      -2.290  11.863  21.707  0.00  0.00    +0.000 HD
ENDROOT
BRANCH   3   5
ATOM      5  C   UNL     1      -0.498  10.985  21.115  0.00  0.00    +0.000 A 
ATOM      6  C   UNL     1       0.272   9.932  21.643  0.00  0.00    +0.000 A 
ATOM      7 CL   UNL     1       0.170   9.453  23.304  0.00  0.00    +0.000 Cl
ATOM      8  C   UNL     1       1.059   9.132  20.805  0.00  0.00    +0.000 A 
ATOM      9  C   UNL     1       1.079   9.382  19.429  0.00  0.00    +0.000 A 
ATOM     10  C   UNL     1       0.286  10.393  18.878  0.00  0.00    +0.000 A 
ATOM     11  C   UNL     1      -0.513  11.172  19.719  0.00  0.00    +0.000 A 
ATOM     12 CL   UNL     1      -1.479  12.411  18.996  0.00  0.00    +0.000 Cl
BRANCH   9  13
ATOM     13  N   UNL     1       1.921   8.560  18.550  0.00  0.00    +0.000 N 
ATOM     14  O   UNL     1       2.153   8.990  17.413  0.00  0.00    +0.000 OA
ATOM     15  O   UNL     1       2.339   7.485  19.000  0.00  0.00    +0.000 OA
ENDBRANCH   9  13
ENDBRANCH   3   5
BRANCH   2  16
ATOM     16  C   UNL     1      -1.866  13.791  23.240  0.00  0.00    +0.000 C 
ATOM     17  O   UNL     1      -1.536  14.464  24.210  0.00  0.00    +0.000 OA
BRANCH  16  18
ATOM     18  C   UNL     1      -3.272  13.648  22.733  0.00  0.00    +0.000 C 
ATOM     19  C   UNL     1      -3.808  14.966  22.257  0.00  0.00    +0.000 C 
ATOM     20  O   UNL     1      -3.134  15.717  21.551  0.00  0.00    +0.000 OA
ATOM     21  N   UNL     1      -5.073  15.315  22.633  0.00  0.00    +0.000 N 
ATOM     22  C   UNL     1      -5.874  14.608  23.471  0.00  0.00    +0.000 C 
ATOM     23  S   UNL     1      -7.387  15.152  23.884  0.00  0.00    +0.000 S 
ATOM     24  N   UNL     1      -5.384  13.435  23.954  0.00  0.00    +0.000 N 
ATOM     25  C   UNL     1      -4.151  12.903  23.687  0.00  0.00    +0.000 C 
ATOM     26  O   UNL     1      -3.831  11.826  24.187  0.00  0.00    +0.000 OA
ATOM     27  H   UNL     1      -5.415  16.209  22.297  0.00  0.00    +0.000 HD
ATOM     28  H   UNL     1      -5.970  12.900  24.583  0.00  0.00    +0.000 HD
ENDBRANCH  16  18
ENDBRANCH   2  16
TORSDOF 4
ENDMDL
MODEL 8
REMARK VINA RESULT:      -6.3      6.516      9.059
REMARK  Name = 
REMARK  4 active torsions:
REMARK  status: ('A' for Active; 'I' for Inactive)
REMARK    1  A    between atoms: C_2  and  C_15
REMARK    2  A    between atoms: N_3  and  C_4
REMARK    3  A    between atoms: C_8  and  N_9
REMARK    4  A    between atoms: C_15  and  C_17
REMARK                            x       y       z     vdW  Elec       q    Type
REMARK                         _______ _______ _______ _____ _____    ______ ____
ROOT
ATOM      1  O   UNL     1      -1.117  11.010  21.719  0.00  0.00    +0.000 OA
ATOM      2  C   UNL     1      -0.842  12.127  21.303  0.00  0.00    +0.000 C 
ATOM      3  N   UNL     1      -1.646  13.259  21.303  0.00  0.00    +0.000 N 
ATOM      4  H   UNL     1      -1.506  13.871  20.501  0.00  0.00    +0.000 HD
ENDROOT
BRANCH   3   5
ATOM      5  C   UNL     1      -2.932  13.281  21.897  0.00  0.00    +0.000 A 
ATOM      6  C   UNL     1      -4.094  12.878  21.212  0.00  0.00    +0.000 A 
ATOM      7 CL   UNL     1      -4.036  12.138  19.648  0.00  0.00    +0.000 Cl
ATOM      8  C   UNL     1      -5.347  12.934  21.835  0.00  0.00    +0.000 A 
ATOM      9  C   UNL     1      -5.445  13.395  23.152  0.00  0.00    +0.000 A 
ATOM     10  C   UNL     1      -4.299  13.757  23.866  0.00  0.00    +0.000 A 
ATOM     11  C   UNL     1      -3.051  13.676  23.243  0.00  0.00    +0.000 A 
ATOM     12 CL   UNL     1      -1.658  14.132  24.163  0.00  0.00    +0.000 Cl
BRANCH   9  13
ATOM     13  N   UNL     1      -6.760  13.477  23.800  0.00  0.00    +0.000 N 
ATOM     14  O   UNL     1      -7.260  12.424  24.217  0.00  0.00    +0.000 OA
ATOM     15  O   UNL     1      -7.289  14.593  23.883  0.00  0.00    +0.000 OA
ENDBRANCH   9  13
ENDBRANCH   3   5
BRANCH   2  16
ATOM     16  C   UNL     1       0.447  12.311  20.518  0.00  0.00    +0.000 C 
ATOM     17  O   UNL     1       1.445  12.710  21.104  0.00  0.00    +0.000 OA
BRANCH  16  18
ATOM     18  C   UNL     1       0.373  12.022  19.046  0.00  0.00    +0.000 C 
ATOM     19  C   UNL     1      -0.511  13.013  18.347  0.00  0.00    +0.000 C 
ATOM     20  O   UNL     1      -0.433  14.219  18.579  0.00  0.00    +0.000 OA
ATOM     21  N   UNL     1      -1.413  12.537  17.440  0.00  0.00    +0.000 N 
ATOM     22  C   UNL     1      -1.643  11.227  17.164  0.00  0.00    +0.000 C 
ATOM     23  S   UNL     1      -2.795  10.766  16.062  0.00  0.00    +0.000 S 
ATOM     24  N   UNL     1      -0.886  10.312  17.827  0.00  0.00    +0.000 N 
ATOM     25  C   UNL     1       0.078  10.583  18.760  0.00  0.00    +0.000 C 
ATOM     26  O   UNL     1       0.696   9.659  19.284  0.00  0.00    +0.000 OA
ATOM     27  H   UNL     1      -1.998  13.224  16.978  0.00  0.00    +0.000 HD
ATOM     28  H   UNL     1      -1.051   9.331  17.633  0.00  0.00    +0.000 HD
ENDBRANCH  16  18
ENDBRANCH   2  16
TORSDOF 4
ENDMDL
MODEL 9
REMARK VINA RESULT:      -6.3      3.708      8.262
REMARK  Name = 
REMARK  4 active torsions:
REMARK  status: ('A' for Active; 'I' for Inactive)
REMARK    1  A    between atoms: C_2  and  C_15
REMARK    2  A    between atoms: N_3  and  C_4
REMARK    3  A    between atoms: C_8  and  N_9
REMARK    4  A    between atoms: C_15  and  C_17
REMARK                            x       y       z     vdW  Elec       q    Type
REMARK                         _______ _______ _______ _____ _____    ______ ____
ROOT
ATOM      1  O   UNL     1       1.788  12.195  21.182  0.00  0.00    +0.000 OA
ATOM      2  C   UNL     1       0.599  12.028  20.950  0.00  0.00    +0.000 C 
ATOM      3  N   UNL     1      -0.027  10.880  20.483  0.00  0.00    +0.000 N 
ATOM      4  H   UNL     1      -0.818  11.056  19.867  0.00  0.00    +0.000 HD
ENDROOT
BRANCH   3   5
ATOM      5  C   UNL     1       0.668   9.660  20.285  0.00  0.00    +0.000 A 
ATOM      6  C   UNL     1       1.429   9.396  19.132  0.00  0.00    +0.000 A 
ATOM      7 CL   UNL     1       1.746  10.607  17.935  0.00  0.00    +0.000 Cl
ATOM      8  C   UNL     1       2.083   8.168  18.973  0.00  0.00    +0.000 A 
ATOM      9  C   UNL     1       1.979   7.194  19.971  0.00  0.00    +0.000 A 
ATOM     10  C   UNL     1       1.265   7.452  21.145  0.00  0.00    +0.000 A 
ATOM     11  C   UNL     1       0.634   8.689  21.304  0.00  0.00    +0.000 A 
ATOM     12 CL   UNL     1      -0.237   8.968  22.773  0.00  0.00    +0.000 Cl
BRANCH   9  13
ATOM     13  N   UNL     1       2.644   5.897  19.796  0.00  0.00    +0.000 N 
ATOM     14  O   UNL     1       2.444   5.030  20.658  0.00  0.00    +0.000 OA
ATOM     15  O   UNL     1       3.369   5.753  18.803  0.00  0.00    +0.000 OA
ENDBRANCH   9  13
ENDBRANCH   3   5
BRANCH   2  16
ATOM     16  C   UNL     1      -0.323  13.237  20.982  0.00  0.00    +0.000 C 
ATOM     17  O   UNL     1      -0.280  13.988  21.949  0.00  0.00    +0.000 OA
BRANCH  16  18
ATOM     18  C   UNL     1      -1.259  13.388  19.818  0.00  0.00    +0.000 C 
ATOM     19  C   UNL     1      -2.426  12.452  19.942  0.00  0.00    +0.000 C 
ATOM     20  O   UNL     1      -3.028  12.313  21.007  0.00  0.00    +0.000 OA
ATOM     21  N   UNL     1      -2.804  11.751  18.833  0.00  0.00    +0.000 N 
ATOM     22  C   UNL     1      -2.167  11.763  17.634  0.00  0.00    +0.000 C 
ATOM     23  S   UNL     1      -2.702  10.837  16.363  0.00  0.00    +0.000 S 
ATOM     24  N   UNL     1      -1.076  12.566  17.519  0.00  0.00    +0.000 N 
ATOM     25  C   UNL     1      -0.546  13.357  18.503  0.00  0.00    +0.000 C 
ATOM     26  O   UNL     1       0.446  14.042  18.266  0.00  0.00    +0.000 OA
ATOM     27  H   UNL     1      -3.595  11.127  18.940  0.00  0.00    +0.000 HD
ATOM     28  H   UNL     1      -0.590  12.580  16.630  0.00  0.00    +0.000 HD
ENDBRANCH  16  18
ENDBRANCH   2  16
TORSDOF 4
ENDMDL
