MODEL 1
REMARK VINA RESULT:      -8.8      0.000      0.000
REMARK  Name = 
REMARK  3 active torsions:
REMARK  status: ('A' for Active; 'I' for Inactive)
REMARK    1  A    between atoms: C_2  and  C_10
REMARK    2  A    between atoms: N_3  and  C_4
REMARK    3  A    between atoms: N_17  and  C_18
REMARK                            x       y       z     vdW  Elec       q    Type
REMARK                         _______ _______ _______ _____ _____    ______ ____
ROOT
ATOM      1  C   UNL     1       3.726   2.607  18.762  0.00  0.00    +0.000 C 
ATOM      2  C   UNL     1       3.791   2.551  20.289  0.00  0.00    +0.000 C 
ATOM      3  C   UNL     1       2.342   2.721  20.732  0.00  0.00    +0.000 C 
ATOM      4  C   UNL     1       1.948   4.200  20.952  0.00  0.00    +0.000 C 
ATOM      5  N   UNL     1       2.052   5.007  19.731  0.00  0.00    +0.000 N 
ATOM      6  C   UNL     1       1.870   6.387  19.650  0.00  0.00    +0.000 C 
ATOM      7  O   UNL     1       1.889   6.950  18.556  0.00  0.00    +0.000 OA
ATOM      8  N   UNL     1       1.622   7.037  20.840  0.00  0.00    +0.000 N 
ATOM      9  C   UNL     1       1.758   4.293  18.475  0.00  0.00    +0.000 C 
ATOM     10  C   UNL     1       2.238   2.831  18.477  0.00  0.00    +0.000 C 
ATOM     11  O   UNL     1       1.598   2.192  19.615  0.00  0.00    +0.000 OA
ATOM     12  H   UNL     1       1.895   6.576  21.689  0.00  0.00    +0.000 HD
ENDROOT
BRANCH   8  13
ATOM     13  C   UNL     1       1.173   8.376  20.964  0.00  0.00    +0.000 A 
ATOM     14  C   UNL     1       1.164   9.286  19.904  0.00  0.00    +0.000 A 
ATOM     15  C   UNL     1       0.737  10.603  20.083  0.00  0.00    +0.000 A 
ATOM     16  C   UNL     1       0.288  11.025  21.328  0.00  0.00    +0.000 A 
ATOM     17  C   UNL     1       0.258  10.123  22.388  0.00  0.00    +0.000 A 
ATOM     18  C   UNL     1       0.691   8.803  22.207  0.00  0.00    +0.000 A 
ENDBRANCH   8  13
BRANCH   1  20
ATOM     19  O   UNL     1       4.997   3.492  16.924  0.00  0.00    +0.000 OA
ATOM     20  C   UNL     1       4.659   3.603  18.099  0.00  0.00    +0.000 C 
ATOM     21  N   UNL     1       5.224   4.507  18.984  0.00  0.00    +0.000 N 
ATOM     22  H   UNL     1       5.307   4.200  19.944  0.00  0.00    +0.000 HD
BRANCH  21  23
ATOM     23  C   UNL     1       6.112   5.515  18.562  0.00  0.00    +0.000 A 
ATOM     24  C   UNL     1       7.356   5.703  19.172  0.00  0.00    +0.000 A 
ATOM     25  C   UNL     1       8.200   6.726  18.735  0.00  0.00    +0.000 A 
ATOM     26  C   UNL     1       7.788   7.579  17.713  0.00  0.00    +0.000 A 
ATOM     27  C   UNL     1       6.550   7.389  17.101  0.00  0.00    +0.000 A 
ATOM     28  C   UNL     1       5.725   6.338  17.503  0.00  0.00    +0.000 A 
ENDBRANCH  21  23
ENDBRANCH   1  20
TORSDOF 3
ENDMDL
MODEL 2
REMARK VINA RESULT:      -8.7      0.107      1.338
REMARK  Name = 
REMARK  3 active torsions:
REMARK  status: ('A' for Active; 'I' for Inactive)
REMARK    1  A    between atoms: C_2  and  C_10
REMARK    2  A    between atoms: N_3  and  C_4
REMARK    3  A    between atoms: N_17  and  C_18
REMARK                            x       y       z     vdW  Elec       q    Type
REMARK                         _______ _______ _______ _____ _____    ______ ____
ROOT
ATOM      1  C   UNL     1       3.665   2.611  18.658  0.00  0.00    +0.000 C 
ATOM      2  C   UNL     1       3.719   2.509  20.183  0.00  0.00    +0.000 C 
ATOM      3  C   UNL     1       2.269   2.686  20.621  0.00  0.00    +0.000 C 
ATOM      4  C   UNL     1       1.894   4.164  20.881  0.00  0.00    +0.000 C 
ATOM      5  N   UNL     1       2.018   5.005  19.685  0.00  0.00    +0.000 N 
ATOM      6  C   UNL     1       1.856   6.389  19.643  0.00  0.00    +0.000 C 
ATOM      7  O   UNL     1       1.891   6.983  18.566  0.00  0.00    +0.000 OA
ATOM      8  N   UNL     1       1.608   7.007  20.850  0.00  0.00    +0.000 N 
ATOM      9  C   UNL     1       1.723   4.331  18.407  0.00  0.00    +0.000 C 
ATOM     10  C   UNL     1       2.183   2.864  18.369  0.00  0.00    +0.000 C 
ATOM     11  O   UNL     1       1.526   2.201  19.484  0.00  0.00    +0.000 OA
ATOM     12  H   UNL     1       1.868   6.518  21.687  0.00  0.00    +0.000 HD
ENDROOT
BRANCH   8  13
ATOM     13  C   UNL     1       1.177   8.348  21.011  0.00  0.00    +0.000 A 
ATOM     14  C   UNL     1       0.767   8.883  22.235  0.00  0.00    +0.000 A 
ATOM     15  C   UNL     1       0.328  10.204  22.337  0.00  0.00    +0.000 A 
ATOM     16  C   UNL     1       0.312  11.021  21.214  0.00  0.00    +0.000 A 
ATOM     17  C   UNL     1       0.748  10.515  19.992  0.00  0.00    +0.000 A 
ATOM     18  C   UNL     1       1.186   9.188  19.891  0.00  0.00    +0.000 A 
ENDBRANCH   8  13
BRANCH   1  20
ATOM     19  O   UNL     1       5.016   3.493  16.876  0.00  0.00    +0.000 OA
ATOM     20  C   UNL     1       4.617   3.612  18.030  0.00  0.00    +0.000 C 
ATOM     21  N   UNL     1       5.123   4.534  18.932  0.00  0.00    +0.000 N 
ATOM     22  H   UNL     1       5.162   4.241  19.899  0.00  0.00    +0.000 HD
BRANCH  21  23
ATOM     23  C   UNL     1       6.017   5.551  18.543  0.00  0.00    +0.000 A 
ATOM     24  C   UNL     1       5.708   6.451  17.519  0.00  0.00    +0.000 A 
ATOM     25  C   UNL     1       6.629   7.434  17.152  0.00  0.00    +0.000 A 
ATOM     26  C   UNL     1       7.868   7.498  17.786  0.00  0.00    +0.000 A 
ATOM     27  C   UNL     1       8.175   6.605  18.811  0.00  0.00    +0.000 A 
ATOM     28  C   UNL     1       7.237   5.651  19.212  0.00  0.00    +0.000 A 
ENDBRANCH  21  23
ENDBRANCH   1  20
TORSDOF 3
ENDMDL
MODEL 3
REMARK VINA RESULT:      -8.4      2.848      6.970
REMARK  Name = 
REMARK  3 active torsions:
REMARK  status: ('A' for Active; 'I' for Inactive)
REMARK    1  A    between atoms: C_2  and  C_10
REMARK    2  A    between atoms: N_3  and  C_4
REMARK    3  A    between atoms: N_17  and  C_18
REMARK                            x       y       z     vdW  Elec       q    Type
REMARK                         _______ _______ _______ _____ _____    ______ ____
ROOT
ATOM      1  C   UNL     1       2.519   4.171  19.919  0.00  0.00    +0.000 C 
ATOM      2  C   UNL     1       2.131   2.879  19.198  0.00  0.00    +0.000 C 
ATOM      3  C   UNL     1       3.449   2.126  19.045  0.00  0.00    +0.000 C 
ATOM      4  C   UNL     1       4.186   2.464  17.728  0.00  0.00    +0.000 C 
ATOM      5  N   UNL     1       4.562   3.879  17.629  0.00  0.00    +0.000 N 
ATOM      6  C   UNL     1       5.134   4.494  16.516  0.00  0.00    +0.000 C 
ATOM      7  O   UNL     1       5.495   5.668  16.576  0.00  0.00    +0.000 OA
ATOM      8  N   UNL     1       5.306   3.696  15.406  0.00  0.00    +0.000 N 
ATOM      9  C   UNL     1       4.894   4.534  18.908  0.00  0.00    +0.000 C 
ATOM     10  C   UNL     1       4.036   4.044  20.087  0.00  0.00    +0.000 C 
ATOM     11  O   UNL     1       4.226   2.605  20.161  0.00  0.00    +0.000 OA
ATOM     12  H   UNL     1       4.749   2.864  15.337  0.00  0.00    +0.000 HD
ENDROOT
BRANCH   8  13
ATOM     13  C   UNL     1       6.075   4.036  14.264  0.00  0.00    +0.000 A 
ATOM     14  C   UNL     1       7.150   4.928  14.298  0.00  0.00    +0.000 A 
ATOM     15  C   UNL     1       7.861   5.250  13.141  0.00  0.00    +0.000 A 
ATOM     16  C   UNL     1       7.520   4.665  11.929  0.00  0.00    +0.000 A 
ATOM     17  C   UNL     1       6.472   3.747  11.882  0.00  0.00    +0.000 A 
ATOM     18  C   UNL     1       5.758   3.428  13.044  0.00  0.00    +0.000 A 
ENDBRANCH   8  13
BRANCH   1  20
ATOM     19  O   UNL     1       1.690   5.492  18.090  0.00  0.00    +0.000 OA
ATOM     20  C   UNL     1       2.055   5.457  19.260  0.00  0.00    +0.000 C 
ATOM     21  N   UNL     1       2.266   6.584  20.039  0.00  0.00    +0.000 N 
ATOM     22  H   UNL     1       3.018   6.528  20.713  0.00  0.00    +0.000 HD
BRANCH  21  23
ATOM     23  C   UNL     1       1.897   7.873  19.608  0.00  0.00    +0.000 A 
ATOM     24  C   UNL     1       2.242   8.354  18.341  0.00  0.00    +0.000 A 
ATOM     25  C   UNL     1       1.871   9.644  17.959  0.00  0.00    +0.000 A 
ATOM     26  C   UNL     1       1.184  10.464  18.853  0.00  0.00    +0.000 A 
ATOM     27  C   UNL     1       0.835   9.984  20.114  0.00  0.00    +0.000 A 
ATOM     28  C   UNL     1       1.162   8.677  20.481  0.00  0.00    +0.000 A 
ENDBRANCH  21  23
ENDBRANCH   1  20
TORSDOF 3
ENDMDL
MODEL 4
REMARK VINA RESULT:      -8.4      2.814      6.860
REMARK  Name = 
REMARK  3 active torsions:
REMARK  status: ('A' for Active; 'I' for Inactive)
REMARK    1  A    between atoms: C_2  and  C_10
REMARK    2  A    between atoms: N_3  and  C_4
REMARK    3  A    between atoms: N_17  and  C_18
REMARK                            x       y       z     vdW  Elec       q    Type
REMARK                         _______ _______ _______ _____ _____    ______ ____
ROOT
ATOM      1  C   UNL     1       2.558   3.940  20.010  0.00  0.00    +0.000 C 
ATOM      2  C   UNL     1       2.192   2.648  19.279  0.00  0.00    +0.000 C 
ATOM      3  C   UNL     1       3.526   1.931  19.095  0.00  0.00    +0.000 C 
ATOM      4  C   UNL     1       4.233   2.305  17.772  0.00  0.00    +0.000 C 
ATOM      5  N   UNL     1       4.572   3.730  17.686  0.00  0.00    +0.000 N 
ATOM      6  C   UNL     1       5.109   4.373  16.572  0.00  0.00    +0.000 C 
ATOM      7  O   UNL     1       5.442   5.556  16.641  0.00  0.00    +0.000 OA
ATOM      8  N   UNL     1       5.284   3.594  15.448  0.00  0.00    +0.000 N 
ATOM      9  C   UNL     1       4.906   4.377  18.967  0.00  0.00    +0.000 C 
ATOM     10  C   UNL     1       4.080   3.850  20.153  0.00  0.00    +0.000 C 
ATOM     11  O   UNL     1       4.309   2.416  20.206  0.00  0.00    +0.000 OA
ATOM     12  H   UNL     1       4.748   2.748  15.378  0.00  0.00    +0.000 HD
ENDROOT
BRANCH   8  13
ATOM     13  C   UNL     1       6.026   3.968  14.299  0.00  0.00    +0.000 A 
ATOM     14  C   UNL     1       5.770   3.465  13.021  0.00  0.00    +0.000 A 
ATOM     15  C   UNL     1       6.545   3.845  11.924  0.00  0.00    +0.000 A 
ATOM     16  C   UNL     1       7.581   4.756  12.087  0.00  0.00    +0.000 A 
ATOM     17  C   UNL     1       7.829   5.294  13.348  0.00  0.00    +0.000 A 
ATOM     18  C   UNL     1       7.052   4.908  14.447  0.00  0.00    +0.000 A 
ENDBRANCH   8  13
BRANCH   1  20
ATOM     19  O   UNL     1       1.546   5.237  18.258  0.00  0.00    +0.000 OA
ATOM     20  C   UNL     1       2.051   5.222  19.376  0.00  0.00    +0.000 C 
ATOM     21  N   UNL     1       2.386   6.362  20.089  0.00  0.00    +0.000 N 
ATOM     22  H   UNL     1       3.213   6.301  20.668  0.00  0.00    +0.000 HD
BRANCH  21  23
ATOM     23  C   UNL     1       2.001   7.650  19.669  0.00  0.00    +0.000 A 
ATOM     24  C   UNL     1       1.236   8.492  20.483  0.00  0.00    +0.000 A 
ATOM     25  C   UNL     1       0.860   9.755  20.023  0.00  0.00    +0.000 A 
ATOM     26  C   UNL     1       1.220  10.164  18.740  0.00  0.00    +0.000 A 
ATOM     27  C   UNL     1       1.986   9.327  17.930  0.00  0.00    +0.000 A 
ATOM     28  C   UNL     1       2.405   8.083  18.406  0.00  0.00    +0.000 A 
ENDBRANCH  21  23
ENDBRANCH   1  20
TORSDOF 3
ENDMDL
MODEL 5
REMARK VINA RESULT:      -8.3      1.677      1.871
REMARK  Name = 
REMARK  3 active torsions:
REMARK  status: ('A' for Active; 'I' for Inactive)
REMARK    1  A    between atoms: C_2  and  C_10
REMARK    2  A    between atoms: N_3  and  C_4
REMARK    3  A    between atoms: N_17  and  C_18
REMARK                            x       y       z     vdW  Elec       q    Type
REMARK                         _______ _______ _______ _____ _____    ______ ____
ROOT
ATOM      1  C   UNL     1       3.697   2.258  19.453  0.00  0.00    +0.000 C 
ATOM      2  C   UNL     1       3.780   2.413  20.973  0.00  0.00    +0.000 C 
ATOM      3  C   UNL     1       2.340   2.683  21.399  0.00  0.00    +0.000 C 
ATOM      4  C   UNL     1       1.990   4.190  21.414  0.00  0.00    +0.000 C 
ATOM      5  N   UNL     1       2.101   4.816  20.091  0.00  0.00    +0.000 N 
ATOM      6  C   UNL     1       1.956   6.176  19.821  0.00  0.00    +0.000 C 
ATOM      7  O   UNL     1       1.978   6.581  18.659  0.00  0.00    +0.000 OA
ATOM      8  N   UNL     1       1.739   6.991  20.910  0.00  0.00    +0.000 N 
ATOM      9  C   UNL     1       1.774   3.942  18.950  0.00  0.00    +0.000 C 
ATOM     10  C   UNL     1       2.213   2.482  19.151  0.00  0.00    +0.000 C 
ATOM     11  O   UNL     1       1.570   2.026  20.372  0.00  0.00    +0.000 OA
ATOM     12  H   UNL     1       2.009   6.645  21.813  0.00  0.00    +0.000 HD
ENDROOT
BRANCH   8  13
ATOM     13  C   UNL     1       1.329   8.347  20.851  0.00  0.00    +0.000 A 
ATOM     14  C   UNL     1       1.348   9.106  19.678  0.00  0.00    +0.000 A 
ATOM     15  C   UNL     1       0.957  10.446  19.674  0.00  0.00    +0.000 A 
ATOM     16  C   UNL     1       0.519  11.045  20.849  0.00  0.00    +0.000 A 
ATOM     17  C   UNL     1       0.462  10.295  22.021  0.00  0.00    +0.000 A 
ATOM     18  C   UNL     1       0.857   8.951  22.022  0.00  0.00    +0.000 A 
ENDBRANCH   8  13
BRANCH   1  20
ATOM     19  O   UNL     1       5.555   3.759  19.183  0.00  0.00    +0.000 OA
ATOM     20  C   UNL     1       4.650   3.124  18.651  0.00  0.00    +0.000 C 
ATOM     21  N   UNL     1       4.280   3.270  17.323  0.00  0.00    +0.000 N 
ATOM     22  H   UNL     1       3.295   3.167  17.119  0.00  0.00    +0.000 HD
BRANCH  21  23
ATOM     23  C   UNL     1       5.039   4.030  16.412  0.00  0.00    +0.000 A 
ATOM     24  C   UNL     1       5.981   3.438  15.564  0.00  0.00    +0.000 A 
ATOM     25  C   UNL     1       6.725   4.229  14.687  0.00  0.00    +0.000 A 
ATOM     26  C   UNL     1       6.552   5.612  14.679  0.00  0.00    +0.000 A 
ATOM     27  C   UNL     1       5.610   6.202  15.520  0.00  0.00    +0.000 A 
ATOM     28  C   UNL     1       4.830   5.409  16.364  0.00  0.00    +0.000 A 
ENDBRANCH  21  23
ENDBRANCH   1  20
TORSDOF 3
ENDMDL
MODEL 6
REMARK VINA RESULT:      -8.1      1.711      2.193
REMARK  Name = 
REMARK  3 active torsions:
REMARK  status: ('A' for Active; 'I' for Inactive)
REMARK    1  A    between atoms: C_2  and  C_10
REMARK    2  A    between atoms: N_3  and  C_4
REMARK    3  A    between atoms: N_17  and  C_18
REMARK                            x       y       z     vdW  Elec       q    Type
REMARK                         _______ _______ _______ _____ _____    ______ ____
ROOT
ATOM      1  C   UNL     1       3.667   2.255  19.434  0.00  0.00    +0.000 C 
ATOM      2  C   UNL     1       3.759   2.401  20.953  0.00  0.00    +0.000 C 
ATOM      3  C   UNL     1       2.323   2.669  21.391  0.00  0.00    +0.000 C 
ATOM      4  C   UNL     1       1.972   4.175  21.417  0.00  0.00    +0.000 C 
ATOM      5  N   UNL     1       2.074   4.809  20.098  0.00  0.00    +0.000 N 
ATOM      6  C   UNL     1       1.927   6.171  19.837  0.00  0.00    +0.000 C 
ATOM      7  O   UNL     1       1.940   6.582  18.677  0.00  0.00    +0.000 OA
ATOM      8  N   UNL     1       1.717   6.979  20.933  0.00  0.00    +0.000 N 
ATOM      9  C   UNL     1       1.739   3.942  18.954  0.00  0.00    +0.000 C 
ATOM     10  C   UNL     1       2.180   2.481  19.143  0.00  0.00    +0.000 C 
ATOM     11  O   UNL     1       1.545   2.017  20.366  0.00  0.00    +0.000 OA
ATOM     12  H   UNL     1       1.994   6.628  21.832  0.00  0.00    +0.000 HD
ENDROOT
BRANCH   8  13
ATOM     13  C   UNL     1       1.306   8.336  20.885  0.00  0.00    +0.000 A 
ATOM     14  C   UNL     1       0.876   9.049  22.006  0.00  0.00    +0.000 A 
ATOM     15  C   UNL     1       0.457  10.377  21.903  0.00  0.00    +0.000 A 
ATOM     16  C   UNL     1       0.482  11.021  20.672  0.00  0.00    +0.000 A 
ATOM     17  C   UNL     1       0.940  10.335  19.549  0.00  0.00    +0.000 A 
ATOM     18  C   UNL     1       1.357   9.002  19.655  0.00  0.00    +0.000 A 
ENDBRANCH   8  13
BRANCH   1  20
ATOM     19  O   UNL     1       5.535   3.743  19.157  0.00  0.00    +0.000 OA
ATOM     20  C   UNL     1       4.614   3.127  18.630  0.00  0.00    +0.000 C 
ATOM     21  N   UNL     1       4.221   3.302  17.313  0.00  0.00    +0.000 N 
ATOM     22  H   UNL     1       3.231   3.213  17.125  0.00  0.00    +0.000 HD
BRANCH  21  23
ATOM     23  C   UNL     1       4.971   4.072  16.402  0.00  0.00    +0.000 A 
ATOM     24  C   UNL     1       4.834   5.461  16.324  0.00  0.00    +0.000 A 
ATOM     25  C   UNL     1       5.584   6.185  15.395  0.00  0.00    +0.000 A 
ATOM     26  C   UNL     1       6.444   5.520  14.525  0.00  0.00    +0.000 A 
ATOM     27  C   UNL     1       6.585   4.135  14.605  0.00  0.00    +0.000 A 
ATOM     28  C   UNL     1       5.873   3.413  15.565  0.00  0.00    +0.000 A 
ENDBRANCH  21  23
ENDBRANCH   1  20
TORSDOF 3
ENDMDL
MODEL 7
REMARK VINA RESULT:      -8.0      1.626      2.160
REMARK  Name = 
REMARK  3 active torsions:
REMARK  status: ('A' for Active; 'I' for Inactive)
REMARK    1  A    between atoms: C_2  and  C_10
REMARK    2  A    between atoms: N_3  and  C_4
REMARK    3  A    between atoms: N_17  and  C_18
REMARK                            x       y       z     vdW  Elec       q    Type
REMARK                         _______ _______ _______ _____ _____    ______ ____
ROOT
ATOM      1  C   UNL     1       3.056   1.934  19.651  0.00  0.00    +0.000 C 
ATOM      2  C   UNL     1       3.581   2.519  20.963  0.00  0.00    +0.000 C 
ATOM      3  C   UNL     1       2.355   3.161  21.603  0.00  0.00    +0.000 C 
ATOM      4  C   UNL     1       2.166   4.640  21.193  0.00  0.00    +0.000 C 
ATOM      5  N   UNL     1       1.955   4.812  19.751  0.00  0.00    +0.000 N 
ATOM      6  C   UNL     1       1.868   6.031  19.080  0.00  0.00    +0.000 C 
ATOM      7  O   UNL     1       1.596   6.058  17.880  0.00  0.00    +0.000 OA
ATOM      8  N   UNL     1       2.048   7.160  19.850  0.00  0.00    +0.000 N 
ATOM      9  C   UNL     1       1.236   3.711  19.083  0.00  0.00    +0.000 C 
ATOM     10  C   UNL     1       1.575   2.324  19.654  0.00  0.00    +0.000 C 
ATOM     11  O   UNL     1       1.266   2.378  21.073  0.00  0.00    +0.000 OA
ATOM     12  H   UNL     1       2.530   7.057  20.725  0.00  0.00    +0.000 HD
ENDROOT
BRANCH   8  13
ATOM     13  C   UNL     1       1.767   8.487  19.437  0.00  0.00    +0.000 A 
ATOM     14  C   UNL     1       2.232   9.034  18.238  0.00  0.00    +0.000 A 
ATOM     15  C   UNL     1       1.949  10.355  17.887  0.00  0.00    +0.000 A 
ATOM     16  C   UNL     1       1.174  11.147  18.724  0.00  0.00    +0.000 A 
ATOM     17  C   UNL     1       0.673  10.608  19.908  0.00  0.00    +0.000 A 
ATOM     18  C   UNL     1       0.961   9.282  20.259  0.00  0.00    +0.000 A 
ENDBRANCH   8  13
BRANCH   1  20
ATOM     19  O   UNL     1       3.897   1.593  17.425  0.00  0.00    +0.000 OA
ATOM     20  C   UNL     1       3.818   2.333  18.400  0.00  0.00    +0.000 C 
ATOM     21  N   UNL     1       4.553   3.498  18.549  0.00  0.00    +0.000 N 
ATOM     22  H   UNL     1       4.842   3.729  19.490  0.00  0.00    +0.000 HD
BRANCH  21  23
ATOM     23  C   UNL     1       5.322   4.039  17.500  0.00  0.00    +0.000 A 
ATOM     24  C   UNL     1       4.769   4.306  16.243  0.00  0.00    +0.000 A 
ATOM     25  C   UNL     1       5.570   4.826  15.225  0.00  0.00    +0.000 A 
ATOM     26  C   UNL     1       6.927   5.050  15.451  0.00  0.00    +0.000 A 
ATOM     27  C   UNL     1       7.477   4.789  16.705  0.00  0.00    +0.000 A 
ATOM     28  C   UNL     1       6.669   4.314  17.740  0.00  0.00    +0.000 A 
ENDBRANCH  21  23
ENDBRANCH   1  20
TORSDOF 3
ENDMDL
MODEL 8
REMARK VINA RESULT:      -7.9      3.821      8.626
REMARK  Name = 
REMARK  3 active torsions:
REMARK  status: ('A' for Active; 'I' for Inactive)
REMARK    1  A    between atoms: C_2  and  C_10
REMARK    2  A    between atoms: N_3  and  C_4
REMARK    3  A    between atoms: N_17  and  C_18
REMARK                            x       y       z     vdW  Elec       q    Type
REMARK                         _______ _______ _______ _____ _____    ______ ____
ROOT
ATOM      1  C   UNL     1      -0.746  12.251  20.173  0.00  0.00    +0.000 C 
ATOM      2  C   UNL     1      -1.147  11.131  21.135  0.00  0.00    +0.000 C 
ATOM      3  C   UNL     1       0.168  10.704  21.779  0.00  0.00    +0.000 C 
ATOM      4  C   UNL     1       0.882   9.575  20.999  0.00  0.00    +0.000 C 
ATOM      5  N   UNL     1       1.256   9.969  19.636  0.00  0.00    +0.000 N 
ATOM      6  C   UNL     1       1.808   9.131  18.669  0.00  0.00    +0.000 C 
ATOM      7  O   UNL     1       2.171   9.590  17.587  0.00  0.00    +0.000 OA
ATOM      8  N   UNL     1       1.961   7.809  19.029  0.00  0.00    +0.000 N 
ATOM      9  C   UNL     1       1.610  11.391  19.466  0.00  0.00    +0.000 C 
ATOM     10  C   UNL     1       0.773  12.339  20.341  0.00  0.00    +0.000 C 
ATOM     11  O   UNL     1       0.965  11.904  21.714  0.00  0.00    +0.000 OA
ATOM     12  H   UNL     1       1.402   7.465  19.789  0.00  0.00    +0.000 HD
ENDROOT
BRANCH   8  13
ATOM     13  C   UNL     1       2.710   6.845  18.308  0.00  0.00    +0.000 A 
ATOM     14  C   UNL     1       3.874   7.148  17.598  0.00  0.00    +0.000 A 
ATOM     15  C   UNL     1       4.563   6.168  16.883  0.00  0.00    +0.000 A 
ATOM     16  C   UNL     1       4.106   4.856  16.883  0.00  0.00    +0.000 A 
ATOM     17  C   UNL     1       2.965   4.528  17.613  0.00  0.00    +0.000 A 
ATOM     18  C   UNL     1       2.274   5.515  18.328  0.00  0.00    +0.000 A 
ENDBRANCH   8  13
BRANCH   1  20
ATOM     19  O   UNL     1      -0.935  12.901  17.866  0.00  0.00    +0.000 OA
ATOM     20  C   UNL     1      -1.222  12.090  18.740  0.00  0.00    +0.000 C 
ATOM     21  N   UNL     1      -2.144  11.069  18.575  0.00  0.00    +0.000 N 
ATOM     22  H   UNL     1      -2.694  10.826  19.388  0.00  0.00    +0.000 HD
BRANCH  21  23
ATOM     23  C   UNL     1      -2.699  10.755  17.319  0.00  0.00    +0.000 A 
ATOM     24  C   UNL     1      -2.071   9.870  16.437  0.00  0.00    +0.000 A 
ATOM     25  C   UNL     1      -2.645   9.599  15.194  0.00  0.00    +0.000 A 
ATOM     26  C   UNL     1      -3.828  10.235  14.820  0.00  0.00    +0.000 A 
ATOM     27  C   UNL     1      -4.457  11.112  15.701  0.00  0.00    +0.000 A 
ATOM     28  C   UNL     1      -3.910  11.349  16.964  0.00  0.00    +0.000 A 
ENDBRANCH  21  23
ENDBRANCH   1  20
TORSDOF 3
ENDMDL
MODEL 9
REMARK VINA RESULT:      -7.8      1.597      2.074
REMARK  Name = 
REMARK  3 active torsions:
REMARK  status: ('A' for Active; 'I' for Inactive)
REMARK    1  A    between atoms: C_2  and  C_10
REMARK    2  A    between atoms: N_3  and  C_4
REMARK    3  A    between atoms: N_17  and  C_18
REMARK                            x       y       z     vdW  Elec       q    Type
REMARK                         _______ _______ _______ _____ _____    ______ ____
ROOT
ATOM      1  C   UNL     1       3.156   1.901  19.614  0.00  0.00    +0.000 C 
ATOM      2  C   UNL     1       3.668   2.455  20.944  0.00  0.00    +0.000 C 
ATOM      3  C   UNL     1       2.430   3.059  21.599  0.00  0.00    +0.000 C 
ATOM      4  C   UNL     1       2.218   4.546  21.231  0.00  0.00    +0.000 C 
ATOM      5  N   UNL     1       2.007   4.756  19.794  0.00  0.00    +0.000 N 
ATOM      6  C   UNL     1       1.902   5.992  19.159  0.00  0.00    +0.000 C 
ATOM      7  O   UNL     1       1.633   6.050  17.960  0.00  0.00    +0.000 OA
ATOM      8  N   UNL     1       2.061   7.101  19.962  0.00  0.00    +0.000 N 
ATOM      9  C   UNL     1       1.308   3.664  19.093  0.00  0.00    +0.000 C 
ATOM     10  C   UNL     1       1.669   2.266  19.624  0.00  0.00    +0.000 C 
ATOM     11  O   UNL     1       1.355   2.274  21.043  0.00  0.00    +0.000 OA
ATOM     12  H   UNL     1       2.543   6.981  20.835  0.00  0.00    +0.000 HD
ENDROOT
BRANCH   8  13
ATOM     13  C   UNL     1       1.760   8.435  19.587  0.00  0.00    +0.000 A 
ATOM     14  C   UNL     1       1.034   9.316  20.393  0.00  0.00    +0.000 A 
ATOM     15  C   UNL     1       0.741  10.613  19.968  0.00  0.00    +0.000 A 
ATOM     16  C   UNL     1       1.191  11.058  18.731  0.00  0.00    +0.000 A 
ATOM     17  C   UNL     1       1.944  10.204  17.928  0.00  0.00    +0.000 A 
ATOM     18  C   UNL     1       2.235   8.902  18.356  0.00  0.00    +0.000 A 
ENDBRANCH   8  13
BRANCH   1  20
ATOM     19  O   UNL     1       4.003   1.640  17.380  0.00  0.00    +0.000 OA
ATOM     20  C   UNL     1       3.914   2.348  18.378  0.00  0.00    +0.000 C 
ATOM     21  N   UNL     1       4.634   3.517  18.564  0.00  0.00    +0.000 N 
ATOM     22  H   UNL     1       4.919   3.722  19.512  0.00  0.00    +0.000 HD
BRANCH  21  23
ATOM     23  C   UNL     1       5.397   4.100  17.534  0.00  0.00    +0.000 A 
ATOM     24  C   UNL     1       6.781   4.264  17.645  0.00  0.00    +0.000 A 
ATOM     25  C   UNL     1       7.499   4.862  16.608  0.00  0.00    +0.000 A 
ATOM     26  C   UNL     1       6.831   5.325  15.475  0.00  0.00    +0.000 A 
ATOM     27  C   UNL     1       5.452   5.158  15.361  0.00  0.00    +0.000 A 
ATOM     28  C   UNL     1       4.738   4.516  16.376  0.00  0.00    +0.000 A 
ENDBRANCH  21  23
ENDBRANCH   1  20
TORSDOF 3
ENDMDL
