MODEL 1
REMARK VINA RESULT:      -7.8      0.000      0.000
REMARK  Name = 
REMARK  5 active torsions:
REMARK  status: ('A' for Active; 'I' for Inactive)
REMARK    1  A    between atoms: C_2  and  C_5
REMARK    2  A    between atoms: N_3  and  O_4
REMARK    3  A    between atoms: N_7  and  C_8
REMARK    4  A    between atoms: C_8  and  C_9
REMARK    5  A    between atoms: C_9  and  C_10
REMARK                            x       y       z     vdW  Elec       q    Type
REMARK                         _______ _______ _______ _____ _____    ______ ____
ROOT
ATOM      1  C   UNL     1       4.144   3.997  16.243  0.00  0.00    +0.000 C 
ENDROOT
BRANCH   1   2
ATOM      2  C   UNL     1       3.472   3.318  17.395  0.00  0.00    +0.000 A 
ATOM      3  C   UNL     1       3.366   1.954  17.598  0.00  0.00    +0.000 A 
ATOM      4  N   UNL     1       2.707   1.743  18.779  0.00  0.00    +0.000 N 
ATOM      5  C   UNL     1       2.383   2.944  19.366  0.00  0.00    +0.000 A 
ATOM      6  C   UNL     1       1.734   3.207  20.579  0.00  0.00    +0.000 A 
ATOM      7  C   UNL     1       1.542   4.546  20.931  0.00  0.00    +0.000 A 
ATOM      8  C   UNL     1       1.971   5.570  20.092  0.00  0.00    +0.000 A 
ATOM      9 CL   UNL     1       1.718   7.210  20.560  0.00  0.00    +0.000 Cl
ATOM     10  C   UNL     1       2.612   5.295  18.879  0.00  0.00    +0.000 A 
ATOM     11  C   UNL     1       2.834   3.952  18.512  0.00  0.00    +0.000 A 
ATOM     12  H   UNL     1       2.498   0.837  19.177  0.00  0.00    +0.000 HD
ENDBRANCH   1   2
BRANCH   1  13
ATOM     13  C   UNL     1       5.659   3.781  16.239  0.00  0.00    +0.000 C 
BRANCH  13  16
ATOM     14  C   UNL     1       7.086   5.535  17.245  0.00  0.00    +0.000 C 
ATOM     15  O   UNL     1       7.302   6.139  16.203  0.00  0.00    +0.000 OA
ATOM     16  N   UNL     1       6.313   4.402  17.375  0.00  0.00    +0.000 N 
ATOM     17  H   UNL     1       6.193   4.023  18.310  0.00  0.00    +0.000 HD
BRANCH  14  19
ATOM     18  O   UNL     1       8.233   7.134  18.642  0.00  0.00    +0.000 OA
ATOM     19  C   UNL     1       7.711   6.030  18.563  0.00  0.00    +0.000 C 
ATOM     20  N   UNL     1       7.604   5.127  19.586  0.00  0.00    +0.000 N 
ATOM     21  H   UNL     1       7.145   4.226  19.477  0.00  0.00    +0.000 HD
BRANCH  20  22
ATOM     22  O   UNL     1       8.131   5.472  20.846  0.00  0.00    +0.000 OA
ATOM     23  H   UNL     1       7.689   4.842  21.452  0.00  0.00    +0.000 HD
ENDBRANCH  20  22
ENDBRANCH  14  19
ENDBRANCH  13  16
ENDBRANCH   1  13
TORSDOF 5
ENDMDL
MODEL 2
REMARK VINA RESULT:      -7.4      2.752      4.088
REMARK  Name = 
REMARK  5 active torsions:
REMARK  status: ('A' for Active; 'I' for Inactive)
REMARK    1  A    between atoms: C_2  and  C_5
REMARK    2  A    between atoms: N_3  and  O_4
REMARK    3  A    between atoms: N_7  and  C_8
REMARK    4  A    between atoms: C_8  and  C_9
REMARK    5  A    between atoms: C_9  and  C_10
REMARK                            x       y       z     vdW  Elec       q    Type
REMARK                         _______ _______ _______ _____ _____    ______ ____
ROOT
ATOM      1  C   UNL     1       3.792   7.042  17.439  0.00  0.00    +0.000 C 
ENDROOT
BRANCH   1   2
ATOM      2  C   UNL     1       3.113   6.520  18.666  0.00  0.00    +0.000 A 
ATOM      3  C   UNL     1       2.466   7.271  19.630  0.00  0.00    +0.000 A 
ATOM      4  N   UNL     1       1.955   6.419  20.572  0.00  0.00    +0.000 N 
ATOM      5  C   UNL     1       2.246   5.115  20.242  0.00  0.00    +0.000 A 
ATOM      6  C   UNL     1       1.905   3.924  20.895  0.00  0.00    +0.000 A 
ATOM      7  C   UNL     1       2.335   2.726  20.320  0.00  0.00    +0.000 A 
ATOM      8  C   UNL     1       3.088   2.730  19.148  0.00  0.00    +0.000 A 
ATOM      9 CL   UNL     1       3.600   1.232  18.466  0.00  0.00    +0.000 Cl
ATOM     10  C   UNL     1       3.427   3.927  18.509  0.00  0.00    +0.000 A 
ATOM     11  C   UNL     1       2.987   5.147  19.060  0.00  0.00    +0.000 A 
ATOM     12  H   UNL     1       1.426   6.698  21.387  0.00  0.00    +0.000 HD
ENDBRANCH   1   2
BRANCH   1  13
ATOM     13  C   UNL     1       5.277   6.674  17.390  0.00  0.00    +0.000 C 
BRANCH  13  16
ATOM     14  C   UNL     1       6.766   5.294  15.976  0.00  0.00    +0.000 C 
ATOM     15  O   UNL     1       7.507   4.935  16.881  0.00  0.00    +0.000 OA
ATOM     16  N   UNL     1       5.671   6.118  16.110  0.00  0.00    +0.000 N 
ATOM     17  H   UNL     1       5.124   6.306  15.274  0.00  0.00    +0.000 HD
BRANCH  14  19
ATOM     18  O   UNL     1       7.807   5.422  13.803  0.00  0.00    +0.000 OA
ATOM     19  C   UNL     1       7.032   4.821  14.534  0.00  0.00    +0.000 C 
ATOM     20  N   UNL     1       6.331   3.695  14.195  0.00  0.00    +0.000 N 
ATOM     21  H   UNL     1       5.710   3.220  14.845  0.00  0.00    +0.000 HD
BRANCH  20  22
ATOM     22  O   UNL     1       6.500   3.162  12.902  0.00  0.00    +0.000 OA
ATOM     23  H   UNL     1       7.474   3.166  12.787  0.00  0.00    +0.000 HD
ENDBRANCH  20  22
ENDBRANCH  14  19
ENDBRANCH  13  16
ENDBRANCH   1  13
TORSDOF 5
ENDMDL
MODEL 3
REMARK VINA RESULT:      -7.3      1.789      2.332
REMARK  Name = 
REMARK  5 active torsions:
REMARK  status: ('A' for Active; 'I' for Inactive)
REMARK    1  A    between atoms: C_2  and  C_5
REMARK    2  A    between atoms: N_3  and  O_4
REMARK    3  A    between atoms: N_7  and  C_8
REMARK    4  A    between atoms: C_8  and  C_9
REMARK    5  A    between atoms: C_9  and  C_10
REMARK                            x       y       z     vdW  Elec       q    Type
REMARK                         _______ _______ _______ _____ _____    ______ ____
ROOT
ATOM      1  C   UNL     1       4.471   3.934  16.404  0.00  0.00    +0.000 C 
ENDROOT
BRANCH   1   2
ATOM      2  C   UNL     1       3.909   5.025  17.262  0.00  0.00    +0.000 A 
ATOM      3  C   UNL     1       3.970   6.383  17.010  0.00  0.00    +0.000 A 
ATOM      4  N   UNL     1       3.314   7.039  18.017  0.00  0.00    +0.000 N 
ATOM      5  C   UNL     1       2.814   6.137  18.927  0.00  0.00    +0.000 A 
ATOM      6  C   UNL     1       2.063   6.354  20.089  0.00  0.00    +0.000 A 
ATOM      7  C   UNL     1       1.679   5.232  20.828  0.00  0.00    +0.000 A 
ATOM      8  C   UNL     1       2.048   3.952  20.422  0.00  0.00    +0.000 A 
ATOM      9 CL   UNL     1       1.554   2.592  21.358  0.00  0.00    +0.000 Cl
ATOM     10  C   UNL     1       2.804   3.749  19.262  0.00  0.00    +0.000 A 
ATOM     11  C   UNL     1       3.186   4.865  18.490  0.00  0.00    +0.000 A 
ATOM     12  H   UNL     1       3.198   8.041  18.082  0.00  0.00    +0.000 HD
ENDBRANCH   1   2
BRANCH   1  13
ATOM     13  C   UNL     1       5.993   4.023  16.266  0.00  0.00    +0.000 C 
BRANCH  13  16
ATOM     14  C   UNL     1       7.304   5.742  17.470  0.00  0.00    +0.000 C 
ATOM     15  O   UNL     1       7.437   6.496  16.516  0.00  0.00    +0.000 OA
ATOM     16  N   UNL     1       6.631   4.541  17.462  0.00  0.00    +0.000 N 
ATOM     17  H   UNL     1       6.572   4.032  18.340  0.00  0.00    +0.000 HD
BRANCH  14  19
ATOM     18  O   UNL     1       8.560   7.146  18.979  0.00  0.00    +0.000 OA
ATOM     19  C   UNL     1       7.929   6.108  18.830  0.00  0.00    +0.000 C 
ATOM     20  N   UNL     1       7.693   5.175  19.804  0.00  0.00    +0.000 N 
ATOM     21  H   UNL     1       7.147   4.334  19.636  0.00  0.00    +0.000 HD
BRANCH  20  22
ATOM     22  O   UNL     1       8.207   5.406  21.095  0.00  0.00    +0.000 OA
ATOM     23  H   UNL     1       7.538   4.989  21.678  0.00  0.00    +0.000 HD
ENDBRANCH  20  22
ENDBRANCH  14  19
ENDBRANCH  13  16
ENDBRANCH   1  13
TORSDOF 5
ENDMDL
MODEL 4
REMARK VINA RESULT:      -7.3      3.915      5.570
REMARK  Name = 
REMARK  5 active torsions:
REMARK  status: ('A' for Active; 'I' for Inactive)
REMARK    1  A    between atoms: C_2  and  C_5
REMARK    2  A    between atoms: N_3  and  O_4
REMARK    3  A    between atoms: N_7  and  C_8
REMARK    4  A    between atoms: C_8  and  C_9
REMARK    5  A    between atoms: C_9  and  C_10
REMARK                            x       y       z     vdW  Elec       q    Type
REMARK                         _______ _______ _______ _____ _____    ______ ____
ROOT
ATOM      1  C   UNL     1       6.600   4.315  16.113  0.00  0.00    +0.000 C 
ENDROOT
BRANCH   1   2
ATOM      2  C   UNL     1       5.516   5.183  16.671  0.00  0.00    +0.000 A 
ATOM      3  C   UNL     1       5.439   6.560  16.586  0.00  0.00    +0.000 A 
ATOM      4  N   UNL     1       4.283   6.968  17.195  0.00  0.00    +0.000 N 
ATOM      5  C   UNL     1       3.589   5.881  17.675  0.00  0.00    +0.000 A 
ATOM      6  C   UNL     1       2.357   5.822  18.339  0.00  0.00    +0.000 A 
ATOM      7  C   UNL     1       1.883   4.561  18.709  0.00  0.00    +0.000 A 
ATOM      8  C   UNL     1       2.625   3.415  18.436  0.00  0.00    +0.000 A 
ATOM      9 CL   UNL     1       2.007   1.875  18.906  0.00  0.00    +0.000 Cl
ATOM     10  C   UNL     1       3.856   3.488  17.778  0.00  0.00    +0.000 A 
ATOM     11  C   UNL     1       4.346   4.747  17.377  0.00  0.00    +0.000 A 
ATOM     12  H   UNL     1       3.971   7.927  17.273  0.00  0.00    +0.000 HD
ENDBRANCH   1   2
BRANCH   1  13
ATOM     13  C   UNL     1       6.867   4.592  14.632  0.00  0.00    +0.000 C 
BRANCH  13  16
ATOM     14  C   UNL     1       6.538   3.553  12.410  0.00  0.00    +0.000 C 
ATOM     15  O   UNL     1       7.262   4.327  11.797  0.00  0.00    +0.000 OA
ATOM     16  N   UNL     1       6.285   3.587  13.763  0.00  0.00    +0.000 N 
ATOM     17  H   UNL     1       5.688   2.858  14.144  0.00  0.00    +0.000 HD
BRANCH  14  19
ATOM     18  O   UNL     1       4.644   2.539  11.312  0.00  0.00    +0.000 OA
ATOM     19  C   UNL     1       5.812   2.422  11.657  0.00  0.00    +0.000 C 
ATOM     20  N   UNL     1       6.603   1.330  11.426  0.00  0.00    +0.000 N 
ATOM     21  H   UNL     1       7.576   1.286  11.717  0.00  0.00    +0.000 HD
BRANCH  20  22
ATOM     22  O   UNL     1       6.050   0.234  10.735  0.00  0.00    +0.000 OA
ATOM     23  H   UNL     1       5.089   0.426  10.746  0.00  0.00    +0.000 HD
ENDBRANCH  20  22
ENDBRANCH  14  19
ENDBRANCH  13  16
ENDBRANCH   1  13
TORSDOF 5
ENDMDL
MODEL 5
REMARK VINA RESULT:      -7.3      4.301      6.898
REMARK  Name = 
REMARK  5 active torsions:
REMARK  status: ('A' for Active; 'I' for Inactive)
REMARK    1  A    between atoms: C_2  and  C_5
REMARK    2  A    between atoms: N_3  and  O_4
REMARK    3  A    between atoms: N_7  and  C_8
REMARK    4  A    between atoms: C_8  and  C_9
REMARK    5  A    between atoms: C_9  and  C_10
REMARK                            x       y       z     vdW  Elec       q    Type
REMARK                         _______ _______ _______ _____ _____    ______ ____
ROOT
ATOM      1  C   UNL     1       4.707   4.331  16.788  0.00  0.00    +0.000 C 
ENDROOT
BRANCH   1   2
ATOM      2  C   UNL     1       5.820   4.751  15.880  0.00  0.00    +0.000 A 
ATOM      3  C   UNL     1       6.890   5.561  16.211  0.00  0.00    +0.000 A 
ATOM      4  N   UNL     1       7.699   5.681  15.112  0.00  0.00    +0.000 N 
ATOM      5  C   UNL     1       7.185   4.956  14.062  0.00  0.00    +0.000 A 
ATOM      6  C   UNL     1       7.684   4.771  12.767  0.00  0.00    +0.000 A 
ATOM      7  C   UNL     1       6.944   3.964  11.898  0.00  0.00    +0.000 A 
ATOM      8  C   UNL     1       5.749   3.383  12.313  0.00  0.00    +0.000 A 
ATOM      9 CL   UNL     1       4.864   2.392  11.214  0.00  0.00    +0.000 Cl
ATOM     10  C   UNL     1       5.257   3.581  13.607  0.00  0.00    +0.000 A 
ATOM     11  C   UNL     1       5.996   4.375  14.507  0.00  0.00    +0.000 A 
ATOM     12  H   UNL     1       8.558   6.212  15.075  0.00  0.00    +0.000 HD
ENDBRANCH   1   2
BRANCH   1  13
ATOM     13  C   UNL     1       5.125   4.320  18.260  0.00  0.00    +0.000 C 
BRANCH  13  16
ATOM     14  C   UNL     1       4.067   2.931  20.013  0.00  0.00    +0.000 C 
ATOM     15  O   UNL     1       5.000   2.150  20.140  0.00  0.00    +0.000 OA
ATOM     16  N   UNL     1       4.025   4.003  19.150  0.00  0.00    +0.000 N 
ATOM     17  H   UNL     1       3.195   4.590  19.174  0.00  0.00    +0.000 HD
BRANCH  14  19
ATOM     18  O   UNL     1       2.856   2.404  22.033  0.00  0.00    +0.000 OA
ATOM     19  C   UNL     1       2.793   2.749  20.861  0.00  0.00    +0.000 C 
ATOM     20  N   UNL     1       1.641   3.019  20.172  0.00  0.00    +0.000 N 
ATOM     21  H   UNL     1       1.641   3.321  19.202  0.00  0.00    +0.000 HD
BRANCH  20  22
ATOM     22  O   UNL     1       0.411   2.897  20.847  0.00  0.00    +0.000 OA
ATOM     23  H   UNL     1      -0.189   2.550  20.154  0.00  0.00    +0.000 HD
ENDBRANCH  20  22
ENDBRANCH  14  19
ENDBRANCH  13  16
ENDBRANCH   1  13
TORSDOF 5
ENDMDL
MODEL 6
REMARK VINA RESULT:      -7.2      1.130      1.480
REMARK  Name = 
REMARK  5 active torsions:
REMARK  status: ('A' for Active; 'I' for Inactive)
REMARK    1  A    between atoms: C_2  and  C_5
REMARK    2  A    between atoms: N_3  and  O_4
REMARK    3  A    between atoms: N_7  and  C_8
REMARK    4  A    between atoms: C_8  and  C_9
REMARK    5  A    between atoms: C_9  and  C_10
REMARK                            x       y       z     vdW  Elec       q    Type
REMARK                         _______ _______ _______ _____ _____    ______ ____
ROOT
ATOM      1  C   UNL     1       4.306   4.078  16.457  0.00  0.00    +0.000 C 
ENDROOT
BRANCH   1   2
ATOM      2  C   UNL     1       3.409   3.374  17.428  0.00  0.00    +0.000 A 
ATOM      3  C   UNL     1       3.133   2.019  17.458  0.00  0.00    +0.000 A 
ATOM      4  N   UNL     1       2.294   1.772  18.512  0.00  0.00    +0.000 N 
ATOM      5  C   UNL     1       2.018   2.941  19.184  0.00  0.00    +0.000 A 
ATOM      6  C   UNL     1       1.235   3.158  20.324  0.00  0.00    +0.000 A 
ATOM      7  C   UNL     1       1.135   4.469  20.799  0.00  0.00    +0.000 A 
ATOM      8  C   UNL     1       1.784   5.513  20.145  0.00  0.00    +0.000 A 
ATOM      9 CL   UNL     1       1.641   7.117  20.760  0.00  0.00    +0.000 Cl
ATOM     10  C   UNL     1       2.558   5.283  19.003  0.00  0.00    +0.000 A 
ATOM     11  C   UNL     1       2.689   3.966  18.517  0.00  0.00    +0.000 A 
ATOM     12  H   UNL     1       1.937   0.863  18.773  0.00  0.00    +0.000 HD
ENDBRANCH   1   2
BRANCH   1  13
ATOM     13  C   UNL     1       5.789   3.854  16.763  0.00  0.00    +0.000 C 
BRANCH  13  16
ATOM     14  C   UNL     1       7.158   5.912  16.881  0.00  0.00    +0.000 C 
ATOM     15  O   UNL     1       7.431   5.955  15.690  0.00  0.00    +0.000 OA
ATOM     16  N   UNL     1       6.379   4.957  17.497  0.00  0.00    +0.000 N 
ATOM     17  H   UNL     1       6.207   5.065  18.493  0.00  0.00    +0.000 HD
BRANCH  14  19
ATOM     18  O   UNL     1       8.136   6.698  18.943  0.00  0.00    +0.000 OA
ATOM     19  C   UNL     1       7.709   6.990  17.834  0.00  0.00    +0.000 C 
ATOM     20  N   UNL     1       7.670   8.252  17.305  0.00  0.00    +0.000 N 
ATOM     21  H   UNL     1       7.322   8.443  16.370  0.00  0.00    +0.000 HD
BRANCH  20  22
ATOM     22  O   UNL     1       8.158   9.321  18.081  0.00  0.00    +0.000 OA
ATOM     23  H   UNL     1       9.007   8.975  18.428  0.00  0.00    +0.000 HD
ENDBRANCH  20  22
ENDBRANCH  14  19
ENDBRANCH  13  16
ENDBRANCH   1  13
TORSDOF 5
ENDMDL
MODEL 7
REMARK VINA RESULT:      -7.2      1.271      1.560
REMARK  Name = 
REMARK  5 active torsions:
REMARK  status: ('A' for Active; 'I' for Inactive)
REMARK    1  A    between atoms: C_2  and  C_5
REMARK    2  A    between atoms: N_3  and  O_4
REMARK    3  A    between atoms: N_7  and  C_8
REMARK    4  A    between atoms: C_8  and  C_9
REMARK    5  A    between atoms: C_9  and  C_10
REMARK                            x       y       z     vdW  Elec       q    Type
REMARK                         _______ _______ _______ _____ _____    ______ ____
ROOT
ATOM      1  C   UNL     1       4.386   3.318  16.778  0.00  0.00    +0.000 C 
ENDROOT
BRANCH   1   2
ATOM      2  C   UNL     1       3.792   3.628  18.116  0.00  0.00    +0.000 A 
ATOM      3  C   UNL     1       3.706   2.769  19.196  0.00  0.00    +0.000 A 
ATOM      4  N   UNL     1       3.124   3.441  20.238  0.00  0.00    +0.000 N 
ATOM      5  C   UNL     1       2.830   4.733  19.866  0.00  0.00    +0.000 A 
ATOM      6  C   UNL     1       2.257   5.773  20.608  0.00  0.00    +0.000 A 
ATOM      7  C   UNL     1       2.080   7.002  19.966  0.00  0.00    +0.000 A 
ATOM      8  C   UNL     1       2.449   7.167  18.634  0.00  0.00    +0.000 A 
ATOM      9 CL   UNL     1       2.217   8.698  17.875  0.00  0.00    +0.000 Cl
ATOM     10  C   UNL     1       3.014   6.118  17.902  0.00  0.00    +0.000 A 
ATOM     11  C   UNL     1       3.221   4.875  18.534  0.00  0.00    +0.000 A 
ATOM     12  H   UNL     1       2.945   3.054  21.155  0.00  0.00    +0.000 HD
ENDBRANCH   1   2
BRANCH   1  13
ATOM     13  C   UNL     1       5.496   4.297  16.390  0.00  0.00    +0.000 C 
BRANCH  13  16
ATOM     14  C   UNL     1       7.170   5.790  17.436  0.00  0.00    +0.000 C 
ATOM     15  O   UNL     1       7.467   6.390  16.412  0.00  0.00    +0.000 OA
ATOM     16  N   UNL     1       6.241   4.779  17.538  0.00  0.00    +0.000 N 
ATOM     17  H   UNL     1       6.071   4.391  18.462  0.00  0.00    +0.000 HD
BRANCH  14  19
ATOM     18  O   UNL     1       8.477   7.198  18.897  0.00  0.00    +0.000 OA
ATOM     19  C   UNL     1       7.868   6.145  18.763  0.00  0.00    +0.000 C 
ATOM     20  N   UNL     1       7.720   5.184  19.727  0.00  0.00    +0.000 N 
ATOM     21  H   UNL     1       7.189   4.331  19.573  0.00  0.00    +0.000 HD
BRANCH  20  22
ATOM     22  O   UNL     1       8.307   5.402  20.988  0.00  0.00    +0.000 OA
ATOM     23  H   UNL     1       8.882   6.181  20.834  0.00  0.00    +0.000 HD
ENDBRANCH  20  22
ENDBRANCH  14  19
ENDBRANCH  13  16
ENDBRANCH   1  13
TORSDOF 5
ENDMDL
MODEL 8
REMARK VINA RESULT:      -7.2      1.627      2.206
REMARK  Name = 
REMARK  5 active torsions:
REMARK  status: ('A' for Active; 'I' for Inactive)
REMARK    1  A    between atoms: C_2  and  C_5
REMARK    2  A    between atoms: N_3  and  O_4
REMARK    3  A    between atoms: N_7  and  C_8
REMARK    4  A    between atoms: C_8  and  C_9
REMARK    5  A    between atoms: C_9  and  C_10
REMARK                            x       y       z     vdW  Elec       q    Type
REMARK                         _______ _______ _______ _____ _____    ______ ____
ROOT
ATOM      1  C   UNL     1       2.902   3.009  17.456  0.00  0.00    +0.000 C 
ENDROOT
BRANCH   1   2
ATOM      2  C   UNL     1       2.487   3.675  18.732  0.00  0.00    +0.000 A 
ATOM      3  C   UNL     1       2.212   3.050  19.933  0.00  0.00    +0.000 A 
ATOM      4  N   UNL     1       1.897   4.009  20.858  0.00  0.00    +0.000 N 
ATOM      5  C   UNL     1       1.968   5.260  20.290  0.00  0.00    +0.000 A 
ATOM      6  C   UNL     1       1.754   6.520  20.860  0.00  0.00    +0.000 A 
ATOM      7  C   UNL     1       1.904   7.637  20.034  0.00  0.00    +0.000 A 
ATOM      8  C   UNL     1       2.240   7.488  18.691  0.00  0.00    +0.000 A 
ATOM      9 CL   UNL     1       2.419   8.888  17.702  0.00  0.00    +0.000 Cl
ATOM     10  C   UNL     1       2.445   6.222  18.131  0.00  0.00    +0.000 A 
ATOM     11  C   UNL     1       2.318   5.082  18.950  0.00  0.00    +0.000 A 
ATOM     12  H   UNL     1       1.661   3.832  21.825  0.00  0.00    +0.000 HD
ENDBRANCH   1   2
BRANCH   1  13
ATOM     13  C   UNL     1       4.024   3.765  16.740  0.00  0.00    +0.000 C 
BRANCH  13  16
ATOM     14  C   UNL     1       6.164   4.844  17.357  0.00  0.00    +0.000 C 
ATOM     15  O   UNL     1       6.078   5.767  16.559  0.00  0.00    +0.000 OA
ATOM     16  N   UNL     1       5.238   3.838  17.530  0.00  0.00    +0.000 N 
ATOM     17  H   UNL     1       5.424   3.152  18.256  0.00  0.00    +0.000 HD
BRANCH  14  19
ATOM     18  O   UNL     1       8.416   4.172  17.906  0.00  0.00    +0.000 OA
ATOM     19  C   UNL     1       7.395   4.736  18.277  0.00  0.00    +0.000 C 
ATOM     20  N   UNL     1       7.215   5.330  19.496  0.00  0.00    +0.000 N 
ATOM     21  H   UNL     1       6.353   5.803  19.753  0.00  0.00    +0.000 HD
BRANCH  20  22
ATOM     22  O   UNL     1       8.278   5.304  20.420  0.00  0.00    +0.000 OA
ATOM     23  H   UNL     1       7.986   4.636  21.076  0.00  0.00    +0.000 HD
ENDBRANCH  20  22
ENDBRANCH  14  19
ENDBRANCH  13  16
ENDBRANCH   1  13
TORSDOF 5
ENDMDL
MODEL 9
REMARK VINA RESULT:      -7.1      2.107      3.029
REMARK  Name = 
REMARK  5 active torsions:
REMARK  status: ('A' for Active; 'I' for Inactive)
REMARK    1  A    between atoms: C_2  and  C_5
REMARK    2  A    between atoms: N_3  and  O_4
REMARK    3  A    between atoms: N_7  and  C_8
REMARK    4  A    between atoms: C_8  and  C_9
REMARK    5  A    between atoms: C_9  and  C_10
REMARK                            x       y       z     vdW  Elec       q    Type
REMARK                         _______ _______ _______ _____ _____    ______ ____
ROOT
ATOM      1  C   UNL     1       2.627   2.707  17.728  0.00  0.00    +0.000 C 
ENDROOT
BRANCH   1   2
ATOM      2  C   UNL     1       2.187   3.482  18.932  0.00  0.00    +0.000 A 
ATOM      3  C   UNL     1       1.746   2.956  20.132  0.00  0.00    +0.000 A 
ATOM      4  N   UNL     1       1.468   3.993  20.982  0.00  0.00    +0.000 N 
ATOM      5  C   UNL     1       1.725   5.196  20.366  0.00  0.00    +0.000 A 
ATOM      6  C   UNL     1       1.610   6.502  20.859  0.00  0.00    +0.000 A 
ATOM      7  C   UNL     1       1.952   7.549  20.000  0.00  0.00    +0.000 A 
ATOM      8  C   UNL     1       2.378   7.291  18.699  0.00  0.00    +0.000 A 
ATOM      9 CL   UNL     1       2.794   8.608  17.668  0.00  0.00    +0.000 Cl
ATOM     10  C   UNL     1       2.483   5.982  18.217  0.00  0.00    +0.000 A 
ATOM     11  C   UNL     1       2.161   4.909  19.072  0.00  0.00    +0.000 A 
ATOM     12  H   UNL     1       1.134   3.896  21.931  0.00  0.00    +0.000 HD
ENDBRANCH   1   2
BRANCH   1  13
ATOM     13  C   UNL     1       4.142   2.496  17.690  0.00  0.00    +0.000 C 
BRANCH  13  16
ATOM     14  C   UNL     1       5.788   4.321  17.398  0.00  0.00    +0.000 C 
ATOM     15  O   UNL     1       6.185   4.323  18.556  0.00  0.00    +0.000 OA
ATOM     16  N   UNL     1       4.822   3.488  16.879  0.00  0.00    +0.000 N 
ATOM     17  H   UNL     1       4.614   3.575  15.888  0.00  0.00    +0.000 HD
BRANCH  14  19
ATOM     18  O   UNL     1       6.027   6.490  16.368  0.00  0.00    +0.000 OA
ATOM     19  C   UNL     1       6.377   5.318  16.382  0.00  0.00    +0.000 C 
ATOM     20  N   UNL     1       7.304   4.756  15.546  0.00  0.00    +0.000 N 
ATOM     21  H   UNL     1       7.577   3.779  15.608  0.00  0.00    +0.000 HD
BRANCH  20  22
ATOM     22  O   UNL     1       7.921   5.574  14.580  0.00  0.00    +0.000 OA
ATOM     23  H   UNL     1       7.622   6.475  14.828  0.00  0.00    +0.000 HD
ENDBRANCH  20  22
ENDBRANCH  14  19
ENDBRANCH  13  16
ENDBRANCH   1  13
TORSDOF 5
ENDMDL
