MODEL 1
REMARK VINA RESULT:      -7.9      0.000      0.000
REMARK  Name = 
REMARK  8 active torsions:
REMARK  status: ('A' for Active; 'I' for Inactive)
REMARK    1  A    between atoms: C_1  and  O_2
REMARK    2  A    between atoms: O_2  and  C_3
REMARK    3  A    between atoms: C_6  and  N_7
REMARK    4  A    between atoms: N_10  and  C_11
REMARK    5  A    between atoms: C_20  and  O_21
REMARK    6  A    between atoms: O_21  and  C_22
REMARK    7  A    between atoms: C_22  and  C_23
REMARK    8  A    between atoms: C_23  and  N_24
REMARK                            x       y       z     vdW  Elec       q    Type
REMARK                         _______ _______ _______ _____ _____    ______ ____
ROOT
ATOM      1  C   UNL     1       3.333   3.536  19.735  0.00  0.00    +0.000 A 
ATOM      2  C   UNL     1       2.012   3.926  20.036  0.00  0.00    +0.000 A 
ATOM      3  C   UNL     1       1.619   5.261  20.046  0.00  0.00    +0.000 A 
ATOM      4  C   UNL     1       2.514   6.231  19.626  0.00  0.00    +0.000 A 
ATOM      5  C   UNL     1       3.817   5.848  19.305  0.00  0.00    +0.000 A 
ATOM      6  C   UNL     1       4.283   4.526  19.457  0.00  0.00    +0.000 A 
ENDROOT
BRANCH   4   7
ATOM      7  N   UNL     1       2.132   7.570  19.471  0.00  0.00    +0.000 N 
ATOM      8  C   UNL     1       2.256   8.293  18.228  0.00  0.00    +0.000 C 
ATOM      9  C   UNL     1       1.193   9.362  18.360  0.00  0.00    +0.000 C 
ATOM     10  N   UNL     1       1.132   9.565  19.789  0.00  0.00    +0.000 N 
ATOM     11  C   UNL     1       1.568   8.401  20.457  0.00  0.00    +0.000 C 
ATOM     12  O   UNL     1       1.476   8.160  21.650  0.00  0.00    +0.000 OA
BRANCH  10  13
ATOM     13  C   UNL     1       0.554  10.702  20.393  0.00  0.00    +0.000 A 
ATOM     14  C   UNL     1      -0.727  10.627  20.945  0.00  0.00    +0.000 A 
ATOM     15  C   UNL     1      -1.291  11.744  21.575  0.00  0.00    +0.000 A 
ATOM     16  C   UNL     1      -0.586  12.942  21.630  0.00  0.00    +0.000 A 
ATOM     17  C   UNL     1       0.688  13.024  21.071  0.00  0.00    +0.000 A 
ATOM     18  C   UNL     1       1.262  11.900  20.474  0.00  0.00    +0.000 A 
ENDBRANCH  10  13
ENDBRANCH   4   7
BRANCH   1  20
ATOM     19  C   UNL     1       3.600   1.449  18.552  0.00  0.00    +0.000 C 
ATOM     20  O   UNL     1       3.440   2.178  19.752  0.00  0.00    +0.000 OA
ENDBRANCH   1  20
BRANCH   6  21
ATOM     21  O   UNL     1       5.644   4.256  19.362  0.00  0.00    +0.000 OA
BRANCH  21  22
ATOM     22  C   UNL     1       6.432   5.471  19.287  0.00  0.00    +0.000 C 
BRANCH  22  23
ATOM     23  C   UNL     1       7.644   5.449  18.343  0.00  0.00    +0.000 C 
BRANCH  23  24
ATOM     24  N   UNL     1       7.231   5.559  16.909  0.00  0.00    +0.000 NA
ATOM     25  C   UNL     1       7.140   4.239  16.250  0.00  0.00    +0.000 C 
ATOM     26  C   UNL     1       6.619   4.291  14.811  0.00  0.00    +0.000 C 
ATOM     27  C   UNL     1       5.309   5.052  14.716  0.00  0.00    +0.000 C 
ATOM     28  C   UNL     1       5.474   6.423  15.357  0.00  0.00    +0.000 C 
ATOM     29  C   UNL     1       5.962   6.296  16.804  0.00  0.00    +0.000 C 
ENDBRANCH  23  24
ENDBRANCH  22  23
ENDBRANCH  21  22
ENDBRANCH   6  21
TORSDOF 7
ENDMDL
MODEL 2
REMARK VINA RESULT:      -7.9      2.049      4.408
REMARK  Name = 
REMARK  8 active torsions:
REMARK  status: ('A' for Active; 'I' for Inactive)
REMARK    1  A    between atoms: C_1  and  O_2
REMARK    2  A    between atoms: O_2  and  C_3
REMARK    3  A    between atoms: C_6  and  N_7
REMARK    4  A    between atoms: N_10  and  C_11
REMARK    5  A    between atoms: C_20  and  O_21
REMARK    6  A    between atoms: O_21  and  C_22
REMARK    7  A    between atoms: C_22  and  C_23
REMARK    8  A    between atoms: C_23  and  N_24
REMARK                            x       y       z     vdW  Elec       q    Type
REMARK                         _______ _______ _______ _____ _____    ______ ____
ROOT
ATOM      1  C   UNL     1       5.759   5.380  17.011  0.00  0.00    +0.000 A 
ATOM      2  C   UNL     1       5.372   6.640  16.508  0.00  0.00    +0.000 A 
ATOM      3  C   UNL     1       4.270   7.328  17.006  0.00  0.00    +0.000 A 
ATOM      4  C   UNL     1       3.603   6.825  18.112  0.00  0.00    +0.000 A 
ATOM      5  C   UNL     1       3.996   5.590  18.627  0.00  0.00    +0.000 A 
ATOM      6  C   UNL     1       4.996   4.796  18.030  0.00  0.00    +0.000 A 
ENDROOT
BRANCH   4   7
ATOM      7  N   UNL     1       2.584   7.544  18.748  0.00  0.00    +0.000 N 
ATOM      8  C   UNL     1       2.025   7.170  20.025  0.00  0.00    +0.000 C 
ATOM      9  C   UNL     1       1.506   8.488  20.558  0.00  0.00    +0.000 C 
ATOM     10  N   UNL     1       1.186   9.209  19.348  0.00  0.00    +0.000 N 
ATOM     11  C   UNL     1       1.966   8.720  18.279  0.00  0.00    +0.000 C 
ATOM     12  O   UNL     1       2.085   9.213  17.169  0.00  0.00    +0.000 OA
BRANCH  10  13
ATOM     13  C   UNL     1       0.343  10.341  19.311  0.00  0.00    +0.000 A 
ATOM     14  C   UNL     1       0.782  11.557  19.838  0.00  0.00    +0.000 A 
ATOM     15  C   UNL     1      -0.037  12.691  19.774  0.00  0.00    +0.000 A 
ATOM     16  C   UNL     1      -1.305  12.603  19.208  0.00  0.00    +0.000 A 
ATOM     17  C   UNL     1      -1.750  11.389  18.691  0.00  0.00    +0.000 A 
ATOM     18  C   UNL     1      -0.919  10.267  18.725  0.00  0.00    +0.000 A 
ENDBRANCH  10  13
ENDBRANCH   4   7
BRANCH   1  20
ATOM     19  C   UNL     1       6.940   4.838  14.977  0.00  0.00    +0.000 C 
ATOM     20  O   UNL     1       6.889   4.949  16.385  0.00  0.00    +0.000 OA
ENDBRANCH   1  20
BRANCH   6  21
ATOM     21  O   UNL     1       5.169   3.477  18.435  0.00  0.00    +0.000 OA
BRANCH  21  22
ATOM     22  C   UNL     1       4.313   2.569  17.697  0.00  0.00    +0.000 C 
BRANCH  22  23
ATOM     23  C   UNL     1       3.732   1.381  18.480  0.00  0.00    +0.000 C 
BRANCH  23  24
ATOM     24  N   UNL     1       2.538   1.781  19.288  0.00  0.00    +0.000 NA
ATOM     25  C   UNL     1       2.913   2.523  20.511  0.00  0.00    +0.000 C 
ATOM     26  C   UNL     1       1.721   3.046  21.318  0.00  0.00    +0.000 C 
ATOM     27  C   UNL     1       0.766   3.847  20.451  0.00  0.00    +0.000 C 
ATOM     28  C   UNL     1       0.367   3.018  19.238  0.00  0.00    +0.000 C 
ATOM     29  C   UNL     1       1.603   2.559  18.458  0.00  0.00    +0.000 C 
ENDBRANCH  23  24
ENDBRANCH  22  23
ENDBRANCH  21  22
ENDBRANCH   6  21
TORSDOF 7
ENDMDL
MODEL 3
REMARK VINA RESULT:      -7.8      2.141      4.361
REMARK  Name = 
REMARK  8 active torsions:
REMARK  status: ('A' for Active; 'I' for Inactive)
REMARK    1  A    between atoms: C_1  and  O_2
REMARK    2  A    between atoms: O_2  and  C_3
REMARK    3  A    between atoms: C_6  and  N_7
REMARK    4  A    between atoms: N_10  and  C_11
REMARK    5  A    between atoms: C_20  and  O_21
REMARK    6  A    between atoms: O_21  and  C_22
REMARK    7  A    between atoms: C_22  and  C_23
REMARK    8  A    between atoms: C_23  and  N_24
REMARK                            x       y       z     vdW  Elec       q    Type
REMARK                         _______ _______ _______ _____ _____    ______ ____
ROOT
ATOM      1  C   UNL     1       5.535   5.480  16.868  0.00  0.00    +0.000 A 
ATOM      2  C   UNL     1       5.727   6.819  17.264  0.00  0.00    +0.000 A 
ATOM      3  C   UNL     1       4.699   7.582  17.812  0.00  0.00    +0.000 A 
ATOM      4  C   UNL     1       3.485   6.977  18.093  0.00  0.00    +0.000 A 
ATOM      5  C   UNL     1       3.298   5.646  17.723  0.00  0.00    +0.000 A 
ATOM      6  C   UNL     1       4.265   4.908  17.010  0.00  0.00    +0.000 A 
ENDROOT
BRANCH   4   7
ATOM      7  N   UNL     1       2.467   7.651  18.779  0.00  0.00    +0.000 N 
ATOM      8  C   UNL     1       1.945   7.218  20.053  0.00  0.00    +0.000 C 
ATOM      9  C   UNL     1       1.412   8.505  20.647  0.00  0.00    +0.000 C 
ATOM     10  N   UNL     1       1.050   9.263  19.471  0.00  0.00    +0.000 N 
ATOM     11  C   UNL     1       1.815   8.830  18.368  0.00  0.00    +0.000 C 
ATOM     12  O   UNL     1       1.898   9.367  17.275  0.00  0.00    +0.000 OA
BRANCH  10  13
ATOM     13  C   UNL     1       0.185  10.378  19.496  0.00  0.00    +0.000 A 
ATOM     14  C   UNL     1      -1.041  10.327  18.828  0.00  0.00    +0.000 A 
ATOM     15  C   UNL     1      -1.918  11.418  18.878  0.00  0.00    +0.000 A 
ATOM     16  C   UNL     1      -1.559  12.569  19.572  0.00  0.00    +0.000 A 
ATOM     17  C   UNL     1      -0.332  12.628  20.229  0.00  0.00    +0.000 A 
ATOM     18  C   UNL     1       0.527  11.526  20.208  0.00  0.00    +0.000 A 
ENDBRANCH  10  13
ENDBRANCH   4   7
BRANCH   1  20
ATOM     19  C   UNL     1       7.698   4.500  17.306  0.00  0.00    +0.000 C 
ATOM     20  O   UNL     1       6.703   4.952  16.408  0.00  0.00    +0.000 OA
ENDBRANCH   1  20
BRANCH   6  21
ATOM     21  O   UNL     1       3.928   3.679  16.454  0.00  0.00    +0.000 OA
BRANCH  21  22
ATOM     22  C   UNL     1       3.991   2.608  17.431  0.00  0.00    +0.000 C 
BRANCH  22  23
ATOM     23  C   UNL     1       2.680   1.859  17.716  0.00  0.00    +0.000 C 
BRANCH  23  24
ATOM     24  N   UNL     1       2.185   2.114  19.104  0.00  0.00    +0.000 NA
ATOM     25  C   UNL     1       3.291   2.355  20.056  0.00  0.00    +0.000 C 
ATOM     26  C   UNL     1       2.832   2.726  21.470  0.00  0.00    +0.000 C 
ATOM     27  C   UNL     1       1.848   3.883  21.454  0.00  0.00    +0.000 C 
ATOM     28  C   UNL     1       0.703   3.560  20.504  0.00  0.00    +0.000 C 
ATOM     29  C   UNL     1       1.230   3.234  19.102  0.00  0.00    +0.000 C 
ENDBRANCH  23  24
ENDBRANCH  22  23
ENDBRANCH  21  22
ENDBRANCH   6  21
TORSDOF 7
ENDMDL
MODEL 4
REMARK VINA RESULT:      -7.5      1.076      1.404
REMARK  Name = 
REMARK  8 active torsions:
REMARK  status: ('A' for Active; 'I' for Inactive)
REMARK    1  A    between atoms: C_1  and  O_2
REMARK    2  A    between atoms: O_2  and  C_3
REMARK    3  A    between atoms: C_6  and  N_7
REMARK    4  A    between atoms: N_10  and  C_11
REMARK    5  A    between atoms: C_20  and  O_21
REMARK    6  A    between atoms: O_21  and  C_22
REMARK    7  A    between atoms: C_22  and  C_23
REMARK    8  A    between atoms: C_23  and  N_24
REMARK                            x       y       z     vdW  Elec       q    Type
REMARK                         _______ _______ _______ _____ _____    ______ ____
ROOT
ATOM      1  C   UNL     1       4.000   3.769  19.544  0.00  0.00    +0.000 A 
ATOM      2  C   UNL     1       2.672   4.034  19.936  0.00  0.00    +0.000 A 
ATOM      3  C   UNL     1       2.135   5.318  19.908  0.00  0.00    +0.000 A 
ATOM      4  C   UNL     1       2.882   6.350  19.363  0.00  0.00    +0.000 A 
ATOM      5  C   UNL     1       4.189   6.088  18.953  0.00  0.00    +0.000 A 
ATOM      6  C   UNL     1       4.809   4.835  19.134  0.00  0.00    +0.000 A 
ENDROOT
BRANCH   4   7
ATOM      7  N   UNL     1       2.342   7.628  19.171  0.00  0.00    +0.000 N 
ATOM      8  C   UNL     1       2.523   8.393  17.961  0.00  0.00    +0.000 C 
ATOM      9  C   UNL     1       1.315   9.306  17.963  0.00  0.00    +0.000 C 
ATOM     10  N   UNL     1       1.045   9.461  19.374  0.00  0.00    +0.000 N 
ATOM     11  C   UNL     1       1.548   8.351  20.083  0.00  0.00    +0.000 C 
ATOM     12  O   UNL     1       1.339   8.069  21.252  0.00  0.00    +0.000 OA
BRANCH  10  13
ATOM     13  C   UNL     1       0.245  10.495  19.907  0.00  0.00    +0.000 A 
ATOM     14  C   UNL     1      -0.983  10.803  19.319  0.00  0.00    +0.000 A 
ATOM     15  C   UNL     1      -1.796  11.806  19.865  0.00  0.00    +0.000 A 
ATOM     16  C   UNL     1      -1.369  12.516  20.982  0.00  0.00    +0.000 A 
ATOM     17  C   UNL     1      -0.140  12.218  21.566  0.00  0.00    +0.000 A 
ATOM     18  C   UNL     1       0.654  11.195  21.041  0.00  0.00    +0.000 A 
ENDBRANCH  10  13
ENDBRANCH   4   7
BRANCH   1  20
ATOM     19  C   UNL     1       3.696   1.530  18.692  0.00  0.00    +0.000 C 
ATOM     20  O   UNL     1       4.258   2.434  19.623  0.00  0.00    +0.000 OA
ENDBRANCH   1  20
BRANCH   6  21
ATOM     21  O   UNL     1       6.180   4.706  18.938  0.00  0.00    +0.000 OA
BRANCH  21  22
ATOM     22  C   UNL     1       6.506   4.465  17.546  0.00  0.00    +0.000 C 
BRANCH  22  23
ATOM     23  C   UNL     1       6.781   5.704  16.679  0.00  0.00    +0.000 C 
BRANCH  23  24
ATOM     24  N   UNL     1       6.456   5.457  15.240  0.00  0.00    +0.000 NA
ATOM     25  C   UNL     1       7.668   5.234  14.422  0.00  0.00    +0.000 C 
ATOM     26  C   UNL     1       7.382   4.872  12.962  0.00  0.00    +0.000 C 
ATOM     27  C   UNL     1       6.414   3.707  12.852  0.00  0.00    +0.000 C 
ATOM     28  C   UNL     1       5.163   4.012  13.664  0.00  0.00    +0.000 C 
ATOM     29  C   UNL     1       5.517   4.329  15.120  0.00  0.00    +0.000 C 
ENDBRANCH  23  24
ENDBRANCH  22  23
ENDBRANCH  21  22
ENDBRANCH   6  21
TORSDOF 7
ENDMDL
MODEL 5
REMARK VINA RESULT:      -7.5      1.260      2.143
REMARK  Name = 
REMARK  8 active torsions:
REMARK  status: ('A' for Active; 'I' for Inactive)
REMARK    1  A    between atoms: C_1  and  O_2
REMARK    2  A    between atoms: O_2  and  C_3
REMARK    3  A    between atoms: C_6  and  N_7
REMARK    4  A    between atoms: N_10  and  C_11
REMARK    5  A    between atoms: C_20  and  O_21
REMARK    6  A    between atoms: O_21  and  C_22
REMARK    7  A    between atoms: C_22  and  C_23
REMARK    8  A    between atoms: C_23  and  N_24
REMARK                            x       y       z     vdW  Elec       q    Type
REMARK                         _______ _______ _______ _____ _____    ______ ____
ROOT
ATOM      1  C   UNL     1       2.978   3.812  19.277  0.00  0.00    +0.000 A 
ATOM      2  C   UNL     1       2.889   4.605  20.439  0.00  0.00    +0.000 A 
ATOM      3  C   UNL     1       2.676   5.980  20.381  0.00  0.00    +0.000 A 
ATOM      4  C   UNL     1       2.419   6.572  19.156  0.00  0.00    +0.000 A 
ATOM      5  C   UNL     1       2.485   5.787  18.004  0.00  0.00    +0.000 A 
ATOM      6  C   UNL     1       2.870   4.432  18.025  0.00  0.00    +0.000 A 
ENDROOT
BRANCH   4   7
ATOM      7  N   UNL     1       2.051   7.920  19.051  0.00  0.00    +0.000 N 
ATOM      8  C   UNL     1       2.320   8.728  17.886  0.00  0.00    +0.000 C 
ATOM      9  C   UNL     1       1.243   9.789  17.963  0.00  0.00    +0.000 C 
ATOM     10  N   UNL     1       1.008   9.891  19.385  0.00  0.00    +0.000 N 
ATOM     11  C   UNL     1       1.367   8.682  20.017  0.00  0.00    +0.000 C 
ATOM     12  O   UNL     1       1.133   8.357  21.170  0.00  0.00    +0.000 OA
BRANCH  10  13
ATOM     13  C   UNL     1       0.356  10.984  19.994  0.00  0.00    +0.000 A 
ATOM     14  C   UNL     1      -1.036  11.087  19.940  0.00  0.00    +0.000 A 
ATOM     15  C   UNL     1      -1.690  12.153  20.571  0.00  0.00    +0.000 A 
ATOM     16  C   UNL     1      -0.952  13.129  21.233  0.00  0.00    +0.000 A 
ATOM     17  C   UNL     1       0.437  13.036  21.279  0.00  0.00    +0.000 A 
ATOM     18  C   UNL     1       1.086  11.954  20.679  0.00  0.00    +0.000 A 
ENDBRANCH  10  13
ENDBRANCH   4   7
BRANCH   1  20
ATOM     19  C   UNL     1       4.366   2.040  20.148  0.00  0.00    +0.000 C 
ATOM     20  O   UNL     1       3.144   2.502  19.611  0.00  0.00    +0.000 OA
ENDBRANCH   1  20
BRANCH   6  21
ATOM     21  O   UNL     1       3.159   3.774  16.834  0.00  0.00    +0.000 OA
BRANCH  21  22
ATOM     22  C   UNL     1       4.587   3.659  16.613  0.00  0.00    +0.000 C 
BRANCH  22  23
ATOM     23  C   UNL     1       5.248   4.776  15.791  0.00  0.00    +0.000 C 
BRANCH  23  24
ATOM     24  N   UNL     1       6.471   5.312  16.465  0.00  0.00    +0.000 NA
ATOM     25  C   UNL     1       6.341   6.746  16.803  0.00  0.00    +0.000 C 
ATOM     26  C   UNL     1       7.525   7.315  17.590  0.00  0.00    +0.000 C 
ATOM     27  C   UNL     1       7.835   6.479  18.819  0.00  0.00    +0.000 C 
ATOM     28  C   UNL     1       8.016   5.025  18.409  0.00  0.00    +0.000 C 
ATOM     29  C   UNL     1       6.783   4.510  17.659  0.00  0.00    +0.000 C 
ENDBRANCH  23  24
ENDBRANCH  22  23
ENDBRANCH  21  22
ENDBRANCH   6  21
TORSDOF 7
ENDMDL
MODEL 6
REMARK VINA RESULT:      -7.5      1.588      2.164
REMARK  Name = 
REMARK  8 active torsions:
REMARK  status: ('A' for Active; 'I' for Inactive)
REMARK    1  A    between atoms: C_1  and  O_2
REMARK    2  A    between atoms: O_2  and  C_3
REMARK    3  A    between atoms: C_6  and  N_7
REMARK    4  A    between atoms: N_10  and  C_11
REMARK    5  A    between atoms: C_20  and  O_21
REMARK    6  A    between atoms: O_21  and  C_22
REMARK    7  A    between atoms: C_22  and  C_23
REMARK    8  A    between atoms: C_23  and  N_24
REMARK                            x       y       z     vdW  Elec       q    Type
REMARK                         _______ _______ _______ _____ _____    ______ ____
ROOT
ATOM      1  C   UNL     1       2.041   3.908  19.702  0.00  0.00    +0.000 A 
ATOM      2  C   UNL     1       1.872   4.801  20.781  0.00  0.00    +0.000 A 
ATOM      3  C   UNL     1       1.930   6.181  20.614  0.00  0.00    +0.000 A 
ATOM      4  C   UNL     1       2.031   6.703  19.335  0.00  0.00    +0.000 A 
ATOM      5  C   UNL     1       2.176   5.825  18.262  0.00  0.00    +0.000 A 
ATOM      6  C   UNL     1       2.295   4.430  18.427  0.00  0.00    +0.000 A 
ENDROOT
BRANCH   4   7
ATOM      7  N   UNL     1       1.943   8.080  19.091  0.00  0.00    +0.000 N 
ATOM      8  C   UNL     1       2.620   8.738  18.000  0.00  0.00    +0.000 C 
ATOM      9  C   UNL     1       1.760   9.963  17.768  0.00  0.00    +0.000 C 
ATOM     10  N   UNL     1       1.217  10.215  19.083  0.00  0.00    +0.000 N 
ATOM     11  C   UNL     1       1.195   9.018  19.829  0.00  0.00    +0.000 C 
ATOM     12  O   UNL     1       0.641   8.829  20.900  0.00  0.00    +0.000 OA
BRANCH  10  13
ATOM     13  C   UNL     1       0.643  11.445  19.469  0.00  0.00    +0.000 A 
ATOM     14  C   UNL     1      -0.716  11.681  19.255  0.00  0.00    +0.000 A 
ATOM     15  C   UNL     1      -1.297  12.888  19.667  0.00  0.00    +0.000 A 
ATOM     16  C   UNL     1      -0.514  13.867  20.269  0.00  0.00    +0.000 A 
ATOM     17  C   UNL     1       0.845  13.640  20.475  0.00  0.00    +0.000 A 
ATOM     18  C   UNL     1       1.415  12.423  20.094  0.00  0.00    +0.000 A 
ENDBRANCH  10  13
ENDBRANCH   4   7
BRANCH   1  20
ATOM     19  C   UNL     1       1.791   2.320  21.502  0.00  0.00    +0.000 C 
ATOM     20  O   UNL     1       1.896   2.622  20.125  0.00  0.00    +0.000 OA
ENDBRANCH   1  20
BRANCH   6  21
ATOM     21  O   UNL     1       2.686   3.635  17.355  0.00  0.00    +0.000 OA
BRANCH  21  22
ATOM     22  C   UNL     1       4.031   3.120  17.527  0.00  0.00    +0.000 C 
BRANCH  22  23
ATOM     23  C   UNL     1       5.140   3.806  16.714  0.00  0.00    +0.000 C 
BRANCH  23  24
ATOM     24  N   UNL     1       5.704   4.989  17.434  0.00  0.00    +0.000 NA
ATOM     25  C   UNL     1       7.100   4.767  17.870  0.00  0.00    +0.000 C 
ATOM     26  C   UNL     1       7.757   5.989  18.518  0.00  0.00    +0.000 C 
ATOM     27  C   UNL     1       7.638   7.222  17.640  0.00  0.00    +0.000 C 
ATOM     28  C   UNL     1       6.177   7.438  17.268  0.00  0.00    +0.000 C 
ATOM     29  C   UNL     1       5.594   6.192  16.593  0.00  0.00    +0.000 C 
ENDBRANCH  23  24
ENDBRANCH  22  23
ENDBRANCH  21  22
ENDBRANCH   6  21
TORSDOF 7
ENDMDL
MODEL 7
REMARK VINA RESULT:      -7.4      2.492      7.985
REMARK  Name = 
REMARK  8 active torsions:
REMARK  status: ('A' for Active; 'I' for Inactive)
REMARK    1  A    between atoms: C_1  and  O_2
REMARK    2  A    between atoms: O_2  and  C_3
REMARK    3  A    between atoms: C_6  and  N_7
REMARK    4  A    between atoms: N_10  and  C_11
REMARK    5  A    between atoms: C_20  and  O_21
REMARK    6  A    between atoms: O_21  and  C_22
REMARK    7  A    between atoms: C_22  and  C_23
REMARK    8  A    between atoms: C_23  and  N_24
REMARK                            x       y       z     vdW  Elec       q    Type
REMARK                         _______ _______ _______ _____ _____    ______ ____
ROOT
ATOM      1  C   UNL     1       1.887   7.832  19.498  0.00  0.00    +0.000 A 
ATOM      2  C   UNL     1       2.581   8.436  18.430  0.00  0.00    +0.000 A 
ATOM      3  C   UNL     1       3.565   7.762  17.713  0.00  0.00    +0.000 A 
ATOM      4  C   UNL     1       3.788   6.420  17.970  0.00  0.00    +0.000 A 
ATOM      5  C   UNL     1       3.088   5.811  19.011  0.00  0.00    +0.000 A 
ATOM      6  C   UNL     1       2.215   6.520  19.862  0.00  0.00    +0.000 A 
ENDROOT
BRANCH   4   7
ATOM      7  N   UNL     1       4.657   5.653  17.183  0.00  0.00    +0.000 N 
ATOM      8  C   UNL     1       5.290   4.442  17.648  0.00  0.00    +0.000 C 
ATOM      9  C   UNL     1       5.553   3.690  16.360  0.00  0.00    +0.000 C 
ATOM     10  N   UNL     1       5.715   4.760  15.403  0.00  0.00    +0.000 N 
ATOM     11  C   UNL     1       5.033   5.911  15.850  0.00  0.00    +0.000 C 
ATOM     12  O   UNL     1       4.810   6.928  15.213  0.00  0.00    +0.000 OA
BRANCH  10  13
ATOM     13  C   UNL     1       6.324   4.594  14.141  0.00  0.00    +0.000 A 
ATOM     14  C   UNL     1       7.429   5.373  13.789  0.00  0.00    +0.000 A 
ATOM     15  C   UNL     1       8.057   5.188  12.550  0.00  0.00    +0.000 A 
ATOM     16  C   UNL     1       7.566   4.244  11.654  0.00  0.00    +0.000 A 
ATOM     17  C   UNL     1       6.458   3.473  11.998  0.00  0.00    +0.000 A 
ATOM     18  C   UNL     1       5.853   3.634  13.246  0.00  0.00    +0.000 A 
ENDBRANCH  10  13
ENDBRANCH   4   7
BRANCH   1  20
ATOM     19  C   UNL     1       0.825  10.000  19.491  0.00  0.00    +0.000 C 
ATOM     20  O   UNL     1       0.951   8.686  19.997  0.00  0.00    +0.000 OA
ENDBRANCH   1  20
BRANCH   6  21
ATOM     21  O   UNL     1       1.744   5.922  21.026  0.00  0.00    +0.000 OA
BRANCH  21  22
ATOM     22  C   UNL     1       2.605   4.841  21.464  0.00  0.00    +0.000 C 
BRANCH  22  23
ATOM     23  C   UNL     1       1.922   3.501  21.778  0.00  0.00    +0.000 C 
BRANCH  23  24
ATOM     24  N   UNL     1       1.928   2.585  20.595  0.00  0.00    +0.000 NA
ATOM     25  C   UNL     1       0.927   2.975  19.579  0.00  0.00    +0.000 C 
ATOM     26  C   UNL     1       0.966   2.131  18.302  0.00  0.00    +0.000 C 
ATOM     27  C   UNL     1       2.364   2.072  17.712  0.00  0.00    +0.000 C 
ATOM     28  C   UNL     1       3.345   1.611  18.781  0.00  0.00    +0.000 C 
ATOM     29  C   UNL     1       3.279   2.519  20.014  0.00  0.00    +0.000 C 
ENDBRANCH  23  24
ENDBRANCH  22  23
ENDBRANCH  21  22
ENDBRANCH   6  21
TORSDOF 7
ENDMDL
MODEL 8
REMARK VINA RESULT:      -7.4      2.546      7.937
REMARK  Name = 
REMARK  8 active torsions:
REMARK  status: ('A' for Active; 'I' for Inactive)
REMARK    1  A    between atoms: C_1  and  O_2
REMARK    2  A    between atoms: O_2  and  C_3
REMARK    3  A    between atoms: C_6  and  N_7
REMARK    4  A    between atoms: N_10  and  C_11
REMARK    5  A    between atoms: C_20  and  O_21
REMARK    6  A    between atoms: O_21  and  C_22
REMARK    7  A    between atoms: C_22  and  C_23
REMARK    8  A    between atoms: C_23  and  N_24
REMARK                            x       y       z     vdW  Elec       q    Type
REMARK                         _______ _______ _______ _____ _____    ______ ____
ROOT
ATOM      1  C   UNL     1       1.874   8.172  19.272  0.00  0.00    +0.000 A 
ATOM      2  C   UNL     1       2.557   8.738  18.175  0.00  0.00    +0.000 A 
ATOM      3  C   UNL     1       3.582   8.065  17.516  0.00  0.00    +0.000 A 
ATOM      4  C   UNL     1       3.860   6.753  17.862  0.00  0.00    +0.000 A 
ATOM      5  C   UNL     1       3.172   6.181  18.932  0.00  0.00    +0.000 A 
ATOM      6  C   UNL     1       2.255   6.903  19.723  0.00  0.00    +0.000 A 
ENDROOT
BRANCH   4   7
ATOM      7  N   UNL     1       4.775   5.978  17.138  0.00  0.00    +0.000 N 
ATOM      8  C   UNL     1       5.551   4.911  17.723  0.00  0.00    +0.000 C 
ATOM      9  C   UNL     1       5.843   4.022  16.533  0.00  0.00    +0.000 C 
ATOM     10  N   UNL     1       5.854   4.964  15.437  0.00  0.00    +0.000 N 
ATOM     11  C   UNL     1       5.070   6.090  15.766  0.00  0.00    +0.000 C 
ATOM     12  O   UNL     1       4.716   6.984  15.014  0.00  0.00    +0.000 OA
BRANCH  10  13
ATOM     13  C   UNL     1       6.428   4.690  14.177  0.00  0.00    +0.000 A 
ATOM     14  C   UNL     1       5.886   3.694  13.363  0.00  0.00    +0.000 A 
ATOM     15  C   UNL     1       6.432   3.442  12.097  0.00  0.00    +0.000 A 
ATOM     16  C   UNL     1       7.535   4.166  11.658  0.00  0.00    +0.000 A 
ATOM     17  C   UNL     1       8.086   5.153  12.473  0.00  0.00    +0.000 A 
ATOM     18  C   UNL     1       7.519   5.427  13.720  0.00  0.00    +0.000 A 
ENDBRANCH  10  13
ENDBRANCH   4   7
BRANCH   1  20
ATOM     19  C   UNL     1       0.351   9.996  18.842  0.00  0.00    +0.000 C 
ATOM     20  O   UNL     1       0.893   9.013  19.702  0.00  0.00    +0.000 OA
ENDBRANCH   1  20
BRANCH   6  21
ATOM     21  O   UNL     1       1.793   6.360  20.918  0.00  0.00    +0.000 OA
BRANCH  21  22
ATOM     22  C   UNL     1       1.209   5.047  20.724  0.00  0.00    +0.000 C 
BRANCH  22  23
ATOM     23  C   UNL     1       1.873   3.881  21.472  0.00  0.00    +0.000 C 
BRANCH  23  24
ATOM     24  N   UNL     1       2.258   2.773  20.544  0.00  0.00    +0.000 NA
ATOM     25  C   UNL     1       1.462   2.786  19.297  0.00  0.00    +0.000 C 
ATOM     26  C   UNL     1       1.891   1.736  18.268  0.00  0.00    +0.000 C 
ATOM     27  C   UNL     1       3.380   1.810  17.979  0.00  0.00    +0.000 C 
ATOM     28  C   UNL     1       4.153   1.735  19.288  0.00  0.00    +0.000 C 
ATOM     29  C   UNL     1       3.700   2.834  20.256  0.00  0.00    +0.000 C 
ENDBRANCH  23  24
ENDBRANCH  22  23
ENDBRANCH  21  22
ENDBRANCH   6  21
TORSDOF 7
ENDMDL
MODEL 9
REMARK VINA RESULT:      -7.4      1.478      2.396
REMARK  Name = 
REMARK  8 active torsions:
REMARK  status: ('A' for Active; 'I' for Inactive)
REMARK    1  A    between atoms: C_1  and  O_2
REMARK    2  A    between atoms: O_2  and  C_3
REMARK    3  A    between atoms: C_6  and  N_7
REMARK    4  A    between atoms: N_10  and  C_11
REMARK    5  A    between atoms: C_20  and  O_21
REMARK    6  A    between atoms: O_21  and  C_22
REMARK    7  A    between atoms: C_22  and  C_23
REMARK    8  A    between atoms: C_23  and  N_24
REMARK                            x       y       z     vdW  Elec       q    Type
REMARK                         _______ _______ _______ _____ _____    ______ ____
ROOT
ATOM      1  C   UNL     1       2.369   3.931  19.669  0.00  0.00    +0.000 A 
ATOM      2  C   UNL     1       2.202   4.799  20.767  0.00  0.00    +0.000 A 
ATOM      3  C   UNL     1       2.158   6.182  20.616  0.00  0.00    +0.000 A 
ATOM      4  C   UNL     1       2.153   6.722  19.340  0.00  0.00    +0.000 A 
ATOM      5  C   UNL     1       2.296   5.866  18.249  0.00  0.00    +0.000 A 
ATOM      6  C   UNL     1       2.516   4.480  18.389  0.00  0.00    +0.000 A 
ENDROOT
BRANCH   4   7
ATOM      7  N   UNL     1       1.961   8.092  19.120  0.00  0.00    +0.000 N 
ATOM      8  C   UNL     1       2.470   8.790  17.964  0.00  0.00    +0.000 C 
ATOM      9  C   UNL     1       1.522   9.965  17.843  0.00  0.00    +0.000 C 
ATOM     10  N   UNL     1       1.120  10.182  19.214  0.00  0.00    +0.000 N 
ATOM     11  C   UNL     1       1.251   8.984  19.947  0.00  0.00    +0.000 C 
ATOM     12  O   UNL     1       0.835   8.762  21.072  0.00  0.00    +0.000 OA
BRANCH  10  13
ATOM     13  C   UNL     1       0.526  11.377  19.674  0.00  0.00    +0.000 A 
ATOM     14  C   UNL     1       1.284  12.303  20.393  0.00  0.00    +0.000 A 
ATOM     15  C   UNL     1       0.708  13.506  20.823  0.00  0.00    +0.000 A 
ATOM     16  C   UNL     1      -0.631  13.770  20.556  0.00  0.00    +0.000 A 
ATOM     17  C   UNL     1      -1.394  12.844  19.848  0.00  0.00    +0.000 A 
ATOM     18  C   UNL     1      -0.809  11.661  19.391  0.00  0.00    +0.000 A 
ENDBRANCH  10  13
ENDBRANCH   4   7
BRANCH   1  20
ATOM     19  C   UNL     1       2.301   2.312  21.459  0.00  0.00    +0.000 C 
ATOM     20  O   UNL     1       2.333   2.634  20.082  0.00  0.00    +0.000 OA
ENDBRANCH   1  20
BRANCH   6  21
ATOM     21  O   UNL     1       2.898   3.724  17.287  0.00  0.00    +0.000 OA
BRANCH  21  22
ATOM     22  C   UNL     1       4.341   3.653  17.154  0.00  0.00    +0.000 C 
BRANCH  22  23
ATOM     23  C   UNL     1       4.982   4.581  16.111  0.00  0.00    +0.000 C 
BRANCH  23  24
ATOM     24  N   UNL     1       6.254   5.187  16.614  0.00  0.00    +0.000 NA
ATOM     25  C   UNL     1       6.128   6.642  16.845  0.00  0.00    +0.000 C 
ATOM     26  C   UNL     1       7.372   7.289  17.462  0.00  0.00    +0.000 C 
ATOM     27  C   UNL     1       7.818   6.563  18.718  0.00  0.00    +0.000 C 
ATOM     28  C   UNL     1       7.987   5.081  18.412  0.00  0.00    +0.000 C 
ATOM     29  C   UNL     1       6.697   4.490  17.833  0.00  0.00    +0.000 C 
ENDBRANCH  23  24
ENDBRANCH  22  23
ENDBRANCH  21  22
ENDBRANCH   6  21
TORSDOF 7
ENDMDL
