MODEL 1
REMARK VINA RESULT:      -7.0      0.000      0.000
REMARK  Name = 
REMARK  2 active torsions:
REMARK  status: ('A' for Active; 'I' for Inactive)
REMARK    1  A    between atoms: C_4  and  C_5
REMARK    2  A    between atoms: C_5  and  O_6
REMARK                            x       y       z     vdW  Elec       q    Type
REMARK                         _______ _______ _______ _____ _____    ______ ____
ROOT
ATOM      1  O   UNL     1       1.405   2.713  21.355  0.00  0.00    +0.000 OA
ATOM      2  C   UNL     1       1.954   3.455  20.551  0.00  0.00    +0.000 A 
ATOM      3  C   UNL     1       1.802   4.914  20.655  0.00  0.00    +0.000 A 
ATOM      4  C   UNL     1       2.361   5.786  19.799  0.00  0.00    +0.000 A 
ATOM      5  C   UNL     1       3.173   5.251  18.694  0.00  0.00    +0.000 A 
ATOM      6  C   UNL     1       3.798   6.074  17.739  0.00  0.00    +0.000 A 
ATOM      7  C   UNL     1       4.597   5.495  16.734  0.00  0.00    +0.000 A 
ATOM      8  C   UNL     1       5.377   5.986  15.654  0.00  0.00    +0.000 A 
ATOM      9  C   UNL     1       5.931   4.883  15.046  0.00  0.00    +0.000 A 
ATOM     10  O   UNL     1       5.543   3.742  15.673  0.00  0.00    +0.000 OA
ATOM     11  C   UNL     1       4.732   4.112  16.702  0.00  0.00    +0.000 A 
ATOM     12  C   UNL     1       4.123   3.249  17.603  0.00  0.00    +0.000 A 
ATOM     13  C   UNL     1       3.347   3.864  18.594  0.00  0.00    +0.000 A 
ATOM     14  O   UNL     1       2.735   2.982  19.513  0.00  0.00    +0.000 OA
ENDROOT
BRANCH   4  15
ATOM     15  C   UNL     1       2.131   7.267  19.939  0.00  0.00    +0.000 C 
BRANCH  15  16
ATOM     16  O   UNL     1       1.666   7.587  21.243  0.00  0.00    +0.000 OA
ATOM     17  H   UNL     1       1.537   6.750  21.721  0.00  0.00    +0.000 HD
ENDBRANCH  15  16
ENDBRANCH   4  15
TORSDOF 2
ENDMDL
MODEL 2
REMARK VINA RESULT:      -6.9      1.376      3.018
REMARK  Name = 
REMARK  2 active torsions:
REMARK  status: ('A' for Active; 'I' for Inactive)
REMARK    1  A    between atoms: C_4  and  C_5
REMARK    2  A    between atoms: C_5  and  O_6
REMARK                            x       y       z     vdW  Elec       q    Type
REMARK                         _______ _______ _______ _____ _____    ______ ____
ROOT
ATOM      1  O   UNL     1       1.472   6.732  20.825  0.00  0.00    +0.000 OA
ATOM      2  C   UNL     1       2.058   6.050  19.994  0.00  0.00    +0.000 A 
ATOM      3  C   UNL     1       1.826   4.600  19.917  0.00  0.00    +0.000 A 
ATOM      4  C   UNL     1       2.447   3.789  19.043  0.00  0.00    +0.000 A 
ATOM      5  C   UNL     1       3.414   4.387  18.108  0.00  0.00    +0.000 A 
ATOM      6  C   UNL     1       4.122   3.630  17.157  0.00  0.00    +0.000 A 
ATOM      7  C   UNL     1       5.000   4.276  16.264  0.00  0.00    +0.000 A 
ATOM      8  C   UNL     1       5.835   3.864  15.192  0.00  0.00    +0.000 A 
ATOM      9  C   UNL     1       6.434   5.005  14.711  0.00  0.00    +0.000 A 
ATOM     10  O   UNL     1       6.032   6.094  15.415  0.00  0.00    +0.000 OA
ATOM     11  C   UNL     1       5.157   5.653  16.360  0.00  0.00    +0.000 A 
ATOM     12  C   UNL     1       4.501   6.448  17.291  0.00  0.00    +0.000 A 
ATOM     13  C   UNL     1       3.629   5.771  18.153  0.00  0.00    +0.000 A 
ATOM     14  O   UNL     1       2.959   6.586  19.093  0.00  0.00    +0.000 OA
ENDROOT
BRANCH   4  15
ATOM     15  C   UNL     1       2.193   2.306  19.046  0.00  0.00    +0.000 C 
BRANCH  15  16
ATOM     16  O   UNL     1       1.067   1.983  18.242  0.00  0.00    +0.000 OA
ATOM     17  H   UNL     1       1.225   1.104  17.858  0.00  0.00    +0.000 HD
ENDBRANCH  15  16
ENDBRANCH   4  15
TORSDOF 2
ENDMDL
MODEL 3
REMARK VINA RESULT:      -6.9      2.598      3.633
REMARK  Name = 
REMARK  2 active torsions:
REMARK  status: ('A' for Active; 'I' for Inactive)
REMARK    1  A    between atoms: C_4  and  C_5
REMARK    2  A    between atoms: C_5  and  O_6
REMARK                            x       y       z     vdW  Elec       q    Type
REMARK                         _______ _______ _______ _____ _____    ______ ____
ROOT
ATOM      1  O   UNL     1       0.649   3.577  17.747  0.00  0.00    +0.000 OA
ATOM      2  C   UNL     1       1.812   3.829  18.037  0.00  0.00    +0.000 A 
ATOM      3  C   UNL     1       2.533   3.004  19.019  0.00  0.00    +0.000 A 
ATOM      4  C   UNL     1       3.802   3.234  19.398  0.00  0.00    +0.000 A 
ATOM      5  C   UNL     1       4.511   4.374  18.795  0.00  0.00    +0.000 A 
ATOM      6  C   UNL     1       5.838   4.706  19.124  0.00  0.00    +0.000 A 
ATOM      7  C   UNL     1       6.470   5.785  18.475  0.00  0.00    +0.000 A 
ATOM      8  C   UNL     1       7.758   6.379  18.522  0.00  0.00    +0.000 A 
ATOM      9  C   UNL     1       7.739   7.412  17.613  0.00  0.00    +0.000 A 
ATOM     10  O   UNL     1       6.526   7.500  17.011  0.00  0.00    +0.000 OA
ATOM     11  C   UNL     1       5.751   6.510  17.532  0.00  0.00    +0.000 A 
ATOM     12  C   UNL     1       4.434   6.242  17.183  0.00  0.00    +0.000 A 
ATOM     13  C   UNL     1       3.846   5.155  17.841  0.00  0.00    +0.000 A 
ATOM     14  O   UNL     1       2.508   4.882  17.477  0.00  0.00    +0.000 OA
ENDROOT
BRANCH   4  15
ATOM     15  C   UNL     1       4.467   2.374  20.439  0.00  0.00    +0.000 C 
BRANCH  15  16
ATOM     16  O   UNL     1       5.168   1.296  19.835  0.00  0.00    +0.000 OA
ATOM     17  H   UNL     1       6.115   1.516  19.852  0.00  0.00    +0.000 HD
ENDBRANCH  15  16
ENDBRANCH   4  15
TORSDOF 2
ENDMDL
MODEL 4
REMARK VINA RESULT:      -6.9      1.990      5.234
REMARK  Name = 
REMARK  2 active torsions:
REMARK  status: ('A' for Active; 'I' for Inactive)
REMARK    1  A    between atoms: C_4  and  C_5
REMARK    2  A    between atoms: C_5  and  O_6
REMARK                            x       y       z     vdW  Elec       q    Type
REMARK                         _______ _______ _______ _____ _____    ______ ____
ROOT
ATOM      1  O   UNL     1       6.741   4.009  14.527  0.00  0.00    +0.000 OA
ATOM      2  C   UNL     1       6.246   4.264  15.617  0.00  0.00    +0.000 A 
ATOM      3  C   UNL     1       7.026   4.968  16.646  0.00  0.00    +0.000 A 
ATOM      4  C   UNL     1       6.554   5.264  17.869  0.00  0.00    +0.000 A 
ATOM      5  C   UNL     1       5.176   4.862  18.197  0.00  0.00    +0.000 A 
ATOM      6  C   UNL     1       4.586   5.117  19.448  0.00  0.00    +0.000 A 
ATOM      7  C   UNL     1       3.247   4.743  19.678  0.00  0.00    +0.000 A 
ATOM      8  C   UNL     1       2.337   4.856  20.762  0.00  0.00    +0.000 A 
ATOM      9  C   UNL     1       1.157   4.293  20.335  0.00  0.00    +0.000 A 
ATOM     10  O   UNL     1       1.276   3.835  19.062  0.00  0.00    +0.000 OA
ATOM     11  C   UNL     1       2.547   4.109  18.659  0.00  0.00    +0.000 A 
ATOM     12  C   UNL     1       3.084   3.812  17.413  0.00  0.00    +0.000 A 
ATOM     13  C   UNL     1       4.412   4.211  17.220  0.00  0.00    +0.000 A 
ATOM     14  O   UNL     1       4.951   3.913  15.948  0.00  0.00    +0.000 OA
ENDROOT
BRANCH   4  15
ATOM     15  C   UNL     1       7.420   5.951  18.890  0.00  0.00    +0.000 C 
BRANCH  15  16
ATOM     16  O   UNL     1       8.292   5.024  19.523  0.00  0.00    +0.000 OA
ATOM     17  H   UNL     1       9.106   5.501  19.756  0.00  0.00    +0.000 HD
ENDBRANCH  15  16
ENDBRANCH   4  15
TORSDOF 2
ENDMDL
MODEL 5
REMARK VINA RESULT:      -6.7      2.491      5.424
REMARK  Name = 
REMARK  2 active torsions:
REMARK  status: ('A' for Active; 'I' for Inactive)
REMARK    1  A    between atoms: C_4  and  C_5
REMARK    2  A    between atoms: C_5  and  O_6
REMARK                            x       y       z     vdW  Elec       q    Type
REMARK                         _______ _______ _______ _____ _____    ______ ____
ROOT
ATOM      1  O   UNL     1       8.327   6.614  19.291  0.00  0.00    +0.000 OA
ATOM      2  C   UNL     1       7.447   5.919  18.801  0.00  0.00    +0.000 A 
ATOM      3  C   UNL     1       7.497   5.539  17.381  0.00  0.00    +0.000 A 
ATOM      4  C   UNL     1       6.558   4.794  16.773  0.00  0.00    +0.000 A 
ATOM      5  C   UNL     1       5.412   4.332  17.575  0.00  0.00    +0.000 A 
ATOM      6  C   UNL     1       4.371   3.554  17.037  0.00  0.00    +0.000 A 
ATOM      7  C   UNL     1       3.328   3.109  17.874  0.00  0.00    +0.000 A 
ATOM      8  C   UNL     1       2.164   2.314  17.703  0.00  0.00    +0.000 A 
ATOM      9  C   UNL     1       1.562   2.244  18.938  0.00  0.00    +0.000 A 
ATOM     10  O   UNL     1       2.271   2.945  19.860  0.00  0.00    +0.000 OA
ATOM     11  C   UNL     1       3.348   3.472  19.215  0.00  0.00    +0.000 A 
ATOM     12  C   UNL     1       4.336   4.256  19.795  0.00  0.00    +0.000 A 
ATOM     13  C   UNL     1       5.361   4.667  18.934  0.00  0.00    +0.000 A 
ATOM     14  O   UNL     1       6.368   5.458  19.532  0.00  0.00    +0.000 OA
ENDROOT
BRANCH   4  15
ATOM     15  C   UNL     1       6.651   4.475  15.306  0.00  0.00    +0.000 C 
BRANCH  15  16
ATOM     16  O   UNL     1       7.578   5.335  14.657  0.00  0.00    +0.000 OA
ATOM     17  H   UNL     1       7.974   5.904  15.338  0.00  0.00    +0.000 HD
ENDBRANCH  15  16
ENDBRANCH   4  15
TORSDOF 2
ENDMDL
MODEL 6
REMARK VINA RESULT:      -6.7      2.408      4.784
REMARK  Name = 
REMARK  2 active torsions:
REMARK  status: ('A' for Active; 'I' for Inactive)
REMARK    1  A    between atoms: C_4  and  C_5
REMARK    2  A    between atoms: C_5  and  O_6
REMARK                            x       y       z     vdW  Elec       q    Type
REMARK                         _______ _______ _______ _____ _____    ______ ____
ROOT
ATOM      1  O   UNL     1       8.270   5.586  19.457  0.00  0.00    +0.000 OA
ATOM      2  C   UNL     1       7.126   5.425  19.052  0.00  0.00    +0.000 A 
ATOM      3  C   UNL     1       6.596   6.254  17.959  0.00  0.00    +0.000 A 
ATOM      4  C   UNL     1       5.346   6.145  17.477  0.00  0.00    +0.000 A 
ATOM      5  C   UNL     1       4.457   5.137  18.077  0.00  0.00    +0.000 A 
ATOM      6  C   UNL     1       3.130   4.944  17.653  0.00  0.00    +0.000 A 
ATOM      7  C   UNL     1       2.349   3.930  18.242  0.00  0.00    +0.000 A 
ATOM      8  C   UNL     1       1.029   3.437  18.064  0.00  0.00    +0.000 A 
ATOM      9  C   UNL     1       0.879   2.406  18.962  0.00  0.00    +0.000 A 
ATOM     10  O   UNL     1       2.014   2.229  19.686  0.00  0.00    +0.000 OA
ATOM     11  C   UNL     1       2.911   3.155  19.249  0.00  0.00    +0.000 A 
ATOM     12  C   UNL     1       4.206   3.315  19.723  0.00  0.00    +0.000 A 
ATOM     13  C   UNL     1       4.954   4.324  19.104  0.00  0.00    +0.000 A 
ATOM     14  O   UNL     1       6.274   4.477  19.584  0.00  0.00    +0.000 OA
ENDROOT
BRANCH   4  15
ATOM     15  C   UNL     1       4.855   7.054  16.383  0.00  0.00    +0.000 C 
BRANCH  15  16
ATOM     16  O   UNL     1       5.367   6.652  15.120  0.00  0.00    +0.000 OA
ATOM     17  H   UNL     1       4.612   6.563  14.514  0.00  0.00    +0.000 HD
ENDBRANCH  15  16
ENDBRANCH   4  15
TORSDOF 2
ENDMDL
MODEL 7
REMARK VINA RESULT:      -6.7      1.145      2.891
REMARK  Name = 
REMARK  2 active torsions:
REMARK  status: ('A' for Active; 'I' for Inactive)
REMARK    1  A    between atoms: C_4  and  C_5
REMARK    2  A    between atoms: C_5  and  O_6
REMARK                            x       y       z     vdW  Elec       q    Type
REMARK                         _______ _______ _______ _____ _____    ______ ____
ROOT
ATOM      1  O   UNL     1       1.232   7.467  21.090  0.00  0.00    +0.000 OA
ATOM      2  C   UNL     1       1.897   6.708  20.397  0.00  0.00    +0.000 A 
ATOM      3  C   UNL     1       1.980   5.276  20.723  0.00  0.00    +0.000 A 
ATOM      4  C   UNL     1       2.704   4.390  20.017  0.00  0.00    +0.000 A 
ATOM      5  C   UNL     1       3.457   4.881  18.851  0.00  0.00    +0.000 A 
ATOM      6  C   UNL     1       4.250   4.041  18.048  0.00  0.00    +0.000 A 
ATOM      7  C   UNL     1       4.907   4.571  16.921  0.00  0.00    +0.000 A 
ATOM      8  C   UNL     1       5.741   4.047  15.897  0.00  0.00    +0.000 A 
ATOM      9  C   UNL     1       6.047   5.104  15.072  0.00  0.00    +0.000 A 
ATOM     10  O   UNL     1       5.464   6.247  15.516  0.00  0.00    +0.000 OA
ATOM     11  C   UNL     1       4.768   5.925  16.641  0.00  0.00    +0.000 A 
ATOM     12  C   UNL     1       4.017   6.805  17.409  0.00  0.00    +0.000 A 
ATOM     13  C   UNL     1       3.369   6.238  18.514  0.00  0.00    +0.000 A 
ATOM     14  O   UNL     1       2.601   7.136  19.287  0.00  0.00    +0.000 OA
ENDROOT
BRANCH   4  15
ATOM     15  C   UNL     1       2.778   2.945  20.430  0.00  0.00    +0.000 C 
BRANCH  15  16
ATOM     16  O   UNL     1       2.457   2.793  21.807  0.00  0.00    +0.000 OA
ATOM     17  H   UNL     1       1.917   3.559  22.066  0.00  0.00    +0.000 HD
ENDBRANCH  15  16
ENDBRANCH   4  15
TORSDOF 2
ENDMDL
MODEL 8
REMARK VINA RESULT:      -6.6      1.799      4.324
REMARK  Name = 
REMARK  2 active torsions:
REMARK  status: ('A' for Active; 'I' for Inactive)
REMARK    1  A    between atoms: C_4  and  C_5
REMARK    2  A    between atoms: C_5  and  O_6
REMARK                            x       y       z     vdW  Elec       q    Type
REMARK                         _______ _______ _______ _____ _____    ______ ____
ROOT
ATOM      1  O   UNL     1       2.584   2.404  22.081  0.00  0.00    +0.000 OA
ATOM      2  C   UNL     1       2.642   3.251  21.199  0.00  0.00    +0.000 A 
ATOM      3  C   UNL     1       3.221   2.925  19.887  0.00  0.00    +0.000 A 
ATOM      4  C   UNL     1       3.333   3.809  18.880  0.00  0.00    +0.000 A 
ATOM      5  C   UNL     1       2.847   5.180  19.102  0.00  0.00    +0.000 A 
ATOM      6  C   UNL     1       2.921   6.183  18.119  0.00  0.00    +0.000 A 
ATOM      7  C   UNL     1       2.396   7.463  18.386  0.00  0.00    +0.000 A 
ATOM      8  C   UNL     1       2.269   8.676  17.659  0.00  0.00    +0.000 A 
ATOM      9  C   UNL     1       1.640   9.565  18.500  0.00  0.00    +0.000 A 
ATOM     10  O   UNL     1       1.373   8.986  19.699  0.00  0.00    +0.000 OA
ATOM     11  C   UNL     1       1.830   7.706  19.632  0.00  0.00    +0.000 A 
ATOM     12  C   UNL     1       1.749   6.762  20.647  0.00  0.00    +0.000 A 
ATOM     13  C   UNL     1       2.271   5.500  20.339  0.00  0.00    +0.000 A 
ATOM     14  O   UNL     1       2.179   4.541  21.373  0.00  0.00    +0.000 OA
ENDROOT
BRANCH   4  15
ATOM     15  C   UNL     1       3.974   3.420  17.575  0.00  0.00    +0.000 C 
BRANCH  15  16
ATOM     16  O   UNL     1       5.386   3.574  17.637  0.00  0.00    +0.000 OA
ATOM     17  H   UNL     1       5.718   3.587  16.724  0.00  0.00    +0.000 HD
ENDBRANCH  15  16
ENDBRANCH   4  15
TORSDOF 2
ENDMDL
MODEL 9
REMARK VINA RESULT:      -6.6      1.752      4.757
REMARK  Name = 
REMARK  2 active torsions:
REMARK  status: ('A' for Active; 'I' for Inactive)
REMARK    1  A    between atoms: C_4  and  C_5
REMARK    2  A    between atoms: C_5  and  O_6
REMARK                            x       y       z     vdW  Elec       q    Type
REMARK                         _______ _______ _______ _____ _____    ______ ____
ROOT
ATOM      1  O   UNL     1       4.810   2.654  19.709  0.00  0.00    +0.000 OA
ATOM      2  C   UNL     1       4.489   3.721  19.202  0.00  0.00    +0.000 A 
ATOM      3  C   UNL     1       5.024   4.117  17.890  0.00  0.00    +0.000 A 
ATOM      4  C   UNL     1       4.729   5.279  17.283  0.00  0.00    +0.000 A 
ATOM      5  C   UNL     1       3.819   6.210  17.970  0.00  0.00    +0.000 A 
ATOM      6  C   UNL     1       3.449   7.454  17.427  0.00  0.00    +0.000 A 
ATOM      7  C   UNL     1       2.538   8.275  18.120  0.00  0.00    +0.000 A 
ATOM      8  C   UNL     1       1.931   9.537  17.883  0.00  0.00    +0.000 A 
ATOM      9  C   UNL     1       1.112   9.779  18.961  0.00  0.00    +0.000 A 
ATOM     10  O   UNL     1       1.173   8.755  19.851  0.00  0.00    +0.000 OA
ATOM     11  C   UNL     1       2.040   7.837  19.340  0.00  0.00    +0.000 A 
ATOM     12  C   UNL     1       2.385   6.631  19.935  0.00  0.00    +0.000 A 
ATOM     13  C   UNL     1       3.283   5.838  19.210  0.00  0.00    +0.000 A 
ATOM     14  O   UNL     1       3.625   4.608  19.815  0.00  0.00    +0.000 OA
ENDROOT
BRANCH   4  15
ATOM     15  C   UNL     1       5.344   5.639  15.957  0.00  0.00    +0.000 C 
BRANCH  15  16
ATOM     16  O   UNL     1       6.620   6.239  16.135  0.00  0.00    +0.000 OA
ATOM     17  H   UNL     1       7.029   5.828  16.916  0.00  0.00    +0.000 HD
ENDBRANCH  15  16
ENDBRANCH   4  15
TORSDOF 2
ENDMDL
