MODEL 1
REMARK VINA RESULT:      -7.5      0.000      0.000
REMARK  Name = 
REMARK  2 active torsions:
REMARK  status: ('A' for Active; 'I' for Inactive)
REMARK    1  A    between atoms: C_2  and  C_3
REMARK    2  A    between atoms: N_15  and  C_16
REMARK                            x       y       z     vdW  Elec       q    Type
REMARK                         _______ _______ _______ _____ _____    ______ ____
ROOT
ATOM      1  C   UNL     1       5.472   5.822  15.926  0.00  0.00    +0.000 C 
ATOM      2  C   UNL     1       4.791   5.420  17.010  0.00  0.00    +0.000 C 
ATOM      3  C   UNL     1       4.801   4.084  17.717  0.00  0.00    +0.000 C 
ATOM      4  C   UNL     1       3.846   4.215  18.922  0.00  0.00    +0.000 C 
ATOM      5  C   UNL     1       3.311   5.611  18.815  0.00  0.00    +0.000 A 
ATOM      6  C   UNL     1       2.386   6.238  19.645  0.00  0.00    +0.000 A 
ATOM      7 CL   UNL     1       1.700   5.426  20.997  0.00  0.00    +0.000 Cl
ATOM      8  C   UNL     1       2.005   7.552  19.376  0.00  0.00    +0.000 A 
ATOM      9  C   UNL     1       2.554   8.217  18.283  0.00  0.00    +0.000 A 
ATOM     10  F   UNL     1       2.183   9.478  18.023  0.00  0.00    +0.000 F 
ATOM     11  C   UNL     1       3.479   7.601  17.449  0.00  0.00    +0.000 A 
ATOM     12  C   UNL     1       3.856   6.292  17.725  0.00  0.00    +0.000 A 
ENDROOT
BRANCH   1  14
ATOM     13  O   UNL     1       7.600   4.887  15.361  0.00  0.00    +0.000 OA
ATOM     14  C   UNL     1       6.412   5.003  15.106  0.00  0.00    +0.000 C 
ATOM     15  N   UNL     1       5.751   4.392  14.052  0.00  0.00    +0.000 N 
ATOM     16  H   UNL     1       4.758   4.545  13.939  0.00  0.00    +0.000 HD
BRANCH  15  17
ATOM     17  C   UNL     1       6.351   3.432  13.179  0.00  0.00    +0.000 C 
ATOM     18  C   UNL     1       5.623   3.019  11.927  0.00  0.00    +0.000 C 
ATOM     19  C   UNL     1       6.871   3.842  11.823  0.00  0.00    +0.000 C 
ENDBRANCH  15  17
ENDBRANCH   1  14
TORSDOF 2
ENDMDL
MODEL 2
REMARK VINA RESULT:      -7.4      1.202      1.495
REMARK  Name = 
REMARK  2 active torsions:
REMARK  status: ('A' for Active; 'I' for Inactive)
REMARK    1  A    between atoms: C_2  and  C_3
REMARK    2  A    between atoms: N_15  and  C_16
REMARK                            x       y       z     vdW  Elec       q    Type
REMARK                         _______ _______ _______ _____ _____    ______ ____
ROOT
ATOM      1  C   UNL     1       5.437   5.108  16.716  0.00  0.00    +0.000 C 
ATOM      2  C   UNL     1       4.599   4.389  17.479  0.00  0.00    +0.000 C 
ATOM      3  C   UNL     1       4.417   2.891  17.567  0.00  0.00    +0.000 C 
ATOM      4  C   UNL     1       3.334   2.640  18.638  0.00  0.00    +0.000 C 
ATOM      5  C   UNL     1       2.927   4.015  19.076  0.00  0.00    +0.000 A 
ATOM      6  C   UNL     1       1.960   4.361  20.015  0.00  0.00    +0.000 A 
ATOM      7 CL   UNL     1       1.051   3.164  20.849  0.00  0.00    +0.000 Cl
ATOM      8  C   UNL     1       1.719   5.708  20.285  0.00  0.00    +0.000 A 
ATOM      9  C   UNL     1       2.449   6.685  19.613  0.00  0.00    +0.000 A 
ATOM     10  F   UNL     1       2.213   7.978  19.870  0.00  0.00    +0.000 F 
ATOM     11  C   UNL     1       3.419   6.350  18.675  0.00  0.00    +0.000 A 
ATOM     12  C   UNL     1       3.655   5.005  18.413  0.00  0.00    +0.000 A 
ENDROOT
BRANCH   1  14
ATOM     13  O   UNL     1       7.602   4.478  15.917  0.00  0.00    +0.000 OA
ATOM     14  C   UNL     1       6.404   4.581  15.709  0.00  0.00    +0.000 C 
ATOM     15  N   UNL     1       5.755   4.214  14.541  0.00  0.00    +0.000 N 
ATOM     16  H   UNL     1       4.752   4.328  14.478  0.00  0.00    +0.000 HD
BRANCH  15  17
ATOM     17  C   UNL     1       6.389   3.544  13.449  0.00  0.00    +0.000 C 
ATOM     18  C   UNL     1       5.610   3.297  12.183  0.00  0.00    +0.000 C 
ATOM     19  C   UNL     1       6.735   4.288  12.183  0.00  0.00    +0.000 C 
ENDBRANCH  15  17
ENDBRANCH   1  14
TORSDOF 2
ENDMDL
MODEL 3
REMARK VINA RESULT:      -7.3      2.025      2.762
REMARK  Name = 
REMARK  2 active torsions:
REMARK  status: ('A' for Active; 'I' for Inactive)
REMARK    1  A    between atoms: C_2  and  C_3
REMARK    2  A    between atoms: N_15  and  C_16
REMARK                            x       y       z     vdW  Elec       q    Type
REMARK                         _______ _______ _______ _____ _____    ______ ____
ROOT
ATOM      1  C   UNL     1       5.294   4.181  16.503  0.00  0.00    +0.000 C 
ATOM      2  C   UNL     1       4.616   5.165  17.114  0.00  0.00    +0.000 C 
ATOM      3  C   UNL     1       4.485   6.624  16.743  0.00  0.00    +0.000 C 
ATOM      4  C   UNL     1       3.555   7.266  17.795  0.00  0.00    +0.000 C 
ATOM      5  C   UNL     1       3.236   6.143  18.734  0.00  0.00    +0.000 A 
ATOM      6  C   UNL     1       2.448   6.186  19.881  0.00  0.00    +0.000 A 
ATOM      7 CL   UNL     1       1.687   7.641  20.391  0.00  0.00    +0.000 Cl
ATOM      8  C   UNL     1       2.272   5.026  20.636  0.00  0.00    +0.000 A 
ATOM      9  C   UNL     1       2.887   3.844  20.231  0.00  0.00    +0.000 A 
ATOM     10  F   UNL     1       2.721   2.732  20.959  0.00  0.00    +0.000 F 
ATOM     11  C   UNL     1       3.674   3.789  19.086  0.00  0.00    +0.000 A 
ATOM     12  C   UNL     1       3.842   4.949  18.338  0.00  0.00    +0.000 A 
ENDROOT
BRANCH   1  14
ATOM     13  O   UNL     1       7.332   4.572  15.313  0.00  0.00    +0.000 OA
ATOM     14  C   UNL     1       6.142   4.305  15.281  0.00  0.00    +0.000 C 
ATOM     15  N   UNL     1       5.402   4.056  14.135  0.00  0.00    +0.000 N 
ATOM     16  H   UNL     1       4.421   3.829  14.223  0.00  0.00    +0.000 HD
BRANCH  15  17
ATOM     17  C   UNL     1       5.965   3.957  12.825  0.00  0.00    +0.000 C 
ATOM     18  C   UNL     1       6.292   2.598  12.264  0.00  0.00    +0.000 C 
ATOM     19  C   UNL     1       5.161   3.390  11.681  0.00  0.00    +0.000 C 
ENDBRANCH  15  17
ENDBRANCH   1  14
TORSDOF 2
ENDMDL
MODEL 4
REMARK VINA RESULT:      -7.0      3.812      5.169
REMARK  Name = 
REMARK  2 active torsions:
REMARK  status: ('A' for Active; 'I' for Inactive)
REMARK    1  A    between atoms: C_2  and  C_3
REMARK    2  A    between atoms: N_15  and  C_16
REMARK                            x       y       z     vdW  Elec       q    Type
REMARK                         _______ _______ _______ _____ _____    ______ ____
ROOT
ATOM      1  C   UNL     1       2.896   6.312  19.562  0.00  0.00    +0.000 C 
ATOM      2  C   UNL     1       2.404   7.479  19.117  0.00  0.00    +0.000 C 
ATOM      3  C   UNL     1       2.646   8.193  17.808  0.00  0.00    +0.000 C 
ATOM      4  C   UNL     1       1.789   9.477  17.840  0.00  0.00    +0.000 C 
ATOM      5  C   UNL     1       1.132   9.444  19.187  0.00  0.00    +0.000 A 
ATOM      6  C   UNL     1       0.267  10.385  19.738  0.00  0.00    +0.000 A 
ATOM      7 CL   UNL     1      -0.188  11.800  18.873  0.00  0.00    +0.000 Cl
ATOM      8  C   UNL     1      -0.241  10.179  21.021  0.00  0.00    +0.000 A 
ATOM      9  C   UNL     1       0.123   9.037  21.729  0.00  0.00    +0.000 A 
ATOM     10  F   UNL     1      -0.362   8.843  22.962  0.00  0.00    +0.000 F 
ATOM     11  C   UNL     1       0.985   8.091  21.186  0.00  0.00    +0.000 A 
ATOM     12  C   UNL     1       1.485   8.302  19.907  0.00  0.00    +0.000 A 
ENDROOT
BRANCH   1  14
ATOM     13  O   UNL     1       3.543   4.650  17.969  0.00  0.00    +0.000 OA
ATOM     14  C   UNL     1       3.864   5.423  18.857  0.00  0.00    +0.000 C 
ATOM     15  N   UNL     1       5.153   5.617  19.329  0.00  0.00    +0.000 N 
ATOM     16  H   UNL     1       5.312   6.296  20.061  0.00  0.00    +0.000 HD
BRANCH  15  17
ATOM     17  C   UNL     1       6.316   5.017  18.753  0.00  0.00    +0.000 C 
ATOM     18  C   UNL     1       6.988   5.688  17.584  0.00  0.00    +0.000 C 
ATOM     19  C   UNL     1       7.674   5.654  18.916  0.00  0.00    +0.000 C 
ENDBRANCH  15  17
ENDBRANCH   1  14
TORSDOF 2
ENDMDL
MODEL 5
REMARK VINA RESULT:      -6.9      1.370      1.634
REMARK  Name = 
REMARK  2 active torsions:
REMARK  status: ('A' for Active; 'I' for Inactive)
REMARK    1  A    between atoms: C_2  and  C_3
REMARK    2  A    between atoms: N_15  and  C_16
REMARK                            x       y       z     vdW  Elec       q    Type
REMARK                         _______ _______ _______ _____ _____    ______ ____
ROOT
ATOM      1  C   UNL     1       5.322   6.015  17.158  0.00  0.00    +0.000 C 
ATOM      2  C   UNL     1       4.766   5.185  18.054  0.00  0.00    +0.000 C 
ATOM      3  C   UNL     1       5.074   3.735  18.348  0.00  0.00    +0.000 C 
ATOM      4  C   UNL     1       4.139   3.310  19.501  0.00  0.00    +0.000 C 
ATOM      5  C   UNL     1       3.319   4.534  19.776  0.00  0.00    +0.000 A 
ATOM      6  C   UNL     1       2.302   4.687  20.714  0.00  0.00    +0.000 A 
ATOM      7 CL   UNL     1       1.833   3.395  21.747  0.00  0.00    +0.000 Cl
ATOM      8  C   UNL     1       1.646   5.914  20.819  0.00  0.00    +0.000 A 
ATOM      9  C   UNL     1       2.018   6.965  19.985  0.00  0.00    +0.000 A 
ATOM     10  F   UNL     1       1.384   8.141  20.083  0.00  0.00    +0.000 F 
ATOM     11  C   UNL     1       3.034   6.823  19.047  0.00  0.00    +0.000 A 
ATOM     12  C   UNL     1       3.684   5.599  18.950  0.00  0.00    +0.000 A 
ENDROOT
BRANCH   1  14
ATOM     13  O   UNL     1       7.520   6.154  16.226  0.00  0.00    +0.000 OA
ATOM     14  C   UNL     1       6.395   5.683  16.177  0.00  0.00    +0.000 C 
ATOM     15  N   UNL     1       5.946   4.766  15.239  0.00  0.00    +0.000 N 
ATOM     16  H   UNL     1       4.995   4.428  15.298  0.00  0.00    +0.000 HD
BRANCH  15  17
ATOM     17  C   UNL     1       6.782   4.147  14.259  0.00  0.00    +0.000 C 
ATOM     18  C   UNL     1       6.167   3.630  12.985  0.00  0.00    +0.000 C 
ATOM     19  C   UNL     1       7.065   4.829  12.944  0.00  0.00    +0.000 C 
ENDBRANCH  15  17
ENDBRANCH   1  14
TORSDOF 2
ENDMDL
MODEL 6
REMARK VINA RESULT:      -6.9      4.153      5.376
REMARK  Name = 
REMARK  2 active torsions:
REMARK  status: ('A' for Active; 'I' for Inactive)
REMARK    1  A    between atoms: C_2  and  C_3
REMARK    2  A    between atoms: N_15  and  C_16
REMARK                            x       y       z     vdW  Elec       q    Type
REMARK                         _______ _______ _______ _____ _____    ______ ____
ROOT
ATOM      1  C   UNL     1       2.633   6.401  19.906  0.00  0.00    +0.000 C 
ATOM      2  C   UNL     1       2.212   7.553  19.361  0.00  0.00    +0.000 C 
ATOM      3  C   UNL     1       2.501   8.140  17.998  0.00  0.00    +0.000 C 
ATOM      4  C   UNL     1       1.721   9.470  17.915  0.00  0.00    +0.000 C 
ATOM      5  C   UNL     1       1.058   9.588  19.254  0.00  0.00    +0.000 A 
ATOM      6  C   UNL     1       0.247  10.621  19.717  0.00  0.00    +0.000 A 
ATOM      7 CL   UNL     1      -0.121  11.982  18.733  0.00  0.00    +0.000 Cl
ATOM      8  C   UNL     1      -0.279  10.553  21.008  0.00  0.00    +0.000 A 
ATOM      9  C   UNL     1       0.016   9.455  21.812  0.00  0.00    +0.000 A 
ATOM     10  F   UNL     1      -0.486   9.393  23.052  0.00  0.00    +0.000 F 
ATOM     11  C   UNL     1       0.822   8.418  21.358  0.00  0.00    +0.000 A 
ATOM     12  C   UNL     1       1.340   8.491  20.070  0.00  0.00    +0.000 A 
ENDROOT
BRANCH   1  14
ATOM     13  O   UNL     1       4.760   5.411  19.443  0.00  0.00    +0.000 OA
ATOM     14  C   UNL     1       3.550   5.401  19.286  0.00  0.00    +0.000 C 
ATOM     15  N   UNL     1       2.841   4.470  18.542  0.00  0.00    +0.000 N 
ATOM     16  H   UNL     1       1.835   4.546  18.489  0.00  0.00    +0.000 HD
BRANCH  15  17
ATOM     17  C   UNL     1       3.425   3.308  17.949  0.00  0.00    +0.000 C 
ATOM     18  C   UNL     1       3.623   2.072  18.788  0.00  0.00    +0.000 C 
ATOM     19  C   UNL     1       2.597   2.073  17.695  0.00  0.00    +0.000 C 
ENDBRANCH  15  17
ENDBRANCH   1  14
TORSDOF 2
ENDMDL
MODEL 7
REMARK VINA RESULT:      -6.9      4.080      6.748
REMARK  Name = 
REMARK  2 active torsions:
REMARK  status: ('A' for Active; 'I' for Inactive)
REMARK    1  A    between atoms: C_2  and  C_3
REMARK    2  A    between atoms: N_15  and  C_16
REMARK                            x       y       z     vdW  Elec       q    Type
REMARK                         _______ _______ _______ _____ _____    ______ ____
ROOT
ATOM      1  C   UNL     1       2.168   8.870  17.751  0.00  0.00    +0.000 C 
ATOM      2  C   UNL     1       2.504   7.741  18.394  0.00  0.00    +0.000 C 
ATOM      3  C   UNL     1       1.995   7.188  19.706  0.00  0.00    +0.000 C 
ATOM      4  C   UNL     1       2.718   5.842  19.928  0.00  0.00    +0.000 C 
ATOM      5  C   UNL     1       3.631   5.719  18.746  0.00  0.00    +0.000 A 
ATOM      6  C   UNL     1       4.530   4.694  18.465  0.00  0.00    +0.000 A 
ATOM      7 CL   UNL     1       4.709   3.345  19.516  0.00  0.00    +0.000 Cl
ATOM      8  C   UNL     1       5.305   4.761  17.307  0.00  0.00    +0.000 A 
ATOM      9  C   UNL     1       5.167   5.851  16.451  0.00  0.00    +0.000 A 
ATOM     10  F   UNL     1       5.916   5.916  15.342  0.00  0.00    +0.000 F 
ATOM     11  C   UNL     1       4.272   6.878  16.721  0.00  0.00    +0.000 A 
ATOM     12  C   UNL     1       3.501   6.803  17.876  0.00  0.00    +0.000 A 
ENDROOT
BRANCH   1  14
ATOM     13  O   UNL     1       1.515  10.866  18.896  0.00  0.00    +0.000 OA
ATOM     14  C   UNL     1       1.199   9.907  18.211  0.00  0.00    +0.000 C 
ATOM     15  N   UNL     1      -0.077   9.640  17.738  0.00  0.00    +0.000 N 
ATOM     16  H   UNL     1      -0.228   8.822  17.164  0.00  0.00    +0.000 HD
BRANCH  15  17
ATOM     17  C   UNL     1      -1.188  10.526  17.890  0.00  0.00    +0.000 C 
ATOM     18  C   UNL     1      -2.134  10.726  16.734  0.00  0.00    +0.000 C 
ATOM     19  C   UNL     1      -2.598   9.991  17.955  0.00  0.00    +0.000 C 
ENDBRANCH  15  17
ENDBRANCH   1  14
TORSDOF 2
ENDMDL
MODEL 8
REMARK VINA RESULT:      -6.9      2.273      2.916
REMARK  Name = 
REMARK  2 active torsions:
REMARK  status: ('A' for Active; 'I' for Inactive)
REMARK    1  A    between atoms: C_2  and  C_3
REMARK    2  A    between atoms: N_15  and  C_16
REMARK                            x       y       z     vdW  Elec       q    Type
REMARK                         _______ _______ _______ _____ _____    ______ ____
ROOT
ATOM      1  C   UNL     1       5.119   3.801  16.105  0.00  0.00    +0.000 C 
ATOM      2  C   UNL     1       4.577   4.583  17.052  0.00  0.00    +0.000 C 
ATOM      3  C   UNL     1       5.005   5.948  17.539  0.00  0.00    +0.000 C 
ATOM      4  C   UNL     1       3.987   6.370  18.620  0.00  0.00    +0.000 C 
ATOM      5  C   UNL     1       3.052   5.203  18.717  0.00  0.00    +0.000 A 
ATOM      6  C   UNL     1       1.957   5.054  19.563  0.00  0.00    +0.000 A 
ATOM      7 CL   UNL     1       1.510   6.286  20.677  0.00  0.00    +0.000 Cl
ATOM      8  C   UNL     1       1.204   3.880  19.510  0.00  0.00    +0.000 A 
ATOM      9  C   UNL     1       1.560   2.877  18.612  0.00  0.00    +0.000 A 
ATOM     10  F   UNL     1       0.839   1.749  18.566  0.00  0.00    +0.000 F 
ATOM     11  C   UNL     1       2.650   3.017  17.762  0.00  0.00    +0.000 A 
ATOM     12  C   UNL     1       3.393   4.190  17.819  0.00  0.00    +0.000 A 
ENDROOT
BRANCH   1  14
ATOM     13  O   UNL     1       7.377   4.520  15.779  0.00  0.00    +0.000 OA
ATOM     14  C   UNL     1       6.341   4.089  15.299  0.00  0.00    +0.000 C 
ATOM     15  N   UNL     1       6.139   3.781  13.962  0.00  0.00    +0.000 N 
ATOM     16  H   UNL     1       5.243   3.414  13.672  0.00  0.00    +0.000 HD
BRANCH  15  17
ATOM     17  C   UNL     1       7.168   3.812  12.970  0.00  0.00    +0.000 C 
ATOM     18  C   UNL     1       6.962   3.074  11.673  0.00  0.00    +0.000 C 
ATOM     19  C   UNL     1       6.973   4.572  11.681  0.00  0.00    +0.000 C 
ENDBRANCH  15  17
ENDBRANCH   1  14
TORSDOF 2
ENDMDL
MODEL 9
REMARK VINA RESULT:      -6.8      5.251      7.719
REMARK  Name = 
REMARK  2 active torsions:
REMARK  status: ('A' for Active; 'I' for Inactive)
REMARK    1  A    between atoms: C_2  and  C_3
REMARK    2  A    between atoms: N_15  and  C_16
REMARK                            x       y       z     vdW  Elec       q    Type
REMARK                         _______ _______ _______ _____ _____    ______ ____
ROOT
ATOM      1  C   UNL     1       1.241   7.711  21.214  0.00  0.00    +0.000 C 
ATOM      2  C   UNL     1       1.834   7.163  20.143  0.00  0.00    +0.000 C 
ATOM      3  C   UNL     1       2.333   7.815  18.874  0.00  0.00    +0.000 C 
ATOM      4  C   UNL     1       2.954   6.693  18.015  0.00  0.00    +0.000 C 
ATOM      5  C   UNL     1       2.740   5.451  18.825  0.00  0.00    +0.000 A 
ATOM      6  C   UNL     1       3.094   4.146  18.497  0.00  0.00    +0.000 A 
ATOM      7 CL   UNL     1       3.881   3.776  17.014  0.00  0.00    +0.000 Cl
ATOM      8  C   UNL     1       2.804   3.113  19.389  0.00  0.00    +0.000 A 
ATOM      9  C   UNL     1       2.165   3.403  20.591  0.00  0.00    +0.000 A 
ATOM     10  F   UNL     1       1.882   2.409  21.444  0.00  0.00    +0.000 F 
ATOM     11  C   UNL     1       1.810   4.703  20.930  0.00  0.00    +0.000 A 
ATOM     12  C   UNL     1       2.105   5.727  20.038  0.00  0.00    +0.000 A 
ENDROOT
BRANCH   1  14
ATOM     13  O   UNL     1       1.487   9.897  22.155  0.00  0.00    +0.000 OA
ATOM     14  C   UNL     1       0.886   9.148  21.401  0.00  0.00    +0.000 C 
ATOM     15  N   UNL     1      -0.185   9.505  20.596  0.00  0.00    +0.000 N 
ATOM     16  H   UNL     1      -0.603   8.808  19.995  0.00  0.00    +0.000 HD
BRANCH  15  17
ATOM     17  C   UNL     1      -0.663  10.844  20.446  0.00  0.00    +0.000 C 
ATOM     18  C   UNL     1      -0.022  11.745  19.422  0.00  0.00    +0.000 C 
ATOM     19  C   UNL     1      -1.424  11.258  19.211  0.00  0.00    +0.000 C 
ENDBRANCH  15  17
ENDBRANCH   1  14
TORSDOF 2
ENDMDL
