MODEL 1
REMARK VINA RESULT:      -7.7      0.000      0.000
REMARK  Name = 
REMARK  15 active torsions:
REMARK  status: ('A' for Active; 'I' for Inactive)
REMARK    1  A    between atoms: C_1  and  C_2
REMARK    2  A    between atoms: C_2  and  N_3
REMARK    3  A    between atoms: C_2  and  C_24
REMARK    4  A    between atoms: N_3  and  C_4
REMARK    5  A    between atoms: C_4  and  C_5
REMARK    6  A    between atoms: C_5  and  C_6
REMARK    7  A    between atoms: C_9  and  N_10
REMARK    8  A    between atoms: N_10  and  C_11
REMARK    9  A    between atoms: N_10  and  C_15
REMARK   10  A    between atoms: C_11  and  C_12
REMARK   11  A    between atoms: C_12  and  O_14
REMARK   12  A    between atoms: C_15  and  C_16
REMARK   13  A    between atoms: C_24  and  O_25
REMARK   14  A    between atoms: C_24  and  C_26
REMARK   15  A    between atoms: C_29  and  O_30
REMARK                            x       y       z     vdW  Elec       q    Type
REMARK                         _______ _______ _______ _____ _____    ______ ____
ROOT
ATOM      1  C   UNL     1       2.850   7.799  18.012  0.00  0.00    +0.000 A 
ATOM      2  C   UNL     1       2.430   9.050  17.553  0.00  0.00    +0.000 A 
ATOM      3  C   UNL     1       1.594   9.852  18.336  0.00  0.00    +0.000 A 
ATOM      4  C   UNL     1       1.086   9.424  19.571  0.00  0.00    +0.000 A 
ATOM      5  C   UNL     1       1.552   8.179  20.030  0.00  0.00    +0.000 A 
ATOM      6  C   UNL     1       2.423   7.381  19.271  0.00  0.00    +0.000 A 
ENDROOT
BRANCH   1   7
ATOM      7  C   UNL     1       3.711   6.909  17.150  0.00  0.00    +0.000 C 
BRANCH   7   8
ATOM      8  C   UNL     1       5.198   6.894  17.549  0.00  0.00    +0.000 C 
BRANCH   8   9
ATOM      9  N   UNL     1       5.500   5.786  18.465  0.00  0.00    +0.000 NA
ATOM     10  H   UNL     1       4.647   5.481  18.933  0.00  0.00    +0.000 HD
BRANCH   9  12
ATOM     11  C   UNL     1       6.993   5.160  16.607  0.00  0.00    +0.000 C 
ATOM     12  C   UNL     1       6.136   4.642  17.774  0.00  0.00    +0.000 C 
BRANCH  12  13
ATOM     13  C   UNL     1       5.086   3.611  17.231  0.00  0.00    +0.000 C 
BRANCH  13  14
ATOM     14  C   UNL     1       3.792   3.400  18.004  0.00  0.00    +0.000 A 
ATOM     15  C   UNL     1       3.872   2.962  19.342  0.00  0.00    +0.000 A 
ATOM     16  C   UNL     1       2.728   2.833  20.136  0.00  0.00    +0.000 A 
ATOM     17  C   UNL     1       1.486   3.132  19.592  0.00  0.00    +0.000 A 
ATOM     18  C   UNL     1       1.371   3.515  18.264  0.00  0.00    +0.000 A 
ATOM     19  C   UNL     1       2.518   3.651  17.476  0.00  0.00    +0.000 A 
BRANCH  17  20
ATOM     20  O   UNL     1       0.346   3.068  20.338  0.00  0.00    +0.000 OA
ATOM     21  H   UNL     1      -0.396   3.366  19.788  0.00  0.00    +0.000 HD
ENDBRANCH  17  20
ENDBRANCH  13  14
BRANCH  13  22
ATOM     22  O   UNL     1       4.765   3.932  15.871  0.00  0.00    +0.000 OA
ATOM     23  H   UNL     1       4.601   4.890  15.872  0.00  0.00    +0.000 HD
ENDBRANCH  13  22
ENDBRANCH  12  13
ENDBRANCH   9  12
ENDBRANCH   8   9
ENDBRANCH   7   8
ENDBRANCH   1   7
BRANCH   4  24
ATOM     24  N   UNL     1       0.119  10.217  20.260  0.00  0.00    +0.000 N 
BRANCH  24  25
ATOM     25  C   UNL     1       0.444  10.461  21.694  0.00  0.00    +0.000 C 
BRANCH  25  26
ATOM     26  C   UNL     1      -0.753  10.446  22.649  0.00  0.00    +0.000 C 
ATOM     27  O   UNL     1      -1.553  11.366  22.752  0.00  0.00    +0.000 OA
BRANCH  26  28
ATOM     28  O   UNL     1      -0.808   9.339  23.421  0.00  0.00    +0.000 OA
ATOM     29  H   UNL     1      -1.550   9.409  24.056  0.00  0.00    +0.000 HD
ENDBRANCH  26  28
ENDBRANCH  25  26
ENDBRANCH  24  25
BRANCH  24  30
ATOM     30  C   UNL     1      -0.347  11.380  19.460  0.00  0.00    +0.000 C 
BRANCH  30  31
ATOM     31  C   UNL     1      -1.755  11.211  18.895  0.00  0.00    +0.000 A 
ATOM     32  C   UNL     1      -2.838  12.050  19.214  0.00  0.00    +0.000 A 
ATOM     33  C   UNL     1      -4.125  11.784  18.736  0.00  0.00    +0.000 A 
ATOM     34  C   UNL     1      -4.350  10.691  17.905  0.00  0.00    +0.000 A 
ATOM     35  C   UNL     1      -3.286   9.864  17.551  0.00  0.00    +0.000 A 
ATOM     36  C   UNL     1      -2.004  10.118  18.046  0.00  0.00    +0.000 A 
ENDBRANCH  30  31
ENDBRANCH  24  30
ENDBRANCH   4  24
TORSDOF 14
ENDMDL
MODEL 2
REMARK VINA RESULT:      -7.6      1.981      3.636
REMARK  Name = 
REMARK  15 active torsions:
REMARK  status: ('A' for Active; 'I' for Inactive)
REMARK    1  A    between atoms: C_1  and  C_2
REMARK    2  A    between atoms: C_2  and  N_3
REMARK    3  A    between atoms: C_2  and  C_24
REMARK    4  A    between atoms: N_3  and  C_4
REMARK    5  A    between atoms: C_4  and  C_5
REMARK    6  A    between atoms: C_5  and  C_6
REMARK    7  A    between atoms: C_9  and  N_10
REMARK    8  A    between atoms: N_10  and  C_11
REMARK    9  A    between atoms: N_10  and  C_15
REMARK   10  A    between atoms: C_11  and  C_12
REMARK   11  A    between atoms: C_12  and  O_14
REMARK   12  A    between atoms: C_15  and  C_16
REMARK   13  A    between atoms: C_24  and  O_25
REMARK   14  A    between atoms: C_24  and  C_26
REMARK   15  A    between atoms: C_29  and  O_30
REMARK                            x       y       z     vdW  Elec       q    Type
REMARK                         _______ _______ _______ _____ _____    ______ ____
ROOT
ATOM      1  C   UNL     1       3.074   6.249  18.882  0.00  0.00    +0.000 A 
ATOM      2  C   UNL     1       2.951   7.354  18.037  0.00  0.00    +0.000 A 
ATOM      3  C   UNL     1       2.214   8.475  18.433  0.00  0.00    +0.000 A 
ATOM      4  C   UNL     1       1.517   8.522  19.649  0.00  0.00    +0.000 A 
ATOM      5  C   UNL     1       1.687   7.415  20.500  0.00  0.00    +0.000 A 
ATOM      6  C   UNL     1       2.456   6.300  20.130  0.00  0.00    +0.000 A 
ENDROOT
BRANCH   1   7
ATOM      7  C   UNL     1       3.826   5.018  18.440  0.00  0.00    +0.000 C 
BRANCH   7   8
ATOM      8  C   UNL     1       5.231   4.883  19.054  0.00  0.00    +0.000 C 
BRANCH   8   9
ATOM      9  N   UNL     1       6.152   4.182  18.149  0.00  0.00    +0.000 NA
ATOM     10  H   UNL     1       5.662   3.917  17.295  0.00  0.00    +0.000 HD
BRANCH   9  12
ATOM     11  C   UNL     1       7.642   5.961  18.976  0.00  0.00    +0.000 C 
ATOM     12  C   UNL     1       7.344   4.994  17.819  0.00  0.00    +0.000 C 
BRANCH  12  13
ATOM     13  C   UNL     1       7.165   5.810  16.491  0.00  0.00    +0.000 C 
BRANCH  13  14
ATOM     14  C   UNL     1       6.668   5.090  15.245  0.00  0.00    +0.000 A 
ATOM     15  C   UNL     1       7.495   5.074  14.103  0.00  0.00    +0.000 A 
ATOM     16  C   UNL     1       7.138   4.358  12.956  0.00  0.00    +0.000 A 
ATOM     17  C   UNL     1       5.939   3.657  12.937  0.00  0.00    +0.000 A 
ATOM     18  C   UNL     1       5.082   3.698  14.027  0.00  0.00    +0.000 A 
ATOM     19  C   UNL     1       5.445   4.409  15.174  0.00  0.00    +0.000 A 
BRANCH  17  20
ATOM     20  O   UNL     1       5.569   2.906  11.862  0.00  0.00    +0.000 OA
ATOM     21  H   UNL     1       6.344   2.407  11.556  0.00  0.00    +0.000 HD
ENDBRANCH  17  20
ENDBRANCH  13  14
BRANCH  13  22
ATOM     22  O   UNL     1       6.320   6.941  16.740  0.00  0.00    +0.000 OA
ATOM     23  H   UNL     1       5.674   6.632  17.397  0.00  0.00    +0.000 HD
ENDBRANCH  13  22
ENDBRANCH  12  13
ENDBRANCH   9  12
ENDBRANCH   8   9
ENDBRANCH   7   8
ENDBRANCH   1   7
BRANCH   4  24
ATOM     24  N   UNL     1       0.660   9.626  19.939  0.00  0.00    +0.000 N 
BRANCH  24  25
ATOM     25  C   UNL     1       0.927  10.274  21.254  0.00  0.00    +0.000 C 
BRANCH  25  26
ATOM     26  C   UNL     1      -0.125  10.018  22.337  0.00  0.00    +0.000 C 
ATOM     27  O   UNL     1      -0.685   8.942  22.501  0.00  0.00    +0.000 OA
BRANCH  26  28
ATOM     28  O   UNL     1      -0.428  11.118  23.060  0.00  0.00    +0.000 OA
ATOM     29  H   UNL     1      -0.096  11.019  23.976  0.00  0.00    +0.000 HD
ENDBRANCH  26  28
ENDBRANCH  25  26
ENDBRANCH  24  25
BRANCH  24  30
ATOM     30  C   UNL     1       0.457  10.521  18.768  0.00  0.00    +0.000 C 
BRANCH  30  31
ATOM     31  C   UNL     1      -1.005  10.674  18.359  0.00  0.00    +0.000 A 
ATOM     32  C   UNL     1      -1.907  11.560  18.974  0.00  0.00    +0.000 A 
ATOM     33  C   UNL     1      -3.258  11.584  18.615  0.00  0.00    +0.000 A 
ATOM     34  C   UNL     1      -3.729  10.744  17.612  0.00  0.00    +0.000 A 
ATOM     35  C   UNL     1      -2.848   9.880  16.966  0.00  0.00    +0.000 A 
ATOM     36  C   UNL     1      -1.501   9.841  17.340  0.00  0.00    +0.000 A 
ENDBRANCH  30  31
ENDBRANCH  24  30
ENDBRANCH   4  24
TORSDOF 14
ENDMDL
MODEL 3
REMARK VINA RESULT:      -7.6      2.627      4.711
REMARK  Name = 
REMARK  15 active torsions:
REMARK  status: ('A' for Active; 'I' for Inactive)
REMARK    1  A    between atoms: C_1  and  C_2
REMARK    2  A    between atoms: C_2  and  N_3
REMARK    3  A    between atoms: C_2  and  C_24
REMARK    4  A    between atoms: N_3  and  C_4
REMARK    5  A    between atoms: C_4  and  C_5
REMARK    6  A    between atoms: C_5  and  C_6
REMARK    7  A    between atoms: C_9  and  N_10
REMARK    8  A    between atoms: N_10  and  C_11
REMARK    9  A    between atoms: N_10  and  C_15
REMARK   10  A    between atoms: C_11  and  C_12
REMARK   11  A    between atoms: C_12  and  O_14
REMARK   12  A    between atoms: C_15  and  C_16
REMARK   13  A    between atoms: C_24  and  O_25
REMARK   14  A    between atoms: C_24  and  C_26
REMARK   15  A    between atoms: C_29  and  O_30
REMARK                            x       y       z     vdW  Elec       q    Type
REMARK                         _______ _______ _______ _____ _____    ______ ____
ROOT
ATOM      1  C   UNL     1       2.152   7.662  19.478  0.00  0.00    +0.000 A 
ATOM      2  C   UNL     1       2.071   8.403  18.297  0.00  0.00    +0.000 A 
ATOM      3  C   UNL     1       1.311   9.575  18.241  0.00  0.00    +0.000 A 
ATOM      4  C   UNL     1       0.548  10.026  19.329  0.00  0.00    +0.000 A 
ATOM      5  C   UNL     1       0.674   9.286  20.519  0.00  0.00    +0.000 A 
ATOM      6  C   UNL     1       1.466   8.129  20.598  0.00  0.00    +0.000 A 
ENDROOT
BRANCH   1   7
ATOM      7  C   UNL     1       2.930   6.371  19.528  0.00  0.00    +0.000 C 
BRANCH   7   8
ATOM      8  C   UNL     1       2.097   5.119  19.196  0.00  0.00    +0.000 C 
BRANCH   8   9
ATOM      9  N   UNL     1       2.202   4.762  17.775  0.00  0.00    +0.000 NA
ATOM     10  H   UNL     1       2.989   5.253  17.352  0.00  0.00    +0.000 HD
BRANCH   9  12
ATOM     11  C   UNL     1       1.596   2.553  18.684  0.00  0.00    +0.000 C 
ATOM     12  C   UNL     1       2.346   3.303  17.570  0.00  0.00    +0.000 C 
BRANCH  12  13
ATOM     13  C   UNL     1       3.846   2.845  17.553  0.00  0.00    +0.000 C 
BRANCH  13  14
ATOM     14  C   UNL     1       4.930   3.882  17.296  0.00  0.00    +0.000 A 
ATOM     15  C   UNL     1       5.114   4.351  15.980  0.00  0.00    +0.000 A 
ATOM     16  C   UNL     1       6.032   5.366  15.689  0.00  0.00    +0.000 A 
ATOM     17  C   UNL     1       6.785   5.916  16.718  0.00  0.00    +0.000 A 
ATOM     18  C   UNL     1       6.663   5.439  18.015  0.00  0.00    +0.000 A 
ATOM     19  C   UNL     1       5.739   4.430  18.302  0.00  0.00    +0.000 A 
BRANCH  17  20
ATOM     20  O   UNL     1       7.658   6.939  16.495  0.00  0.00    +0.000 OA
ATOM     21  H   UNL     1       7.306   7.739  16.920  0.00  0.00    +0.000 HD
ENDBRANCH  17  20
ENDBRANCH  13  14
BRANCH  13  22
ATOM     22  O   UNL     1       4.146   2.155  18.773  0.00  0.00    +0.000 OA
ATOM     23  H   UNL     1       5.115   2.177  18.843  0.00  0.00    +0.000 HD
ENDBRANCH  13  22
ENDBRANCH  12  13
ENDBRANCH   9  12
ENDBRANCH   8   9
ENDBRANCH   7   8
ENDBRANCH   1   7
BRANCH   4  24
ATOM     24  N   UNL     1      -0.328  11.143  19.175  0.00  0.00    +0.000 N 
BRANCH  24  25
ATOM     25  C   UNL     1      -1.716  10.777  18.774  0.00  0.00    +0.000 C 
BRANCH  25  26
ATOM     26  C   UNL     1      -2.307  11.605  17.630  0.00  0.00    +0.000 C 
ATOM     27  O   UNL     1      -3.469  11.517  17.256  0.00  0.00    +0.000 OA
BRANCH  26  28
ATOM     28  O   UNL     1      -1.402  12.403  17.023  0.00  0.00    +0.000 OA
ATOM     29  H   UNL     1      -1.631  13.344  17.172  0.00  0.00    +0.000 HD
ENDBRANCH  26  28
ENDBRANCH  25  26
ENDBRANCH  24  25
BRANCH  24  30
ATOM     30  C   UNL     1      -0.174  12.148  20.261  0.00  0.00    +0.000 C 
BRANCH  30  31
ATOM     31  C   UNL     1       0.794  13.277  19.919  0.00  0.00    +0.000 A 
ATOM     32  C   UNL     1       0.447  14.412  19.165  0.00  0.00    +0.000 A 
ATOM     33  C   UNL     1       1.406  15.365  18.807  0.00  0.00    +0.000 A 
ATOM     34  C   UNL     1       2.725  15.218  19.222  0.00  0.00    +0.000 A 
ATOM     35  C   UNL     1       3.086  14.118  19.996  0.00  0.00    +0.000 A 
ATOM     36  C   UNL     1       2.131  13.154  20.337  0.00  0.00    +0.000 A 
ENDBRANCH  30  31
ENDBRANCH  24  30
ENDBRANCH   4  24
TORSDOF 14
ENDMDL
MODEL 4
REMARK VINA RESULT:      -7.5      2.259      3.837
REMARK  Name = 
REMARK  15 active torsions:
REMARK  status: ('A' for Active; 'I' for Inactive)
REMARK    1  A    between atoms: C_1  and  C_2
REMARK    2  A    between atoms: C_2  and  N_3
REMARK    3  A    between atoms: C_2  and  C_24
REMARK    4  A    between atoms: N_3  and  C_4
REMARK    5  A    between atoms: C_4  and  C_5
REMARK    6  A    between atoms: C_5  and  C_6
REMARK    7  A    between atoms: C_9  and  N_10
REMARK    8  A    between atoms: N_10  and  C_11
REMARK    9  A    between atoms: N_10  and  C_15
REMARK   10  A    between atoms: C_11  and  C_12
REMARK   11  A    between atoms: C_12  and  O_14
REMARK   12  A    between atoms: C_15  and  C_16
REMARK   13  A    between atoms: C_24  and  O_25
REMARK   14  A    between atoms: C_24  and  C_26
REMARK   15  A    between atoms: C_29  and  O_30
REMARK                            x       y       z     vdW  Elec       q    Type
REMARK                         _______ _______ _______ _____ _____    ______ ____
ROOT
ATOM      1  C   UNL     1       2.082   7.546  19.664  0.00  0.00    +0.000 A 
ATOM      2  C   UNL     1       2.090   8.382  18.546  0.00  0.00    +0.000 A 
ATOM      3  C   UNL     1       1.433   9.616  18.574  0.00  0.00    +0.000 A 
ATOM      4  C   UNL     1       0.687  10.043  19.683  0.00  0.00    +0.000 A 
ATOM      5  C   UNL     1       0.725   9.203  20.811  0.00  0.00    +0.000 A 
ATOM      6  C   UNL     1       1.413   7.979  20.808  0.00  0.00    +0.000 A 
ENDROOT
BRANCH   1   7
ATOM      7  C   UNL     1       2.747   6.193  19.622  0.00  0.00    +0.000 C 
BRANCH   7   8
ATOM      8  C   UNL     1       1.819   5.022  19.998  0.00  0.00    +0.000 C 
BRANCH   8   9
ATOM      9  N   UNL     1       1.894   3.936  19.012  0.00  0.00    +0.000 NA
ATOM     10  H   UNL     1       2.371   4.262  18.172  0.00  0.00    +0.000 HD
BRANCH   9  12
ATOM     11  C   UNL     1       2.756   2.884  21.068  0.00  0.00    +0.000 C 
ATOM     12  C   UNL     1       2.576   2.736  19.548  0.00  0.00    +0.000 C 
BRANCH  12  13
ATOM     13  C   UNL     1       3.975   2.493  18.880  0.00  0.00    +0.000 C 
BRANCH  13  14
ATOM     14  C   UNL     1       4.713   3.673  18.265  0.00  0.00    +0.000 A 
ATOM     15  C   UNL     1       4.440   4.013  16.925  0.00  0.00    +0.000 A 
ATOM     16  C   UNL     1       5.016   5.138  16.326  0.00  0.00    +0.000 A 
ATOM     17  C   UNL     1       5.885   5.930  17.064  0.00  0.00    +0.000 A 
ATOM     18  C   UNL     1       6.213   5.592  18.369  0.00  0.00    +0.000 A 
ATOM     19  C   UNL     1       5.628   4.471  18.966  0.00  0.00    +0.000 A 
BRANCH  17  20
ATOM     20  O   UNL     1       6.436   7.063  16.542  0.00  0.00    +0.000 OA
ATOM     21  H   UNL     1       5.748   7.749  16.507  0.00  0.00    +0.000 HD
ENDBRANCH  17  20
ENDBRANCH  13  14
BRANCH  13  22
ATOM     22  O   UNL     1       4.842   1.843  19.818  0.00  0.00    +0.000 OA
ATOM     23  H   UNL     1       4.522   2.125  20.692  0.00  0.00    +0.000 HD
ENDBRANCH  13  22
ENDBRANCH  12  13
ENDBRANCH   9  12
ENDBRANCH   8   9
ENDBRANCH   7   8
ENDBRANCH   1   7
BRANCH   4  24
ATOM     24  N   UNL     1      -0.087  11.240  19.607  0.00  0.00    +0.000 N 
BRANCH  24  25
ATOM     25  C   UNL     1       0.344  12.176  18.530  0.00  0.00    +0.000 C 
BRANCH  25  26
ATOM     26  C   UNL     1       0.152  13.663  18.839  0.00  0.00    +0.000 C 
ATOM     27  O   UNL     1       0.812  14.277  19.667  0.00  0.00    +0.000 OA
BRANCH  26  28
ATOM     28  O   UNL     1      -0.864  14.226  18.151  0.00  0.00    +0.000 OA
ATOM     29  H   UNL     1      -1.441  14.733  18.758  0.00  0.00    +0.000 HD
ENDBRANCH  26  28
ENDBRANCH  25  26
ENDBRANCH  24  25
BRANCH  24  30
ATOM     30  C   UNL     1      -1.547  10.991  19.748  0.00  0.00    +0.000 C 
BRANCH  30  31
ATOM     31  C   UNL     1      -2.269  10.802  18.417  0.00  0.00    +0.000 A 
ATOM     32  C   UNL     1      -1.869   9.888  17.426  0.00  0.00    +0.000 A 
ATOM     33  C   UNL     1      -2.518   9.831  16.189  0.00  0.00    +0.000 A 
ATOM     34  C   UNL     1      -3.599  10.666  15.928  0.00  0.00    +0.000 A 
ATOM     35  C   UNL     1      -4.033  11.558  16.906  0.00  0.00    +0.000 A 
ATOM     36  C   UNL     1      -3.371  11.630  18.135  0.00  0.00    +0.000 A 
ENDBRANCH  30  31
ENDBRANCH  24  30
ENDBRANCH   4  24
TORSDOF 14
ENDMDL
MODEL 5
REMARK VINA RESULT:      -7.4      2.446      4.341
REMARK  Name = 
REMARK  15 active torsions:
REMARK  status: ('A' for Active; 'I' for Inactive)
REMARK    1  A    between atoms: C_1  and  C_2
REMARK    2  A    between atoms: C_2  and  N_3
REMARK    3  A    between atoms: C_2  and  C_24
REMARK    4  A    between atoms: N_3  and  C_4
REMARK    5  A    between atoms: C_4  and  C_5
REMARK    6  A    between atoms: C_5  and  C_6
REMARK    7  A    between atoms: C_9  and  N_10
REMARK    8  A    between atoms: N_10  and  C_11
REMARK    9  A    between atoms: N_10  and  C_15
REMARK   10  A    between atoms: C_11  and  C_12
REMARK   11  A    between atoms: C_12  and  O_14
REMARK   12  A    between atoms: C_15  and  C_16
REMARK   13  A    between atoms: C_24  and  O_25
REMARK   14  A    between atoms: C_24  and  C_26
REMARK   15  A    between atoms: C_29  and  O_30
REMARK                            x       y       z     vdW  Elec       q    Type
REMARK                         _______ _______ _______ _____ _____    ______ ____
ROOT
ATOM      1  C   UNL     1       2.563   7.398  19.253  0.00  0.00    +0.000 A 
ATOM      2  C   UNL     1       2.508   8.134  18.068  0.00  0.00    +0.000 A 
ATOM      3  C   UNL     1       1.702   9.273  17.973  0.00  0.00    +0.000 A 
ATOM      4  C   UNL     1       0.869   9.691  19.021  0.00  0.00    +0.000 A 
ATOM      5  C   UNL     1       0.969   8.957  20.218  0.00  0.00    +0.000 A 
ATOM      6  C   UNL     1       1.804   7.835  20.338  0.00  0.00    +0.000 A 
ENDROOT
BRANCH   1   7
ATOM      7  C   UNL     1       3.392   6.141  19.344  0.00  0.00    +0.000 C 
BRANCH   7   8
ATOM      8  C   UNL     1       2.662   4.869  18.873  0.00  0.00    +0.000 C 
BRANCH   8   9
ATOM      9  N   UNL     1       2.855   4.636  17.436  0.00  0.00    +0.000 NA
ATOM     10  H   UNL     1       3.181   5.492  16.987  0.00  0.00    +0.000 HD
BRANCH   9  12
ATOM     11  C   UNL     1       4.273   2.923  18.499  0.00  0.00    +0.000 C 
ATOM     12  C   UNL     1       3.802   3.530  17.167  0.00  0.00    +0.000 C 
BRANCH  12  13
ATOM     13  C   UNL     1       5.050   3.998  16.339  0.00  0.00    +0.000 C 
BRANCH  13  14
ATOM     14  C   UNL     1       6.047   4.950  16.983  0.00  0.00    +0.000 A 
ATOM     15  C   UNL     1       5.946   6.326  16.694  0.00  0.00    +0.000 A 
ATOM     16  C   UNL     1       6.773   7.265  17.319  0.00  0.00    +0.000 A 
ATOM     17  C   UNL     1       7.722   6.831  18.236  0.00  0.00    +0.000 A 
ATOM     18  C   UNL     1       7.879   5.479  18.501  0.00  0.00    +0.000 A 
ATOM     19  C   UNL     1       7.045   4.544  17.880  0.00  0.00    +0.000 A 
BRANCH  17  20
ATOM     20  O   UNL     1       8.519   7.710  18.907  0.00  0.00    +0.000 OA
ATOM     21  H   UNL     1       9.376   7.754  18.452  0.00  0.00    +0.000 HD
ENDBRANCH  17  20
ENDBRANCH  13  14
BRANCH  13  22
ATOM     22  O   UNL     1       5.755   2.848  15.855  0.00  0.00    +0.000 OA
ATOM     23  H   UNL     1       6.208   2.485  16.634  0.00  0.00    +0.000 HD
ENDBRANCH  13  22
ENDBRANCH  12  13
ENDBRANCH   9  12
ENDBRANCH   8   9
ENDBRANCH   7   8
ENDBRANCH   1   7
BRANCH   4  24
ATOM     24  N   UNL     1      -0.045  10.770  18.822  0.00  0.00    +0.000 N 
BRANCH  24  25
ATOM     25  C   UNL     1      -1.464  10.344  18.668  0.00  0.00    +0.000 C 
BRANCH  25  26
ATOM     26  C   UNL     1      -2.138  10.768  17.360  0.00  0.00    +0.000 C 
ATOM     27  O   UNL     1      -2.179  10.068  16.357  0.00  0.00    +0.000 OA
BRANCH  26  28
ATOM     28  O   UNL     1      -2.632  12.025  17.396  0.00  0.00    +0.000 OA
ATOM     29  H   UNL     1      -2.028  12.609  17.898  0.00  0.00    +0.000 HD
ENDBRANCH  26  28
ENDBRANCH  25  26
ENDBRANCH  24  25
BRANCH  24  30
ATOM     30  C   UNL     1       0.227  11.926  19.719  0.00  0.00    +0.000 C 
BRANCH  30  31
ATOM     31  C   UNL     1      -0.719  12.010  20.914  0.00  0.00    +0.000 A 
ATOM     32  C   UNL     1      -0.561  11.268  22.098  0.00  0.00    +0.000 A 
ATOM     33  C   UNL     1      -1.515  11.321  23.118  0.00  0.00    +0.000 A 
ATOM     34  C   UNL     1      -2.632  12.139  22.988  0.00  0.00    +0.000 A 
ATOM     35  C   UNL     1      -2.794  12.907  21.837  0.00  0.00    +0.000 A 
ATOM     36  C   UNL     1      -1.851  12.838  20.808  0.00  0.00    +0.000 A 
ENDBRANCH  30  31
ENDBRANCH  24  30
ENDBRANCH   4  24
TORSDOF 14
ENDMDL
MODEL 6
REMARK VINA RESULT:      -7.4      1.621      3.433
REMARK  Name = 
REMARK  15 active torsions:
REMARK  status: ('A' for Active; 'I' for Inactive)
REMARK    1  A    between atoms: C_1  and  C_2
REMARK    2  A    between atoms: C_2  and  N_3
REMARK    3  A    between atoms: C_2  and  C_24
REMARK    4  A    between atoms: N_3  and  C_4
REMARK    5  A    between atoms: C_4  and  C_5
REMARK    6  A    between atoms: C_5  and  C_6
REMARK    7  A    between atoms: C_9  and  N_10
REMARK    8  A    between atoms: N_10  and  C_11
REMARK    9  A    between atoms: N_10  and  C_15
REMARK   10  A    between atoms: C_11  and  C_12
REMARK   11  A    between atoms: C_12  and  O_14
REMARK   12  A    between atoms: C_15  and  C_16
REMARK   13  A    between atoms: C_24  and  O_25
REMARK   14  A    between atoms: C_24  and  C_26
REMARK   15  A    between atoms: C_29  and  O_30
REMARK                            x       y       z     vdW  Elec       q    Type
REMARK                         _______ _______ _______ _____ _____    ______ ____
ROOT
ATOM      1  C   UNL     1       2.172   7.695  19.176  0.00  0.00    +0.000 A 
ATOM      2  C   UNL     1       1.596   7.945  20.424  0.00  0.00    +0.000 A 
ATOM      3  C   UNL     1       0.780   9.063  20.621  0.00  0.00    +0.000 A 
ATOM      4  C   UNL     1       0.553  10.013  19.614  0.00  0.00    +0.000 A 
ATOM      5  C   UNL     1       1.112   9.721  18.356  0.00  0.00    +0.000 A 
ATOM      6  C   UNL     1       1.901   8.582  18.135  0.00  0.00    +0.000 A 
ENDROOT
BRANCH   1   7
ATOM      7  C   UNL     1       3.094   6.519  18.972  0.00  0.00    +0.000 C 
BRANCH   7   8
ATOM      8  C   UNL     1       2.407   5.148  19.116  0.00  0.00    +0.000 C 
BRANCH   8   9
ATOM      9  N   UNL     1       2.106   4.555  17.806  0.00  0.00    +0.000 NA
ATOM     10  H   UNL     1       2.698   4.976  17.091  0.00  0.00    +0.000 HD
BRANCH   9  12
ATOM     11  C   UNL     1       1.627   2.491  19.065  0.00  0.00    +0.000 C 
ATOM     12  C   UNL     1       2.273   3.084  17.802  0.00  0.00    +0.000 C 
BRANCH  12  13
ATOM     13  C   UNL     1       3.780   2.652  17.737  0.00  0.00    +0.000 C 
BRANCH  13  14
ATOM     14  C   UNL     1       4.776   3.559  17.029  0.00  0.00    +0.000 A 
ATOM     15  C   UNL     1       5.788   4.174  17.794  0.00  0.00    +0.000 A 
ATOM     16  C   UNL     1       6.786   4.949  17.194  0.00  0.00    +0.000 A 
ATOM     17  C   UNL     1       6.774   5.125  15.817  0.00  0.00    +0.000 A 
ATOM     18  C   UNL     1       5.762   4.575  15.044  0.00  0.00    +0.000 A 
ATOM     19  C   UNL     1       4.770   3.796  15.647  0.00  0.00    +0.000 A 
BRANCH  17  20
ATOM     20  O   UNL     1       7.751   5.831  15.179  0.00  0.00    +0.000 OA
ATOM     21  H   UNL     1       8.101   5.284  14.457  0.00  0.00    +0.000 HD
ENDBRANCH  17  20
ENDBRANCH  13  14
BRANCH  13  22
ATOM     22  O   UNL     1       4.256   2.389  19.063  0.00  0.00    +0.000 OA
ATOM     23  H   UNL     1       5.224   2.427  18.995  0.00  0.00    +0.000 HD
ENDBRANCH  13  22
ENDBRANCH  12  13
ENDBRANCH   9  12
ENDBRANCH   8   9
ENDBRANCH   7   8
ENDBRANCH   1   7
BRANCH   4  24
ATOM     24  N   UNL     1      -0.164  11.211  19.909  0.00  0.00    +0.000 N 
BRANCH  24  25
ATOM     25  C   UNL     1       0.420  12.011  21.022  0.00  0.00    +0.000 C 
BRANCH  25  26
ATOM     26  C   UNL     1      -0.468  12.158  22.261  0.00  0.00    +0.000 C 
ATOM     27  O   UNL     1      -0.562  11.307  23.135  0.00  0.00    +0.000 OA
BRANCH  26  28
ATOM     28  O   UNL     1      -1.194  13.296  22.267  0.00  0.00    +0.000 OA
ATOM     29  H   UNL     1      -1.795  13.316  21.494  0.00  0.00    +0.000 HD
ENDBRANCH  26  28
ENDBRANCH  25  26
ENDBRANCH  24  25
BRANCH  24  30
ATOM     30  C   UNL     1      -0.580  11.948  18.686  0.00  0.00    +0.000 C 
BRANCH  30  31
ATOM     31  C   UNL     1      -2.015  11.659  18.254  0.00  0.00    +0.000 A 
ATOM     32  C   UNL     1      -3.152  12.078  18.967  0.00  0.00    +0.000 A 
ATOM     33  C   UNL     1      -4.438  11.699  18.567  0.00  0.00    +0.000 A 
ATOM     34  C   UNL     1      -4.614  10.918  17.430  0.00  0.00    +0.000 A 
ATOM     35  C   UNL     1      -3.504  10.517  16.690  0.00  0.00    +0.000 A 
ATOM     36  C   UNL     1      -2.218  10.879  17.101  0.00  0.00    +0.000 A 
ENDBRANCH  30  31
ENDBRANCH  24  30
ENDBRANCH   4  24
TORSDOF 14
ENDMDL
MODEL 7
REMARK VINA RESULT:      -7.4      2.121      9.252
REMARK  Name = 
REMARK  15 active torsions:
REMARK  status: ('A' for Active; 'I' for Inactive)
REMARK    1  A    between atoms: C_1  and  C_2
REMARK    2  A    between atoms: C_2  and  N_3
REMARK    3  A    between atoms: C_2  and  C_24
REMARK    4  A    between atoms: N_3  and  C_4
REMARK    5  A    between atoms: C_4  and  C_5
REMARK    6  A    between atoms: C_5  and  C_6
REMARK    7  A    between atoms: C_9  and  N_10
REMARK    8  A    between atoms: N_10  and  C_11
REMARK    9  A    between atoms: N_10  and  C_15
REMARK   10  A    between atoms: C_11  and  C_12
REMARK   11  A    between atoms: C_12  and  O_14
REMARK   12  A    between atoms: C_15  and  C_16
REMARK   13  A    between atoms: C_24  and  O_25
REMARK   14  A    between atoms: C_24  and  C_26
REMARK   15  A    between atoms: C_29  and  O_30
REMARK                            x       y       z     vdW  Elec       q    Type
REMARK                         _______ _______ _______ _____ _____    ______ ____
ROOT
ATOM      1  C   UNL     1       1.595   8.368  19.709  0.00  0.00    +0.000 A 
ATOM      2  C   UNL     1       1.491   7.368  20.678  0.00  0.00    +0.000 A 
ATOM      3  C   UNL     1       2.029   6.097  20.451  0.00  0.00    +0.000 A 
ATOM      4  C   UNL     1       2.631   5.744  19.234  0.00  0.00    +0.000 A 
ATOM      5  C   UNL     1       2.758   6.778  18.288  0.00  0.00    +0.000 A 
ATOM      6  C   UNL     1       2.257   8.069  18.519  0.00  0.00    +0.000 A 
ENDROOT
BRANCH   1   7
ATOM      7  C   UNL     1       0.973   9.725  19.929  0.00  0.00    +0.000 C 
BRANCH   7   8
ATOM      8  C   UNL     1       1.110  10.683  18.731  0.00  0.00    +0.000 C 
BRANCH   8   9
ATOM      9  N   UNL     1       0.009  10.512  17.774  0.00  0.00    +0.000 NA
ATOM     10  H   UNL     1       0.092   9.608  17.309  0.00  0.00    +0.000 HD
BRANCH   9  12
ATOM     11  C   UNL     1      -2.368   9.896  17.567  0.00  0.00    +0.000 C 
ATOM     12  C   UNL     1      -1.319  10.633  18.416  0.00  0.00    +0.000 C 
BRANCH  12  13
ATOM     13  C   UNL     1      -1.759  12.127  18.606  0.00  0.00    +0.000 C 
BRANCH  13  14
ATOM     14  C   UNL     1      -1.498  12.807  19.942  0.00  0.00    +0.000 A 
ATOM     15  C   UNL     1      -2.237  12.388  21.067  0.00  0.00    +0.000 A 
ATOM     16  C   UNL     1      -1.985  12.909  22.339  0.00  0.00    +0.000 A 
ATOM     17  C   UNL     1      -0.994  13.869  22.497  0.00  0.00    +0.000 A 
ATOM     18  C   UNL     1      -0.286  14.339  21.401  0.00  0.00    +0.000 A 
ATOM     19  C   UNL     1      -0.535  13.809  20.131  0.00  0.00    +0.000 A 
BRANCH  17  20
ATOM     20  O   UNL     1      -0.678  14.374  23.724  0.00  0.00    +0.000 OA
ATOM     21  H   UNL     1      -0.893  13.704  24.394  0.00  0.00    +0.000 HD
ENDBRANCH  17  20
ENDBRANCH  13  14
BRANCH  13  22
ATOM     22  O   UNL     1      -1.191  12.925  17.560  0.00  0.00    +0.000 OA
ATOM     23  H   UNL     1      -0.394  12.444  17.282  0.00  0.00    +0.000 HD
ENDBRANCH  13  22
ENDBRANCH  12  13
ENDBRANCH   9  12
ENDBRANCH   8   9
ENDBRANCH   7   8
ENDBRANCH   1   7
BRANCH   4  24
ATOM     24  N   UNL     1       3.029   4.394  18.998  0.00  0.00    +0.000 N 
BRANCH  24  25
ATOM     25  C   UNL     1       2.242   3.385  19.762  0.00  0.00    +0.000 C 
BRANCH  25  26
ATOM     26  C   UNL     1       3.006   2.665  20.876  0.00  0.00    +0.000 C 
ATOM     27  O   UNL     1       4.121   2.181  20.734  0.00  0.00    +0.000 OA
BRANCH  26  28
ATOM     28  O   UNL     1       2.303   2.555  22.024  0.00  0.00    +0.000 OA
ATOM     29  H   UNL     1       1.988   1.635  22.138  0.00  0.00    +0.000 HD
ENDBRANCH  26  28
ENDBRANCH  25  26
ENDBRANCH  24  25
BRANCH  24  30
ATOM     30  C   UNL     1       3.282   4.112  17.559  0.00  0.00    +0.000 C 
BRANCH  30  31
ATOM     31  C   UNL     1       4.749   4.239  17.159  0.00  0.00    +0.000 A 
ATOM     32  C   UNL     1       5.800   4.449  18.070  0.00  0.00    +0.000 A 
ATOM     33  C   UNL     1       7.111   4.650  17.629  0.00  0.00    +0.000 A 
ATOM     34  C   UNL     1       7.404   4.615  16.270  0.00  0.00    +0.000 A 
ATOM     35  C   UNL     1       6.386   4.378  15.351  0.00  0.00    +0.000 A 
ATOM     36  C   UNL     1       5.070   4.197  15.790  0.00  0.00    +0.000 A 
ENDBRANCH  30  31
ENDBRANCH  24  30
ENDBRANCH   4  24
TORSDOF 14
ENDMDL
MODEL 8
REMARK VINA RESULT:      -7.4      2.673      4.570
REMARK  Name = 
REMARK  15 active torsions:
REMARK  status: ('A' for Active; 'I' for Inactive)
REMARK    1  A    between atoms: C_1  and  C_2
REMARK    2  A    between atoms: C_2  and  N_3
REMARK    3  A    between atoms: C_2  and  C_24
REMARK    4  A    between atoms: N_3  and  C_4
REMARK    5  A    between atoms: C_4  and  C_5
REMARK    6  A    between atoms: C_5  and  C_6
REMARK    7  A    between atoms: C_9  and  N_10
REMARK    8  A    between atoms: N_10  and  C_11
REMARK    9  A    between atoms: N_10  and  C_15
REMARK   10  A    between atoms: C_11  and  C_12
REMARK   11  A    between atoms: C_12  and  O_14
REMARK   12  A    between atoms: C_15  and  C_16
REMARK   13  A    between atoms: C_24  and  O_25
REMARK   14  A    between atoms: C_24  and  C_26
REMARK   15  A    between atoms: C_29  and  O_30
REMARK                            x       y       z     vdW  Elec       q    Type
REMARK                         _______ _______ _______ _____ _____    ______ ____
ROOT
ATOM      1  C   UNL     1       2.120   7.096  20.010  0.00  0.00    +0.000 A 
ATOM      2  C   UNL     1       2.328   7.639  18.740  0.00  0.00    +0.000 A 
ATOM      3  C   UNL     1       1.793   8.886  18.402  0.00  0.00    +0.000 A 
ATOM      4  C   UNL     1       0.977   9.614  19.280  0.00  0.00    +0.000 A 
ATOM      5  C   UNL     1       0.812   9.067  20.565  0.00  0.00    +0.000 A 
ATOM      6  C   UNL     1       1.377   7.834  20.930  0.00  0.00    +0.000 A 
ENDROOT
BRANCH   1   7
ATOM      7  C   UNL     1       2.653   5.730  20.363  0.00  0.00    +0.000 C 
BRANCH   7   8
ATOM      8  C   UNL     1       1.575   4.631  20.427  0.00  0.00    +0.000 C 
BRANCH   8   9
ATOM      9  N   UNL     1       1.677   3.707  19.290  0.00  0.00    +0.000 NA
ATOM     10  H   UNL     1       2.094   4.186  18.491  0.00  0.00    +0.000 HD
BRANCH   9  12
ATOM     11  C   UNL     1       2.823   2.506  21.111  0.00  0.00    +0.000 C 
ATOM     12  C   UNL     1       2.459   2.494  19.618  0.00  0.00    +0.000 C 
BRANCH  12  13
ATOM     13  C   UNL     1       3.771   2.377  18.764  0.00  0.00    +0.000 C 
BRANCH  13  14
ATOM     14  C   UNL     1       4.414   3.647  18.225  0.00  0.00    +0.000 A 
ATOM     15  C   UNL     1       5.387   4.294  19.013  0.00  0.00    +0.000 A 
ATOM     16  C   UNL     1       6.080   5.414  18.541  0.00  0.00    +0.000 A 
ATOM     17  C   UNL     1       5.794   5.905  17.274  0.00  0.00    +0.000 A 
ATOM     18  C   UNL     1       4.806   5.321  16.497  0.00  0.00    +0.000 A 
ATOM     19  C   UNL     1       4.121   4.197  16.969  0.00  0.00    +0.000 A 
BRANCH  17  20
ATOM     20  O   UNL     1       6.475   6.965  16.750  0.00  0.00    +0.000 OA
ATOM     21  H   UNL     1       6.151   7.119  15.847  0.00  0.00    +0.000 HD
ENDBRANCH  17  20
ENDBRANCH  13  14
BRANCH  13  22
ATOM     22  O   UNL     1       4.752   1.638  19.501  0.00  0.00    +0.000 OA
ATOM     23  H   UNL     1       5.457   1.447  18.860  0.00  0.00    +0.000 HD
ENDBRANCH  13  22
ENDBRANCH  12  13
ENDBRANCH   9  12
ENDBRANCH   8   9
ENDBRANCH   7   8
ENDBRANCH   1   7
BRANCH   4  24
ATOM     24  N   UNL     1       0.333  10.809  18.834  0.00  0.00    +0.000 N 
BRANCH  24  25
ATOM     25  C   UNL     1      -0.930  10.574  18.080  0.00  0.00    +0.000 C 
BRANCH  25  26
ATOM     26  C   UNL     1      -1.825  11.803  17.901  0.00  0.00    +0.000 C 
ATOM     27  O   UNL     1      -2.930  11.921  18.416  0.00  0.00    +0.000 OA
BRANCH  26  28
ATOM     28  O   UNL     1      -1.306  12.726  17.064  0.00  0.00    +0.000 OA
ATOM     29  H   UNL     1      -1.908  12.867  16.304  0.00  0.00    +0.000 HD
ENDBRANCH  26  28
ENDBRANCH  25  26
ENDBRANCH  24  25
BRANCH  24  30
ATOM     30  C   UNL     1       0.320  11.876  19.870  0.00  0.00    +0.000 C 
BRANCH  30  31
ATOM     31  C   UNL     1       1.255  13.042  19.562  0.00  0.00    +0.000 A 
ATOM     32  C   UNL     1       1.313  14.227  20.316  0.00  0.00    +0.000 A 
ATOM     33  C   UNL     1       2.125  15.296  19.925  0.00  0.00    +0.000 A 
ATOM     34  C   UNL     1       2.918  15.190  18.788  0.00  0.00    +0.000 A 
ATOM     35  C   UNL     1       2.901  14.014  18.042  0.00  0.00    +0.000 A 
ATOM     36  C   UNL     1       2.073  12.953  18.421  0.00  0.00    +0.000 A 
ENDBRANCH  30  31
ENDBRANCH  24  30
ENDBRANCH   4  24
TORSDOF 14
ENDMDL
MODEL 9
REMARK VINA RESULT:      -7.3      2.332      9.324
REMARK  Name = 
REMARK  15 active torsions:
REMARK  status: ('A' for Active; 'I' for Inactive)
REMARK    1  A    between atoms: C_1  and  C_2
REMARK    2  A    between atoms: C_2  and  N_3
REMARK    3  A    between atoms: C_2  and  C_24
REMARK    4  A    between atoms: N_3  and  C_4
REMARK    5  A    between atoms: C_4  and  C_5
REMARK    6  A    between atoms: C_5  and  C_6
REMARK    7  A    between atoms: C_9  and  N_10
REMARK    8  A    between atoms: N_10  and  C_11
REMARK    9  A    between atoms: N_10  and  C_15
REMARK   10  A    between atoms: C_11  and  C_12
REMARK   11  A    between atoms: C_12  and  O_14
REMARK   12  A    between atoms: C_15  and  C_16
REMARK   13  A    between atoms: C_24  and  O_25
REMARK   14  A    between atoms: C_24  and  C_26
REMARK   15  A    between atoms: C_29  and  O_30
REMARK                            x       y       z     vdW  Elec       q    Type
REMARK                         _______ _______ _______ _____ _____    ______ ____
ROOT
ATOM      1  C   UNL     1       1.682   8.154  19.381  0.00  0.00    +0.000 A 
ATOM      2  C   UNL     1       2.150   7.979  18.077  0.00  0.00    +0.000 A 
ATOM      3  C   UNL     1       2.790   6.793  17.703  0.00  0.00    +0.000 A 
ATOM      4  C   UNL     1       3.053   5.762  18.617  0.00  0.00    +0.000 A 
ATOM      5  C   UNL     1       2.540   5.944  19.914  0.00  0.00    +0.000 A 
ATOM      6  C   UNL     1       1.861   7.113  20.292  0.00  0.00    +0.000 A 
ENDROOT
BRANCH   1   7
ATOM      7  C   UNL     1       1.036   9.450  19.803  0.00  0.00    +0.000 C 
BRANCH   7   8
ATOM      8  C   UNL     1       0.967  10.511  18.688  0.00  0.00    +0.000 C 
BRANCH   8   9
ATOM      9  N   UNL     1      -0.155  10.262  17.774  0.00  0.00    +0.000 NA
ATOM     10  H   UNL     1      -0.115   9.303  17.430  0.00  0.00    +0.000 HD
BRANCH   9  12
ATOM     11  C   UNL     1      -2.572   9.810  17.609  0.00  0.00    +0.000 C 
ATOM     12  C   UNL     1      -1.467  10.519  18.410  0.00  0.00    +0.000 C 
BRANCH  12  13
ATOM     13  C   UNL     1      -1.796  12.050  18.508  0.00  0.00    +0.000 C 
BRANCH  13  14
ATOM     14  C   UNL     1      -1.451  12.797  19.788  0.00  0.00    +0.000 A 
ATOM     15  C   UNL     1      -1.705  12.167  21.023  0.00  0.00    +0.000 A 
ATOM     16  C   UNL     1      -1.332  12.760  22.234  0.00  0.00    +0.000 A 
ATOM     17  C   UNL     1      -0.709  14.001  22.219  0.00  0.00    +0.000 A 
ATOM     18  C   UNL     1      -0.493  14.667  21.023  0.00  0.00    +0.000 A 
ATOM     19  C   UNL     1      -0.860  14.068  19.814  0.00  0.00    +0.000 A 
BRANCH  17  20
ATOM     20  O   UNL     1      -0.283  14.599  23.369  0.00  0.00    +0.000 OA
ATOM     21  H   UNL     1      -0.755  14.195  24.116  0.00  0.00    +0.000 HD
ENDBRANCH  17  20
ENDBRANCH  13  14
BRANCH  13  22
ATOM     22  O   UNL     1      -1.202  12.735  17.398  0.00  0.00    +0.000 OA
ATOM     23  H   UNL     1      -1.375  13.677  17.562  0.00  0.00    +0.000 HD
ENDBRANCH  13  22
ENDBRANCH  12  13
ENDBRANCH   9  12
ENDBRANCH   8   9
ENDBRANCH   7   8
ENDBRANCH   1   7
BRANCH   4  24
ATOM     24  N   UNL     1       3.841   4.639  18.222  0.00  0.00    +0.000 N 
BRANCH  24  25
ATOM     25  C   UNL     1       3.061   3.381  18.046  0.00  0.00    +0.000 C 
BRANCH  25  26
ATOM     26  C   UNL     1       3.488   2.215  18.942  0.00  0.00    +0.000 C 
ATOM     27  O   UNL     1       3.937   2.353  20.071  0.00  0.00    +0.000 OA
BRANCH  26  28
ATOM     28  O   UNL     1       3.380   1.011  18.340  0.00  0.00    +0.000 OA
ATOM     29  H   UNL     1       4.130   0.437  18.601  0.00  0.00    +0.000 HD
ENDBRANCH  26  28
ENDBRANCH  25  26
ENDBRANCH  24  25
BRANCH  24  30
ATOM     30  C   UNL     1       4.836   4.976  17.169  0.00  0.00    +0.000 C 
BRANCH  30  31
ATOM     31  C   UNL     1       6.013   5.802  17.680  0.00  0.00    +0.000 A 
ATOM     32  C   UNL     1       6.438   7.011  17.100  0.00  0.00    +0.000 A 
ATOM     33  C   UNL     1       7.582   7.671  17.559  0.00  0.00    +0.000 A 
ATOM     34  C   UNL     1       8.307   7.152  18.626  0.00  0.00    +0.000 A 
ATOM     35  C   UNL     1       7.887   5.972  19.236  0.00  0.00    +0.000 A 
ATOM     36  C   UNL     1       6.755   5.301  18.764  0.00  0.00    +0.000 A 
ENDBRANCH  30  31
ENDBRANCH  24  30
ENDBRANCH   4  24
TORSDOF 14
ENDMDL
