MODEL 1
REMARK VINA RESULT:      -9.6      0.000      0.000
REMARK  Name = 
REMARK  5 active torsions:
REMARK  status: ('A' for Active; 'I' for Inactive)
REMARK    1  A    between atoms: C_1  and  N_2
REMARK    2  A    between atoms: N_2  and  C_3
REMARK    3  A    between atoms: N_2  and  C_4
REMARK    4  A    between atoms: C_7  and  C_8
REMARK    5  A    between atoms: C_10  and  C_11
REMARK                            x       y       z     vdW  Elec       q    Type
REMARK                         _______ _______ _______ _____ _____    ______ ____
ROOT
ATOM      1  C   UNL     1       2.353   6.852  19.597  0.00  0.00    +0.000 A 
ATOM      2  C   UNL     1       3.448   6.517  18.822  0.00  0.00    +0.000 A 
ATOM      3  C   UNL     1       4.018   5.231  18.895  0.00  0.00    +0.000 A 
ATOM      4  C   UNL     1       3.419   4.288  19.809  0.00  0.00    +0.000 A 
ATOM      5  C   UNL     1       3.775   2.946  20.127  0.00  0.00    +0.000 A 
ATOM      6  N   UNL     1       4.873   2.289  19.590  0.00  0.00    +0.000 N 
ATOM      7  N   UNL     1       3.076   2.145  20.942  0.00  0.00    +0.000 NA
ATOM      8  C   UNL     1       2.010   2.688  21.516  0.00  0.00    +0.000 A 
ATOM      9  N   UNL     1       1.610   3.944  21.360  0.00  0.00    +0.000 NA
ATOM     10  C   UNL     1       2.289   4.720  20.534  0.00  0.00    +0.000 A 
ATOM     11  N   UNL     1       1.804   5.955  20.434  0.00  0.00    +0.000 NA
ATOM     12  H   UNL     1       5.740   2.802  19.685  0.00  0.00    +0.000 HD
ATOM     13  H   UNL     1       4.922   1.352  19.977  0.00  0.00    +0.000 HD
ENDROOT
BRANCH   3  14
ATOM     14  C   UNL     1       5.171   4.972  17.991  0.00  0.00    +0.000 A 
ATOM     15  C   UNL     1       6.500   4.995  18.469  0.00  0.00    +0.000 A 
ATOM     16  C   UNL     1       7.593   4.812  17.614  0.00  0.00    +0.000 A 
ATOM     17  C   UNL     1       7.382   4.524  16.270  0.00  0.00    +0.000 A 
ATOM     18  C   UNL     1       6.083   4.479  15.782  0.00  0.00    +0.000 A 
ATOM     19 BR   UNL     1       5.760   3.975  13.989  0.00  0.00    +0.000 Br
ATOM     20  C   UNL     1       5.003   4.774  16.615  0.00  0.00    +0.000 A 
ENDBRANCH   3  14
BRANCH   1  24
ATOM     21  C   UNL     1       0.510  10.807  19.447  0.00  0.00    +0.000 A 
ATOM     22  C   UNL     1       0.512  10.033  20.615  0.00  0.00    +0.000 A 
ATOM     23  C   UNL     1       1.100   8.759  20.669  0.00  0.00    +0.000 A 
ATOM     24  C   UNL     1       1.733   8.192  19.554  0.00  0.00    +0.000 A 
ATOM     25  C   UNL     1       1.748   8.963  18.386  0.00  0.00    +0.000 A 
ATOM     26  C   UNL     1       1.149  10.233  18.337  0.00  0.00    +0.000 A 
BRANCH  21  28
ATOM     27  C   UNL     1       0.018  12.979  20.534  0.00  0.00    +0.000 C 
ATOM     28  N   UNL     1      -0.072  12.069  19.400  0.00  0.00    +0.000 N 
ATOM     29  C   UNL     1      -0.999  12.410  18.328  0.00  0.00    +0.000 C 
ENDBRANCH  21  28
ENDBRANCH   1  24
TORSDOF 3
ENDMDL
MODEL 2
REMARK VINA RESULT:      -9.5      0.191      1.152
REMARK  Name = 
REMARK  5 active torsions:
REMARK  status: ('A' for Active; 'I' for Inactive)
REMARK    1  A    between atoms: C_1  and  N_2
REMARK    2  A    between atoms: N_2  and  C_3
REMARK    3  A    between atoms: N_2  and  C_4
REMARK    4  A    between atoms: C_7  and  C_8
REMARK    5  A    between atoms: C_10  and  C_11
REMARK                            x       y       z     vdW  Elec       q    Type
REMARK                         _______ _______ _______ _____ _____    ______ ____
ROOT
ATOM      1  C   UNL     1       2.301   6.871  19.706  0.00  0.00    +0.000 A 
ATOM      2  C   UNL     1       3.410   6.559  18.942  0.00  0.00    +0.000 A 
ATOM      3  C   UNL     1       3.973   5.270  18.979  0.00  0.00    +0.000 A 
ATOM      4  C   UNL     1       3.351   4.296  19.845  0.00  0.00    +0.000 A 
ATOM      5  C   UNL     1       3.695   2.942  20.120  0.00  0.00    +0.000 A 
ATOM      6  N   UNL     1       4.801   2.300  19.583  0.00  0.00    +0.000 N 
ATOM      7  N   UNL     1       2.975   2.115  20.890  0.00  0.00    +0.000 NA
ATOM      8  C   UNL     1       1.899   2.641  21.461  0.00  0.00    +0.000 A 
ATOM      9  N   UNL     1       1.508   3.904  21.344  0.00  0.00    +0.000 NA
ATOM     10  C   UNL     1       2.207   4.707  20.561  0.00  0.00    +0.000 A 
ATOM     11  N   UNL     1       1.730   5.947  20.497  0.00  0.00    +0.000 NA
ATOM     12  H   UNL     1       5.668   2.805  19.716  0.00  0.00    +0.000 HD
ATOM     13  H   UNL     1       4.838   1.349  19.937  0.00  0.00    +0.000 HD
ENDROOT
BRANCH   3  14
ATOM     14  C   UNL     1       5.145   5.038  18.092  0.00  0.00    +0.000 A 
ATOM     15  C   UNL     1       6.466   5.096  18.587  0.00  0.00    +0.000 A 
ATOM     16  C   UNL     1       7.574   4.940  17.746  0.00  0.00    +0.000 A 
ATOM     17  C   UNL     1       7.389   4.643  16.400  0.00  0.00    +0.000 A 
ATOM     18  C   UNL     1       6.098   4.564  15.896  0.00  0.00    +0.000 A 
ATOM     19 BR   UNL     1       5.812   4.048  14.100  0.00  0.00    +0.000 Br
ATOM     20  C   UNL     1       4.999   4.832  16.714  0.00  0.00    +0.000 A 
ENDBRANCH   3  14
BRANCH   1  24
ATOM     21  C   UNL     1       0.497  10.847  19.704  0.00  0.00    +0.000 A 
ATOM     22  C   UNL     1       1.074  10.294  18.554  0.00  0.00    +0.000 A 
ATOM     23  C   UNL     1       1.658   9.017  18.548  0.00  0.00    +0.000 A 
ATOM     24  C   UNL     1       1.687   8.215  19.698  0.00  0.00    +0.000 A 
ATOM     25  C   UNL     1       1.101   8.754  20.849  0.00  0.00    +0.000 A 
ATOM     26  C   UNL     1       0.526  10.036  20.850  0.00  0.00    +0.000 A 
BRANCH  21  28
ATOM     27  C   UNL     1      -0.635  12.683  18.482  0.00  0.00    +0.000 C 
ATOM     28  N   UNL     1      -0.082  12.112  19.704  0.00  0.00    +0.000 N 
ATOM     29  C   UNL     1       0.080  12.994  20.852  0.00  0.00    +0.000 C 
ENDBRANCH  21  28
ENDBRANCH   1  24
TORSDOF 3
ENDMDL
MODEL 3
REMARK VINA RESULT:      -8.9      1.092      1.221
REMARK  Name = 
REMARK  5 active torsions:
REMARK  status: ('A' for Active; 'I' for Inactive)
REMARK    1  A    between atoms: C_1  and  N_2
REMARK    2  A    between atoms: N_2  and  C_3
REMARK    3  A    between atoms: N_2  and  C_4
REMARK    4  A    between atoms: C_7  and  C_8
REMARK    5  A    between atoms: C_10  and  C_11
REMARK                            x       y       z     vdW  Elec       q    Type
REMARK                         _______ _______ _______ _____ _____    ______ ____
ROOT
ATOM      1  C   UNL     1       2.334   6.715  18.881  0.00  0.00    +0.000 A 
ATOM      2  C   UNL     1       3.441   6.382  18.123  0.00  0.00    +0.000 A 
ATOM      3  C   UNL     1       3.831   5.039  17.965  0.00  0.00    +0.000 A 
ATOM      4  C   UNL     1       3.034   4.032  18.626  0.00  0.00    +0.000 A 
ATOM      5  C   UNL     1       3.183   2.617  18.682  0.00  0.00    +0.000 A 
ATOM      6  N   UNL     1       4.230   1.925  18.091  0.00  0.00    +0.000 N 
ATOM      7  N   UNL     1       2.315   1.783  19.270  0.00  0.00    +0.000 NA
ATOM      8  C   UNL     1       1.281   2.352  19.876  0.00  0.00    +0.000 A 
ATOM      9  N   UNL     1       1.063   3.660  19.958  0.00  0.00    +0.000 NA
ATOM     10  C   UNL     1       1.909   4.475  19.353  0.00  0.00    +0.000 A 
ATOM     11  N   UNL     1       1.600   5.762  19.480  0.00  0.00    +0.000 NA
ATOM     12  H   UNL     1       5.144   2.278  18.344  0.00  0.00    +0.000 HD
ATOM     13  H   UNL     1       4.121   0.933  18.280  0.00  0.00    +0.000 HD
ENDROOT
BRANCH   3  14
ATOM     14  C   UNL     1       5.017   4.796  17.101  0.00  0.00    +0.000 A 
ATOM     15  C   UNL     1       6.330   4.859  17.618  0.00  0.00    +0.000 A 
ATOM     16  C   UNL     1       7.453   4.691  16.799  0.00  0.00    +0.000 A 
ATOM     17  C   UNL     1       7.291   4.378  15.455  0.00  0.00    +0.000 A 
ATOM     18  C   UNL     1       6.009   4.294  14.928  0.00  0.00    +0.000 A 
ATOM     19 BR   UNL     1       5.754   3.756  13.134  0.00  0.00    +0.000 Br
ATOM     20  C   UNL     1       4.896   4.573  15.723  0.00  0.00    +0.000 A 
ENDBRANCH   3  14
BRANCH   1  24
ATOM     21  C   UNL     1       1.040  10.849  19.435  0.00  0.00    +0.000 A 
ATOM     22  C   UNL     1       0.929   9.893  20.454  0.00  0.00    +0.000 A 
ATOM     23  C   UNL     1       1.340   8.562  20.281  0.00  0.00    +0.000 A 
ATOM     24  C   UNL     1       1.900   8.115  19.075  0.00  0.00    +0.000 A 
ATOM     25  C   UNL     1       2.028   9.064  18.056  0.00  0.00    +0.000 A 
ATOM     26  C   UNL     1       1.605  10.393  18.233  0.00  0.00    +0.000 A 
BRANCH  21  28
ATOM     27  C   UNL     1       1.014  13.203  18.661  0.00  0.00    +0.000 C 
ATOM     28  N   UNL     1       0.633  12.167  19.612  0.00  0.00    +0.000 N 
ATOM     29  C   UNL     1       0.041  12.589  20.875  0.00  0.00    +0.000 C 
ENDBRANCH  21  28
ENDBRANCH   1  24
TORSDOF 3
ENDMDL
MODEL 4
REMARK VINA RESULT:      -8.0      1.713      2.211
REMARK  Name = 
REMARK  5 active torsions:
REMARK  status: ('A' for Active; 'I' for Inactive)
REMARK    1  A    between atoms: C_1  and  N_2
REMARK    2  A    between atoms: N_2  and  C_3
REMARK    3  A    between atoms: N_2  and  C_4
REMARK    4  A    between atoms: C_7  and  C_8
REMARK    5  A    between atoms: C_10  and  C_11
REMARK                            x       y       z     vdW  Elec       q    Type
REMARK                         _______ _______ _______ _____ _____    ______ ____
ROOT
ATOM      1  C   UNL     1       1.787   7.025  20.348  0.00  0.00    +0.000 A 
ATOM      2  C   UNL     1       2.793   7.006  19.400  0.00  0.00    +0.000 A 
ATOM      3  C   UNL     1       3.518   5.827  19.140  0.00  0.00    +0.000 A 
ATOM      4  C   UNL     1       3.171   4.650  19.901  0.00  0.00    +0.000 A 
ATOM      5  C   UNL     1       3.726   3.339  19.891  0.00  0.00    +0.000 A 
ATOM      6  N   UNL     1       4.808   2.962  19.108  0.00  0.00    +0.000 N 
ATOM      7  N   UNL     1       3.249   2.305  20.597  0.00  0.00    +0.000 NA
ATOM      8  C   UNL     1       2.218   2.568  21.389  0.00  0.00    +0.000 A 
ATOM      9  N   UNL     1       1.652   3.759  21.544  0.00  0.00    +0.000 NA
ATOM     10  C   UNL     1       2.110   4.768  20.824  0.00  0.00    +0.000 A 
ATOM     11  N   UNL     1       1.472   5.916  21.038  0.00  0.00    +0.000 NA
ATOM     12  H   UNL     1       5.612   3.569  19.208  0.00  0.00    +0.000 HD
ATOM     13  H   UNL     1       5.023   1.986  19.286  0.00  0.00    +0.000 HD
ENDROOT
BRANCH   3  14
ATOM     14  C   UNL     1       4.555   5.914  18.077  0.00  0.00    +0.000 A 
ATOM     15  C   UNL     1       4.429   5.199  16.865  0.00  0.00    +0.000 A 
ATOM     16  C   UNL     1       5.429   5.229  15.887  0.00  0.00    +0.000 A 
ATOM     17  C   UNL     1       6.547   6.038  16.060  0.00  0.00    +0.000 A 
ATOM     18  C   UNL     1       6.683   6.763  17.236  0.00  0.00    +0.000 A 
ATOM     19 BR   UNL     1       8.130   7.959  17.451  0.00  0.00    +0.000 Br
ATOM     20  C   UNL     1       5.738   6.642  18.256  0.00  0.00    +0.000 A 
ENDBRANCH   3  14
BRANCH   1  24
ATOM     21  C   UNL     1      -0.498  10.629  21.273  0.00  0.00    +0.000 A 
ATOM     22  C   UNL     1       0.163  10.463  20.048  0.00  0.00    +0.000 A 
ATOM     23  C   UNL     1       0.901   9.308  19.746  0.00  0.00    +0.000 A 
ATOM     24  C   UNL     1       1.010   8.245  20.654  0.00  0.00    +0.000 A 
ATOM     25  C   UNL     1       0.343   8.395  21.874  0.00  0.00    +0.000 A 
ATOM     26  C   UNL     1      -0.387   9.558  22.174  0.00  0.00    +0.000 A 
BRANCH  21  28
ATOM     27  C   UNL     1      -1.371  12.243  22.939  0.00  0.00    +0.000 C 
ATOM     28  N   UNL     1      -1.230  11.775  21.566  0.00  0.00    +0.000 N 
ATOM     29  C   UNL     1      -2.081  12.382  20.551  0.00  0.00    +0.000 C 
ENDBRANCH  21  28
ENDBRANCH   1  24
TORSDOF 3
ENDMDL
MODEL 5
REMARK VINA RESULT:      -7.5      4.094     10.279
REMARK  Name = 
REMARK  5 active torsions:
REMARK  status: ('A' for Active; 'I' for Inactive)
REMARK    1  A    between atoms: C_1  and  N_2
REMARK    2  A    between atoms: N_2  and  C_3
REMARK    3  A    between atoms: N_2  and  C_4
REMARK    4  A    between atoms: C_7  and  C_8
REMARK    5  A    between atoms: C_10  and  C_11
REMARK                            x       y       z     vdW  Elec       q    Type
REMARK                         _______ _______ _______ _____ _____    ______ ____
ROOT
ATOM      1  C   UNL     1       0.676  10.898  19.380  0.00  0.00    +0.000 A 
ATOM      2  C   UNL     1      -0.583  11.093  19.917  0.00  0.00    +0.000 A 
ATOM      3  C   UNL     1      -1.124  12.387  20.038  0.00  0.00    +0.000 A 
ATOM      4  C   UNL     1      -0.313  13.493  19.587  0.00  0.00    +0.000 A 
ATOM      5  C   UNL     1      -0.560  14.895  19.603  0.00  0.00    +0.000 A 
ATOM      6  N   UNL     1      -1.703  15.473  20.136  0.00  0.00    +0.000 N 
ATOM      7  N   UNL     1       0.252  15.817  19.070  0.00  0.00    +0.000 NA
ATOM      8  C   UNL     1       1.382  15.363  18.543  0.00  0.00    +0.000 A 
ATOM      9  N   UNL     1       1.764  14.092  18.527  0.00  0.00    +0.000 NA
ATOM     10  C   UNL     1       0.946  13.184  19.030  0.00  0.00    +0.000 A 
ATOM     11  N   UNL     1       1.410  11.940  18.956  0.00  0.00    +0.000 NA
ATOM     12  H   UNL     1      -1.904  15.178  21.083  0.00  0.00    +0.000 HD
ATOM     13  H   UNL     1      -1.642  16.482  20.040  0.00  0.00    +0.000 HD
ENDROOT
BRANCH   3  14
ATOM     14  C   UNL     1      -2.499  12.474  20.599  0.00  0.00    +0.000 A 
ATOM     15  C   UNL     1      -3.637  12.488  19.761  0.00  0.00    +0.000 A 
ATOM     16  C   UNL     1      -4.929  12.631  20.278  0.00  0.00    +0.000 A 
ATOM     17  C   UNL     1      -5.126  12.685  21.653  0.00  0.00    +0.000 A 
ATOM     18  C   UNL     1      -4.023  12.656  22.497  0.00  0.00    +0.000 A 
ATOM     19 BR   UNL     1      -4.264  12.611  24.371  0.00  0.00    +0.000 Br
ATOM     20  C   UNL     1      -2.730  12.627  21.972  0.00  0.00    +0.000 A 
ENDBRANCH   3  14
BRANCH   1  24
ATOM     21  C   UNL     1       2.476   6.942  18.965  0.00  0.00    +0.000 A 
ATOM     22  C   UNL     1       1.897   7.371  20.166  0.00  0.00    +0.000 A 
ATOM     23  C   UNL     1       1.318   8.642  20.307  0.00  0.00    +0.000 A 
ATOM     24  C   UNL     1       1.279   9.556  19.243  0.00  0.00    +0.000 A 
ATOM     25  C   UNL     1       1.844   9.132  18.036  0.00  0.00    +0.000 A 
ATOM     26  C   UNL     1       2.429   7.861  17.904  0.00  0.00    +0.000 A 
BRANCH  21  28
ATOM     27  C   UNL     1       4.346   5.378  19.416  0.00  0.00    +0.000 C 
ATOM     28  N   UNL     1       3.046   5.680  18.830  0.00  0.00    +0.000 N 
ATOM     29  C   UNL     1       2.484   4.718  17.891  0.00  0.00    +0.000 C 
ENDBRANCH  21  28
ENDBRANCH   1  24
TORSDOF 3
ENDMDL
MODEL 6
REMARK VINA RESULT:      -7.5      3.604      9.242
REMARK  Name = 
REMARK  5 active torsions:
REMARK  status: ('A' for Active; 'I' for Inactive)
REMARK    1  A    between atoms: C_1  and  N_2
REMARK    2  A    between atoms: N_2  and  C_3
REMARK    3  A    between atoms: N_2  and  C_4
REMARK    4  A    between atoms: C_7  and  C_8
REMARK    5  A    between atoms: C_10  and  C_11
REMARK                            x       y       z     vdW  Elec       q    Type
REMARK                         _______ _______ _______ _____ _____    ______ ____
ROOT
ATOM      1  C   UNL     1       0.956   9.611  19.189  0.00  0.00    +0.000 A 
ATOM      2  C   UNL     1      -0.228   9.769  18.493  0.00  0.00    +0.000 A 
ATOM      3  C   UNL     1      -1.048  10.892  18.708  0.00  0.00    +0.000 A 
ATOM      4  C   UNL     1      -0.607  11.862  19.682  0.00  0.00    +0.000 A 
ATOM      5  C   UNL     1      -1.215  13.065  20.139  0.00  0.00    +0.000 A 
ATOM      6  N   UNL     1      -2.456  13.516  19.710  0.00  0.00    +0.000 N 
ATOM      7  N   UNL     1      -0.652  13.926  20.997  0.00  0.00    +0.000 NA
ATOM      8  C   UNL     1       0.535  13.577  21.476  0.00  0.00    +0.000 A 
ATOM      9  N   UNL     1       1.179  12.452  21.187  0.00  0.00    +0.000 NA
ATOM     10  C   UNL     1       0.630  11.621  20.318  0.00  0.00    +0.000 A 
ATOM     11  N   UNL     1       1.354  10.530  20.084  0.00  0.00    +0.000 NA
ATOM     12  H   UNL     1      -3.190  12.824  19.791  0.00  0.00    +0.000 HD
ATOM     13  H   UNL     1      -2.676  14.385  20.186  0.00  0.00    +0.000 HD
ENDROOT
BRANCH   3  14
ATOM     14  C   UNL     1      -2.281  10.974  17.879  0.00  0.00    +0.000 A 
ATOM     15  C   UNL     1      -2.217  11.052  16.471  0.00  0.00    +0.000 A 
ATOM     16  C   UNL     1      -3.370  11.191  15.689  0.00  0.00    +0.000 A 
ATOM     17  C   UNL     1      -4.623  11.177  16.290  0.00  0.00    +0.000 A 
ATOM     18  C   UNL     1      -4.710  11.083  17.673  0.00  0.00    +0.000 A 
ATOM     19 BR   UNL     1      -6.399  10.944  18.509  0.00  0.00    +0.000 Br
ATOM     20  C   UNL     1      -3.555  11.060  18.456  0.00  0.00    +0.000 A 
ENDBRANCH   3  14
BRANCH   1  24
ATOM     21  C   UNL     1       3.547   6.142  18.622  0.00  0.00    +0.000 A 
ATOM     22  C   UNL     1       3.479   7.179  17.682  0.00  0.00    +0.000 A 
ATOM     23  C   UNL     1       2.646   8.296  17.857  0.00  0.00    +0.000 A 
ATOM     24  C   UNL     1       1.839   8.441  18.994  0.00  0.00    +0.000 A 
ATOM     25  C   UNL     1       1.910   7.418  19.945  0.00  0.00    +0.000 A 
ATOM     26  C   UNL     1       2.739   6.299  19.759  0.00  0.00    +0.000 A 
BRANCH  21  28
ATOM     27  C   UNL     1       5.731   5.026  18.981  0.00  0.00    +0.000 C 
ATOM     28  N   UNL     1       4.376   5.040  18.444  0.00  0.00    +0.000 N 
ATOM     29  C   UNL     1       4.007   3.988  17.505  0.00  0.00    +0.000 C 
ENDBRANCH  21  28
ENDBRANCH   1  24
TORSDOF 3
ENDMDL
MODEL 7
REMARK VINA RESULT:      -7.5      3.623      9.228
REMARK  Name = 
REMARK  5 active torsions:
REMARK  status: ('A' for Active; 'I' for Inactive)
REMARK    1  A    between atoms: C_1  and  N_2
REMARK    2  A    between atoms: N_2  and  C_3
REMARK    3  A    between atoms: N_2  and  C_4
REMARK    4  A    between atoms: C_7  and  C_8
REMARK    5  A    between atoms: C_10  and  C_11
REMARK                            x       y       z     vdW  Elec       q    Type
REMARK                         _______ _______ _______ _____ _____    ______ ____
ROOT
ATOM      1  C   UNL     1       0.934   9.619  19.199  0.00  0.00    +0.000 A 
ATOM      2  C   UNL     1      -0.249   9.775  18.501  0.00  0.00    +0.000 A 
ATOM      3  C   UNL     1      -1.074  10.895  18.719  0.00  0.00    +0.000 A 
ATOM      4  C   UNL     1      -0.637  11.863  19.697  0.00  0.00    +0.000 A 
ATOM      5  C   UNL     1      -1.251  13.063  20.156  0.00  0.00    +0.000 A 
ATOM      6  N   UNL     1      -2.492  13.511  19.726  0.00  0.00    +0.000 N 
ATOM      7  N   UNL     1      -0.692  13.923  21.018  0.00  0.00    +0.000 NA
ATOM      8  C   UNL     1       0.495  13.576  21.497  0.00  0.00    +0.000 A 
ATOM      9  N   UNL     1       1.144  12.455  21.206  0.00  0.00    +0.000 NA
ATOM     10  C   UNL     1       0.599  11.624  20.334  0.00  0.00    +0.000 A 
ATOM     11  N   UNL     1       1.327  10.537  20.098  0.00  0.00    +0.000 NA
ATOM     12  H   UNL     1      -3.224  12.816  19.804  0.00  0.00    +0.000 HD
ATOM     13  H   UNL     1      -2.717  14.378  20.204  0.00  0.00    +0.000 HD
ENDROOT
BRANCH   3  14
ATOM     14  C   UNL     1      -2.305  10.975  17.888  0.00  0.00    +0.000 A 
ATOM     15  C   UNL     1      -2.240  11.045  16.479  0.00  0.00    +0.000 A 
ATOM     16  C   UNL     1      -3.391  11.182  15.695  0.00  0.00    +0.000 A 
ATOM     17  C   UNL     1      -4.645  11.174  16.295  0.00  0.00    +0.000 A 
ATOM     18  C   UNL     1      -4.734  11.089  17.678  0.00  0.00    +0.000 A 
ATOM     19 BR   UNL     1      -6.424  10.959  18.513  0.00  0.00    +0.000 Br
ATOM     20  C   UNL     1      -3.580  11.067  18.462  0.00  0.00    +0.000 A 
ENDBRANCH   3  14
BRANCH   1  24
ATOM     21  C   UNL     1       3.573   6.190  18.612  0.00  0.00    +0.000 A 
ATOM     22  C   UNL     1       2.761   6.316  19.747  0.00  0.00    +0.000 A 
ATOM     23  C   UNL     1       1.913   7.417  19.943  0.00  0.00    +0.000 A 
ATOM     24  C   UNL     1       1.821   8.453  19.003  0.00  0.00    +0.000 A 
ATOM     25  C   UNL     1       2.618   8.330  17.859  0.00  0.00    +0.000 A 
ATOM     26  C   UNL     1       3.472   7.229  17.674  0.00  0.00    +0.000 A 
BRANCH  21  28
ATOM     27  C   UNL     1       3.898   3.847  17.872  0.00  0.00    +0.000 C 
ATOM     28  N   UNL     1       4.410   5.096  18.422  0.00  0.00    +0.000 N 
ATOM     29  C   UNL     1       5.746   5.084  19.003  0.00  0.00    +0.000 C 
ENDBRANCH  21  28
ENDBRANCH   1  24
TORSDOF 3
ENDMDL
MODEL 8
REMARK VINA RESULT:      -7.5      4.047     10.269
REMARK  Name = 
REMARK  5 active torsions:
REMARK  status: ('A' for Active; 'I' for Inactive)
REMARK    1  A    between atoms: C_1  and  N_2
REMARK    2  A    between atoms: N_2  and  C_3
REMARK    3  A    between atoms: N_2  and  C_4
REMARK    4  A    between atoms: C_7  and  C_8
REMARK    5  A    between atoms: C_10  and  C_11
REMARK                            x       y       z     vdW  Elec       q    Type
REMARK                         _______ _______ _______ _____ _____    ______ ____
ROOT
ATOM      1  C   UNL     1       0.795  10.832  19.292  0.00  0.00    +0.000 A 
ATOM      2  C   UNL     1      -0.461  11.037  19.832  0.00  0.00    +0.000 A 
ATOM      3  C   UNL     1      -0.991  12.335  19.957  0.00  0.00    +0.000 A 
ATOM      4  C   UNL     1      -0.172  13.435  19.507  0.00  0.00    +0.000 A 
ATOM      5  C   UNL     1      -0.407  14.839  19.526  0.00  0.00    +0.000 A 
ATOM      6  N   UNL     1      -1.544  15.426  20.063  0.00  0.00    +0.000 N 
ATOM      7  N   UNL     1       0.412  15.756  18.993  0.00  0.00    +0.000 NA
ATOM      8  C   UNL     1       1.537  15.293  18.463  0.00  0.00    +0.000 A 
ATOM      9  N   UNL     1       1.909  14.018  18.443  0.00  0.00    +0.000 NA
ATOM     10  C   UNL     1       1.084  13.117  18.946  0.00  0.00    +0.000 A 
ATOM     11  N   UNL     1       1.537  11.869  18.868  0.00  0.00    +0.000 NA
ATOM     12  H   UNL     1      -1.745  15.131  21.010  0.00  0.00    +0.000 HD
ATOM     13  H   UNL     1      -1.474  16.434  19.969  0.00  0.00    +0.000 HD
ENDROOT
BRANCH   3  14
ATOM     14  C   UNL     1      -2.364  12.433  20.522  0.00  0.00    +0.000 A 
ATOM     15  C   UNL     1      -3.504  12.436  19.688  0.00  0.00    +0.000 A 
ATOM     16  C   UNL     1      -4.795  12.589  20.207  0.00  0.00    +0.000 A 
ATOM     17  C   UNL     1      -4.986  12.664  21.582  0.00  0.00    +0.000 A 
ATOM     18  C   UNL     1      -3.881  12.645  22.422  0.00  0.00    +0.000 A 
ATOM     19 BR   UNL     1      -4.115  12.627  24.297  0.00  0.00    +0.000 Br
ATOM     20  C   UNL     1      -2.590  12.606  21.893  0.00  0.00    +0.000 A 
ENDBRANCH   3  14
BRANCH   1  24
ATOM     21  C   UNL     1       2.524   6.844  18.887  0.00  0.00    +0.000 A 
ATOM     22  C   UNL     1       2.516   7.760  17.826  0.00  0.00    +0.000 A 
ATOM     23  C   UNL     1       1.959   9.043  17.949  0.00  0.00    +0.000 A 
ATOM     24  C   UNL     1       1.386   9.485  19.151  0.00  0.00    +0.000 A 
ATOM     25  C   UNL     1       1.402   8.582  20.219  0.00  0.00    +0.000 A 
ATOM     26  C   UNL     1       1.953   7.296  20.086  0.00  0.00    +0.000 A 
BRANCH  21  28
ATOM     27  C   UNL     1       2.274   4.445  18.313  0.00  0.00    +0.000 C 
ATOM     28  N   UNL     1       3.079   5.575  18.760  0.00  0.00    +0.000 N 
ATOM     29  C   UNL     1       4.398   5.292  19.313  0.00  0.00    +0.000 C 
ENDBRANCH  21  28
ENDBRANCH   1  24
TORSDOF 3
ENDMDL
MODEL 9
REMARK VINA RESULT:      -7.4      3.725      9.981
REMARK  Name = 
REMARK  5 active torsions:
REMARK  status: ('A' for Active; 'I' for Inactive)
REMARK    1  A    between atoms: C_1  and  N_2
REMARK    2  A    between atoms: N_2  and  C_3
REMARK    3  A    between atoms: N_2  and  C_4
REMARK    4  A    between atoms: C_7  and  C_8
REMARK    5  A    between atoms: C_10  and  C_11
REMARK                            x       y       z     vdW  Elec       q    Type
REMARK                         _______ _______ _______ _____ _____    ______ ____
ROOT
ATOM      1  C   UNL     1       0.817  10.712  19.165  0.00  0.00    +0.000 A 
ATOM      2  C   UNL     1      -0.511  10.923  19.483  0.00  0.00    +0.000 A 
ATOM      3  C   UNL     1      -1.039  12.227  19.549  0.00  0.00    +0.000 A 
ATOM      4  C   UNL     1      -0.141  13.324  19.279  0.00  0.00    +0.000 A 
ATOM      5  C   UNL     1      -0.359  14.731  19.295  0.00  0.00    +0.000 A 
ATOM      6  N   UNL     1      -1.566  15.323  19.641  0.00  0.00    +0.000 N 
ATOM      7  N   UNL     1       0.551  15.647  18.938  0.00  0.00    +0.000 NA
ATOM      8  C   UNL     1       1.745  15.179  18.600  0.00  0.00    +0.000 A 
ATOM      9  N   UNL     1       2.100  13.900  18.611  0.00  0.00    +0.000 NA
ATOM     10  C   UNL     1       1.189  13.000  18.937  0.00  0.00    +0.000 A 
ATOM     11  N   UNL     1       1.635  11.747  18.906  0.00  0.00    +0.000 NA
ATOM     12  H   UNL     1      -1.932  15.007  20.530  0.00  0.00    +0.000 HD
ATOM     13  H   UNL     1      -1.468  16.332  19.588  0.00  0.00    +0.000 HD
ENDROOT
BRANCH   3  14
ATOM     14  C   UNL     1      -2.489  12.333  19.868  0.00  0.00    +0.000 A 
ATOM     15  C   UNL     1      -2.935  12.683  21.161  0.00  0.00    +0.000 A 
ATOM     16  C   UNL     1      -4.296  12.726  21.484  0.00  0.00    +0.000 A 
ATOM     17  C   UNL     1      -5.250  12.496  20.499  0.00  0.00    +0.000 A 
ATOM     18  C   UNL     1      -4.834  12.167  19.216  0.00  0.00    +0.000 A 
ATOM     19 BR   UNL     1      -6.104  11.964  17.830  0.00  0.00    +0.000 Br
ATOM     20  C   UNL     1      -3.478  12.015  18.928  0.00  0.00    +0.000 A 
ENDBRANCH   3  14
BRANCH   1  24
ATOM     21  C   UNL     1       2.583   6.725  18.940  0.00  0.00    +0.000 A 
ATOM     22  C   UNL     1       2.010   7.217  20.120  0.00  0.00    +0.000 A 
ATOM     23  C   UNL     1       1.443   8.499  20.200  0.00  0.00    +0.000 A 
ATOM     24  C   UNL     1       1.409   9.359  19.093  0.00  0.00    +0.000 A 
ATOM     25  C   UNL     1       1.966   8.872  17.906  0.00  0.00    +0.000 A 
ATOM     26  C   UNL     1       2.540   7.591  17.836  0.00  0.00    +0.000 A 
BRANCH  21  28
ATOM     27  C   UNL     1       4.491   5.197  19.351  0.00  0.00    +0.000 C 
ATOM     28  N   UNL     1       3.141   5.453  18.866  0.00  0.00    +0.000 N 
ATOM     29  C   UNL     1       2.496   4.413  18.074  0.00  0.00    +0.000 C 
ENDBRANCH  21  28
ENDBRANCH   1  24
TORSDOF 3
ENDMDL
