MODEL 1
REMARK VINA RESULT:      -6.3      0.000      0.000
REMARK  Name = 
REMARK  9 active torsions:
REMARK  status: ('A' for Active; 'I' for Inactive)
REMARK    1  A    between atoms: C_1  and  O_2
REMARK    2  A    between atoms: O_2  and  C_3
REMARK    3  A    between atoms: C_3  and  C_5
REMARK    4  A    between atoms: C_6  and  S_7
REMARK    5  A    between atoms: S_7  and  C_8
REMARK    6  A    between atoms: N_11  and  C_12
REMARK    7  A    between atoms: C_13  and  C_14
REMARK    8  A    between atoms: C_14  and  O_16
REMARK    9  A    between atoms: O_16  and  C_17
REMARK                            x       y       z     vdW  Elec       q    Type
REMARK                         _______ _______ _______ _____ _____    ______ ____
ROOT
ATOM      1  C   UNL     1       4.319   5.274  16.974  0.00  0.00    +0.000 A 
ATOM      2  C   UNL     1       3.737   4.000  16.554  0.00  0.00    +0.000 A 
ATOM      3  C   UNL     1       2.698   3.605  17.290  0.00  0.00    +0.000 A 
ATOM      4  N   UNL     1       2.182   4.386  18.313  0.00  0.00    +0.000 N 
ATOM      5  C   UNL     1       2.777   5.639  18.629  0.00  0.00    +0.000 A 
ATOM      6  S   UNL     1       2.160   6.696  19.805  0.00  0.00    +0.000 S 
ATOM      7  N   UNL     1       3.891   6.036  17.916  0.00  0.00    +0.000 NA
ENDROOT
BRANCH   4   8
ATOM      8  C   UNL     1       1.150   3.815  19.058  0.00  0.00    +0.000 C 
ATOM      9  C   UNL     1       1.186   3.186  20.244  0.00  0.00    +0.000 C 
BRANCH   9  10
ATOM     10  C   UNL     1       2.402   2.756  20.961  0.00  0.00    +0.000 C 
ATOM     11  O   UNL     1       2.655   3.006  22.130  0.00  0.00    +0.000 OA
BRANCH  10  12
ATOM     12  O   UNL     1       3.163   2.034  20.108  0.00  0.00    +0.000 OA
ATOM     13  C   UNL     1       4.568   2.313  20.143  0.00  0.00    +0.000 C 
ENDBRANCH  10  12
ENDBRANCH   9  10
ENDBRANCH   4   8
BRANCH   1  14
ATOM     14  S   UNL     1       5.782   5.706  16.127  0.00  0.00    +0.000 S 
BRANCH  14  16
ATOM     15  C   UNL     1       7.563   4.587  17.864  0.00  0.00    +0.000 C 
ATOM     16  C   UNL     1       6.901   4.519  16.698  0.00  0.00    +0.000 C 
BRANCH  15  17
ATOM     17  C   UNL     1       7.391   5.629  18.902  0.00  0.00    +0.000 C 
ATOM     18  O   UNL     1       6.544   5.636  19.780  0.00  0.00    +0.000 OA
BRANCH  17  20
ATOM     19  C   UNL     1       7.871   7.733  18.047  0.00  0.00    +0.000 C 
ATOM     20  O   UNL     1       8.352   6.569  18.719  0.00  0.00    +0.000 OA
ENDBRANCH  17  20
ENDBRANCH  15  17
ENDBRANCH  14  16
ENDBRANCH   1  14
TORSDOF 7
ENDMDL
MODEL 2
REMARK VINA RESULT:      -6.1      2.762      5.948
REMARK  Name = 
REMARK  9 active torsions:
REMARK  status: ('A' for Active; 'I' for Inactive)
REMARK    1  A    between atoms: C_1  and  O_2
REMARK    2  A    between atoms: O_2  and  C_3
REMARK    3  A    between atoms: C_3  and  C_5
REMARK    4  A    between atoms: C_6  and  S_7
REMARK    5  A    between atoms: S_7  and  C_8
REMARK    6  A    between atoms: N_11  and  C_12
REMARK    7  A    between atoms: C_13  and  C_14
REMARK    8  A    between atoms: C_14  and  O_16
REMARK    9  A    between atoms: O_16  and  C_17
REMARK                            x       y       z     vdW  Elec       q    Type
REMARK                         _______ _______ _______ _____ _____    ______ ____
ROOT
ATOM      1  C   UNL     1       4.244   2.989  18.760  0.00  0.00    +0.000 A 
ATOM      2  C   UNL     1       3.460   3.160  17.537  0.00  0.00    +0.000 A 
ATOM      3  C   UNL     1       3.821   4.209  16.798  0.00  0.00    +0.000 A 
ATOM      4  N   UNL     1       4.899   5.012  17.138  0.00  0.00    +0.000 N 
ATOM      5  C   UNL     1       5.643   4.750  18.322  0.00  0.00    +0.000 A 
ATOM      6  S   UNL     1       7.027   5.627  18.770  0.00  0.00    +0.000 S 
ATOM      7  N   UNL     1       5.246   3.704  19.130  0.00  0.00    +0.000 NA
ENDROOT
BRANCH   4   8
ATOM      8  C   UNL     1       5.114   6.125  16.326  0.00  0.00    +0.000 C 
ATOM      9  C   UNL     1       5.772   6.231  15.160  0.00  0.00    +0.000 C 
BRANCH   9  10
ATOM     10  C   UNL     1       6.630   5.194  14.551  0.00  0.00    +0.000 C 
ATOM     11  O   UNL     1       7.851   5.188  14.577  0.00  0.00    +0.000 OA
BRANCH  10  12
ATOM     12  O   UNL     1       5.829   4.263  13.984  0.00  0.00    +0.000 OA
ATOM     13  C   UNL     1       6.323   3.678  12.773  0.00  0.00    +0.000 C 
ENDBRANCH  10  12
ENDBRANCH   9  10
ENDBRANCH   4   8
BRANCH   1  14
ATOM     14  S   UNL     1       3.661   1.726  19.813  0.00  0.00    +0.000 S 
BRANCH  14  16
ATOM     15  C   UNL     1       1.143   2.675  20.261  0.00  0.00    +0.000 C 
ATOM     16  C   UNL     1       1.949   1.830  19.599  0.00  0.00    +0.000 C 
BRANCH  15  17
ATOM     17  C   UNL     1       1.576   3.720  21.218  0.00  0.00    +0.000 C 
ATOM     18  O   UNL     1       2.192   3.534  22.254  0.00  0.00    +0.000 OA
BRANCH  17  20
ATOM     19  C   UNL     1       2.249   5.647  20.112  0.00  0.00    +0.000 C 
ATOM     20  O   UNL     1       1.185   4.924  20.733  0.00  0.00    +0.000 OA
ENDBRANCH  17  20
ENDBRANCH  15  17
ENDBRANCH  14  16
ENDBRANCH   1  14
TORSDOF 7
ENDMDL
MODEL 3
REMARK VINA RESULT:      -6.0      1.672      1.954
REMARK  Name = 
REMARK  9 active torsions:
REMARK  status: ('A' for Active; 'I' for Inactive)
REMARK    1  A    between atoms: C_1  and  O_2
REMARK    2  A    between atoms: O_2  and  C_3
REMARK    3  A    between atoms: C_3  and  C_5
REMARK    4  A    between atoms: C_6  and  S_7
REMARK    5  A    between atoms: S_7  and  C_8
REMARK    6  A    between atoms: N_11  and  C_12
REMARK    7  A    between atoms: C_13  and  C_14
REMARK    8  A    between atoms: C_14  and  O_16
REMARK    9  A    between atoms: O_16  and  C_17
REMARK                            x       y       z     vdW  Elec       q    Type
REMARK                         _______ _______ _______ _____ _____    ______ ____
ROOT
ATOM      1  C   UNL     1       4.694   4.844  16.879  0.00  0.00    +0.000 A 
ATOM      2  C   UNL     1       3.793   5.905  17.326  0.00  0.00    +0.000 A 
ATOM      3  C   UNL     1       2.701   5.466  17.953  0.00  0.00    +0.000 A 
ATOM      4  N   UNL     1       2.494   4.121  18.216  0.00  0.00    +0.000 N 
ATOM      5  C   UNL     1       3.445   3.153  17.789  0.00  0.00    +0.000 A 
ATOM      6  S   UNL     1       3.314   1.497  18.143  0.00  0.00    +0.000 S 
ATOM      7  N   UNL     1       4.552   3.584  17.086  0.00  0.00    +0.000 NA
ENDROOT
BRANCH   4   8
ATOM      8  C   UNL     1       1.271   3.792  18.801  0.00  0.00    +0.000 C 
ATOM      9  C   UNL     1       0.865   3.902  20.076  0.00  0.00    +0.000 C 
BRANCH   9  10
ATOM     10  C   UNL     1       1.723   4.215  21.236  0.00  0.00    +0.000 C 
ATOM     11  O   UNL     1       2.255   5.294  21.446  0.00  0.00    +0.000 OA
BRANCH  10  12
ATOM     12  O   UNL     1       1.798   3.113  22.016  0.00  0.00    +0.000 OA
ATOM     13  C   UNL     1       2.802   2.161  21.648  0.00  0.00    +0.000 C 
ENDBRANCH  10  12
ENDBRANCH   9  10
ENDBRANCH   4   8
BRANCH   1  14
ATOM     14  S   UNL     1       6.031   5.403  15.908  0.00  0.00    +0.000 S 
BRANCH  14  16
ATOM     15  C   UNL     1       7.908   4.744  17.775  0.00  0.00    +0.000 C 
ATOM     16  C   UNL     1       7.360   4.519  16.570  0.00  0.00    +0.000 C 
BRANCH  15  17
ATOM     17  C   UNL     1       7.424   5.717  18.782  0.00  0.00    +0.000 C 
ATOM     18  O   UNL     1       6.476   5.560  19.534  0.00  0.00    +0.000 OA
BRANCH  17  20
ATOM     19  C   UNL     1       7.736   7.826  17.864  0.00  0.00    +0.000 C 
ATOM     20  O   UNL     1       8.228   6.808  18.736  0.00  0.00    +0.000 OA
ENDBRANCH  17  20
ENDBRANCH  15  17
ENDBRANCH  14  16
ENDBRANCH   1  14
TORSDOF 7
ENDMDL
MODEL 4
REMARK VINA RESULT:      -6.0      1.722      6.167
REMARK  Name = 
REMARK  9 active torsions:
REMARK  status: ('A' for Active; 'I' for Inactive)
REMARK    1  A    between atoms: C_1  and  O_2
REMARK    2  A    between atoms: O_2  and  C_3
REMARK    3  A    between atoms: C_3  and  C_5
REMARK    4  A    between atoms: C_6  and  S_7
REMARK    5  A    between atoms: S_7  and  C_8
REMARK    6  A    between atoms: N_11  and  C_12
REMARK    7  A    between atoms: C_13  and  C_14
REMARK    8  A    between atoms: C_14  and  O_16
REMARK    9  A    between atoms: O_16  and  C_17
REMARK                            x       y       z     vdW  Elec       q    Type
REMARK                         _______ _______ _______ _____ _____    ______ ____
ROOT
ATOM      1  C   UNL     1       3.428   4.821  18.011  0.00  0.00    +0.000 A 
ATOM      2  C   UNL     1       3.818   5.487  19.253  0.00  0.00    +0.000 A 
ATOM      3  C   UNL     1       5.133   5.652  19.395  0.00  0.00    +0.000 A 
ATOM      4  N   UNL     1       6.032   5.286  18.405  0.00  0.00    +0.000 N 
ATOM      5  C   UNL     1       5.567   4.686  17.201  0.00  0.00    +0.000 A 
ATOM      6  S   UNL     1       6.586   4.285  15.903  0.00  0.00    +0.000 S 
ATOM      7  N   UNL     1       4.214   4.453  17.063  0.00  0.00    +0.000 NA
ENDROOT
BRANCH   4   8
ATOM      8  C   UNL     1       7.383   5.434  18.719  0.00  0.00    +0.000 C 
ATOM      9  C   UNL     1       8.181   6.509  18.619  0.00  0.00    +0.000 C 
BRANCH   9  10
ATOM     10  C   UNL     1       7.850   7.775  17.935  0.00  0.00    +0.000 C 
ATOM     11  O   UNL     1       7.105   7.879  16.973  0.00  0.00    +0.000 OA
BRANCH  10  12
ATOM     12  O   UNL     1       8.498   8.779  18.567  0.00  0.00    +0.000 OA
ATOM     13  C   UNL     1       8.448  10.054  17.915  0.00  0.00    +0.000 C 
ENDBRANCH  10  12
ENDBRANCH   9  10
ENDBRANCH   4   8
BRANCH   1  14
ATOM     14  S   UNL     1       1.727   4.447  17.903  0.00  0.00    +0.000 S 
BRANCH  14  16
ATOM     15  C   UNL     1       1.890   2.039  19.174  0.00  0.00    +0.000 C 
ATOM     16  C   UNL     1       1.721   2.724  18.033  0.00  0.00    +0.000 C 
BRANCH  15  17
ATOM     17  C   UNL     1       2.020   2.626  20.529  0.00  0.00    +0.000 C 
ATOM     18  O   UNL     1       1.111   3.073  21.208  0.00  0.00    +0.000 OA
BRANCH  17  20
ATOM     19  C   UNL     1       4.141   1.903  19.924  0.00  0.00    +0.000 C 
ATOM     20  O   UNL     1       3.325   2.564  20.892  0.00  0.00    +0.000 OA
ENDBRANCH  17  20
ENDBRANCH  15  17
ENDBRANCH  14  16
ENDBRANCH   1  14
TORSDOF 7
ENDMDL
MODEL 5
REMARK VINA RESULT:      -5.9      2.560      5.874
REMARK  Name = 
REMARK  9 active torsions:
REMARK  status: ('A' for Active; 'I' for Inactive)
REMARK    1  A    between atoms: C_1  and  O_2
REMARK    2  A    between atoms: O_2  and  C_3
REMARK    3  A    between atoms: C_3  and  C_5
REMARK    4  A    between atoms: C_6  and  S_7
REMARK    5  A    between atoms: S_7  and  C_8
REMARK    6  A    between atoms: N_11  and  C_12
REMARK    7  A    between atoms: C_13  and  C_14
REMARK    8  A    between atoms: C_14  and  O_16
REMARK    9  A    between atoms: O_16  and  C_17
REMARK                            x       y       z     vdW  Elec       q    Type
REMARK                         _______ _______ _______ _____ _____    ______ ____
ROOT
ATOM      1  C   UNL     1       2.903   5.406  19.528  0.00  0.00    +0.000 A 
ATOM      2  C   UNL     1       2.310   5.866  18.273  0.00  0.00    +0.000 A 
ATOM      3  C   UNL     1       3.200   6.225  17.347  0.00  0.00    +0.000 A 
ATOM      4  N   UNL     1       4.565   6.092  17.548  0.00  0.00    +0.000 N 
ATOM      5  C   UNL     1       5.062   5.589  18.783  0.00  0.00    +0.000 A 
ATOM      6  S   UNL     1       6.711   5.313  19.083  0.00  0.00    +0.000 S 
ATOM      7  N   UNL     1       4.157   5.269  19.775  0.00  0.00    +0.000 NA
ENDROOT
BRANCH   4   8
ATOM      8  C   UNL     1       5.385   6.585  16.533  0.00  0.00    +0.000 C 
ATOM      9  C   UNL     1       5.851   5.980  15.428  0.00  0.00    +0.000 C 
BRANCH   9  10
ATOM     10  C   UNL     1       5.769   4.537  15.129  0.00  0.00    +0.000 C 
ATOM     11  O   UNL     1       6.057   3.640  15.907  0.00  0.00    +0.000 OA
BRANCH  10  12
ATOM     12  O   UNL     1       5.309   4.392  13.865  0.00  0.00    +0.000 OA
ATOM     13  C   UNL     1       6.099   3.555  13.012  0.00  0.00    +0.000 C 
ENDBRANCH  10  12
ENDBRANCH   9  10
ENDBRANCH   4   8
BRANCH   1  14
ATOM     14  S   UNL     1       1.746   5.104  20.798  0.00  0.00    +0.000 S 
BRANCH  14  16
ATOM     15  C   UNL     1       1.913   2.395  20.531  0.00  0.00    +0.000 C 
ATOM     16  C   UNL     1       2.136   3.489  21.274  0.00  0.00    +0.000 C 
BRANCH  15  17
ATOM     17  C   UNL     1       1.382   2.376  19.148  0.00  0.00    +0.000 C 
ATOM     18  O   UNL     1       0.205   2.314  18.831  0.00  0.00    +0.000 OA
BRANCH  17  20
ATOM     19  C   UNL     1       3.459   1.511  18.579  0.00  0.00    +0.000 C 
ATOM     20  O   UNL     1       2.430   2.458  18.292  0.00  0.00    +0.000 OA
ENDBRANCH  17  20
ENDBRANCH  15  17
ENDBRANCH  14  16
ENDBRANCH   1  14
TORSDOF 7
ENDMDL
MODEL 6
REMARK VINA RESULT:      -5.8      2.724      5.932
REMARK  Name = 
REMARK  9 active torsions:
REMARK  status: ('A' for Active; 'I' for Inactive)
REMARK    1  A    between atoms: C_1  and  O_2
REMARK    2  A    between atoms: O_2  and  C_3
REMARK    3  A    between atoms: C_3  and  C_5
REMARK    4  A    between atoms: C_6  and  S_7
REMARK    5  A    between atoms: S_7  and  C_8
REMARK    6  A    between atoms: N_11  and  C_12
REMARK    7  A    between atoms: C_13  and  C_14
REMARK    8  A    between atoms: C_14  and  O_16
REMARK    9  A    between atoms: O_16  and  C_17
REMARK                            x       y       z     vdW  Elec       q    Type
REMARK                         _______ _______ _______ _____ _____    ______ ____
ROOT
ATOM      1  C   UNL     1       4.167   2.819  19.010  0.00  0.00    +0.000 A 
ATOM      2  C   UNL     1       3.511   2.848  17.704  0.00  0.00    +0.000 A 
ATOM      3  C   UNL     1       3.883   3.866  16.928  0.00  0.00    +0.000 A 
ATOM      4  N   UNL     1       4.865   4.765  17.314  0.00  0.00    +0.000 N 
ATOM      5  C   UNL     1       5.492   4.639  18.586  0.00  0.00    +0.000 A 
ATOM      6  S   UNL     1       6.761   5.641  19.105  0.00  0.00    +0.000 S 
ATOM      7  N   UNL     1       5.076   3.626  19.426  0.00  0.00    +0.000 NA
ENDROOT
BRANCH   4   8
ATOM      8  C   UNL     1       5.096   5.831  16.445  0.00  0.00    +0.000 C 
ATOM      9  C   UNL     1       5.948   5.937  15.413  0.00  0.00    +0.000 C 
BRANCH   9  10
ATOM     10  C   UNL     1       7.025   4.984  15.077  0.00  0.00    +0.000 C 
ATOM     11  O   UNL     1       7.845   4.542  15.867  0.00  0.00    +0.000 OA
BRANCH  10  12
ATOM     12  O   UNL     1       6.930   4.685  13.761  0.00  0.00    +0.000 OA
ATOM     13  C   UNL     1       5.895   3.759  13.411  0.00  0.00    +0.000 C 
ENDBRANCH  10  12
ENDBRANCH   9  10
ENDBRANCH   4   8
BRANCH   1  14
ATOM     14  S   UNL     1       3.554   1.593  20.091  0.00  0.00    +0.000 S 
BRANCH  14  16
ATOM     15  C   UNL     1       1.844   3.369  21.259  0.00  0.00    +0.000 C 
ATOM     16  C   UNL     1       2.891   2.537  21.378  0.00  0.00    +0.000 C 
BRANCH  15  17
ATOM     17  C   UNL     1       1.019   3.560  20.043  0.00  0.00    +0.000 C 
ATOM     18  O   UNL     1       0.204   2.769  19.597  0.00  0.00    +0.000 OA
BRANCH  17  20
ATOM     19  C   UNL     1       1.812   5.694  20.494  0.00  0.00    +0.000 C 
ATOM     20  O   UNL     1       1.313   4.776  19.521  0.00  0.00    +0.000 OA
ENDBRANCH  17  20
ENDBRANCH  15  17
ENDBRANCH  14  16
ENDBRANCH   1  14
TORSDOF 7
ENDMDL
MODEL 7
REMARK VINA RESULT:      -5.8      3.675      6.302
REMARK  Name = 
REMARK  9 active torsions:
REMARK  status: ('A' for Active; 'I' for Inactive)
REMARK    1  A    between atoms: C_1  and  O_2
REMARK    2  A    between atoms: O_2  and  C_3
REMARK    3  A    between atoms: C_3  and  C_5
REMARK    4  A    between atoms: C_6  and  S_7
REMARK    5  A    between atoms: S_7  and  C_8
REMARK    6  A    between atoms: N_11  and  C_12
REMARK    7  A    between atoms: C_13  and  C_14
REMARK    8  A    between atoms: C_14  and  O_16
REMARK    9  A    between atoms: O_16  and  C_17
REMARK                            x       y       z     vdW  Elec       q    Type
REMARK                         _______ _______ _______ _____ _____    ______ ____
ROOT
ATOM      1  C   UNL     1       2.775   6.266  19.124  0.00  0.00    +0.000 A 
ATOM      2  C   UNL     1       3.304   7.081  18.032  0.00  0.00    +0.000 A 
ATOM      3  C   UNL     1       4.001   6.395  17.126  0.00  0.00    +0.000 A 
ATOM      4  N   UNL     1       4.137   5.017  17.192  0.00  0.00    +0.000 N 
ATOM      5  C   UNL     1       3.550   4.289  18.265  0.00  0.00    +0.000 A 
ATOM      6  S   UNL     1       3.593   2.595  18.378  0.00  0.00    +0.000 S 
ATOM      7  N   UNL     1       2.874   4.990  19.243  0.00  0.00    +0.000 NA
ENDROOT
BRANCH   4   8
ATOM      8  C   UNL     1       4.965   4.436  16.231  0.00  0.00    +0.000 C 
ATOM      9  C   UNL     1       6.301   4.314  16.200  0.00  0.00    +0.000 C 
BRANCH   9  10
ATOM     10  C   UNL     1       7.254   4.976  17.114  0.00  0.00    +0.000 C 
ATOM     11  O   UNL     1       7.706   4.483  18.136  0.00  0.00    +0.000 OA
BRANCH  10  12
ATOM     12  O   UNL     1       7.541   6.199  16.613  0.00  0.00    +0.000 OA
ATOM     13  C   UNL     1       7.540   7.272  17.561  0.00  0.00    +0.000 C 
ENDBRANCH  10  12
ENDBRANCH   9  10
ENDBRANCH   4   8
BRANCH   1  14
ATOM     14  S   UNL     1       2.013   7.184  20.398  0.00  0.00    +0.000 S 
BRANCH  14  16
ATOM     15  C   UNL     1       0.678   9.540  20.067  0.00  0.00    +0.000 C 
ATOM     16  C   UNL     1       1.518   8.618  19.570  0.00  0.00    +0.000 C 
BRANCH  15  17
ATOM     17  C   UNL     1       0.101   9.545  21.432  0.00  0.00    +0.000 C 
ATOM     18  O   UNL     1      -0.633   8.693  21.904  0.00  0.00    +0.000 OA
BRANCH  17  20
ATOM     19  C   UNL     1      -0.174  11.833  21.708  0.00  0.00    +0.000 C 
ATOM     20  O   UNL     1       0.544  10.654  22.074  0.00  0.00    +0.000 OA
ENDBRANCH  17  20
ENDBRANCH  15  17
ENDBRANCH  14  16
ENDBRANCH   1  14
TORSDOF 7
ENDMDL
MODEL 8
REMARK VINA RESULT:      -5.8      2.474      3.154
REMARK  Name = 
REMARK  9 active torsions:
REMARK  status: ('A' for Active; 'I' for Inactive)
REMARK    1  A    between atoms: C_1  and  O_2
REMARK    2  A    between atoms: O_2  and  C_3
REMARK    3  A    between atoms: C_3  and  C_5
REMARK    4  A    between atoms: C_6  and  S_7
REMARK    5  A    between atoms: S_7  and  C_8
REMARK    6  A    between atoms: N_11  and  C_12
REMARK    7  A    between atoms: C_13  and  C_14
REMARK    8  A    between atoms: C_14  and  O_16
REMARK    9  A    between atoms: O_16  and  C_17
REMARK                            x       y       z     vdW  Elec       q    Type
REMARK                         _______ _______ _______ _____ _____    ______ ____
ROOT
ATOM      1  C   UNL     1       5.592   5.987  18.193  0.00  0.00    +0.000 A 
ATOM      2  C   UNL     1       5.415   4.873  19.124  0.00  0.00    +0.000 A 
ATOM      3  C   UNL     1       4.210   4.820  19.691  0.00  0.00    +0.000 A 
ATOM      4  N   UNL     1       3.200   5.709  19.357  0.00  0.00    +0.000 N 
ATOM      5  C   UNL     1       3.438   6.739  18.403  0.00  0.00    +0.000 A 
ATOM      6  S   UNL     1       2.237   7.816  17.872  0.00  0.00    +0.000 S 
ATOM      7  N   UNL     1       4.698   6.845  17.851  0.00  0.00    +0.000 NA
ENDROOT
BRANCH   4   8
ATOM      8  C   UNL     1       2.018   5.597  20.088  0.00  0.00    +0.000 C 
ATOM      9  C   UNL     1       1.171   4.562  20.209  0.00  0.00    +0.000 C 
BRANCH   9  10
ATOM     10  C   UNL     1       1.191   3.326  19.400  0.00  0.00    +0.000 C 
ATOM     11  O   UNL     1       0.979   3.269  18.199  0.00  0.00    +0.000 OA
BRANCH  10  12
ATOM     12  O   UNL     1       1.496   2.292  20.216  0.00  0.00    +0.000 OA
ATOM     13  C   UNL     1       1.495   2.587  21.618  0.00  0.00    +0.000 C 
ENDBRANCH  10  12
ENDBRANCH   9  10
ENDBRANCH   4   8
BRANCH   1  14
ATOM     14  S   UNL     1       7.218   6.160  17.585  0.00  0.00    +0.000 S 
BRANCH  14  16
ATOM     15  C   UNL     1       7.145   4.141  15.753  0.00  0.00    +0.000 C 
ATOM     16  C   UNL     1       7.544   4.584  16.955  0.00  0.00    +0.000 C 
BRANCH  15  17
ATOM     17  C   UNL     1       6.440   4.938  14.722  0.00  0.00    +0.000 C 
ATOM     18  O   UNL     1       5.231   5.072  14.620  0.00  0.00    +0.000 OA
BRANCH  17  20
ATOM     19  C   UNL     1       7.518   4.834  12.669  0.00  0.00    +0.000 C 
ATOM     20  O   UNL     1       7.372   5.509  13.920  0.00  0.00    +0.000 OA
ENDBRANCH  17  20
ENDBRANCH  15  17
ENDBRANCH  14  16
ENDBRANCH   1  14
TORSDOF 7
ENDMDL
MODEL 9
REMARK VINA RESULT:      -5.7      1.639      5.782
REMARK  Name = 
REMARK  9 active torsions:
REMARK  status: ('A' for Active; 'I' for Inactive)
REMARK    1  A    between atoms: C_1  and  O_2
REMARK    2  A    between atoms: O_2  and  C_3
REMARK    3  A    between atoms: C_3  and  C_5
REMARK    4  A    between atoms: C_6  and  S_7
REMARK    5  A    between atoms: S_7  and  C_8
REMARK    6  A    between atoms: N_11  and  C_12
REMARK    7  A    between atoms: C_13  and  C_14
REMARK    8  A    between atoms: C_14  and  O_16
REMARK    9  A    between atoms: O_16  and  C_17
REMARK                            x       y       z     vdW  Elec       q    Type
REMARK                         _______ _______ _______ _____ _____    ______ ____
ROOT
ATOM      1  C   UNL     1       3.001   3.725  17.529  0.00  0.00    +0.000 A 
ATOM      2  C   UNL     1       2.672   5.092  17.928  0.00  0.00    +0.000 A 
ATOM      3  C   UNL     1       3.561   6.005  17.538  0.00  0.00    +0.000 A 
ATOM      4  N   UNL     1       4.657   5.677  16.755  0.00  0.00    +0.000 N 
ATOM      5  C   UNL     1       4.881   4.326  16.366  0.00  0.00    +0.000 A 
ATOM      6  S   UNL     1       6.147   3.848  15.339  0.00  0.00    +0.000 S 
ATOM      7  N   UNL     1       4.003   3.359  16.812  0.00  0.00    +0.000 NA
ENDROOT
BRANCH   4   8
ATOM      8  C   UNL     1       5.553   6.712  16.490  0.00  0.00    +0.000 C 
ATOM      9  C   UNL     1       6.712   7.027  17.091  0.00  0.00    +0.000 C 
BRANCH   9  10
ATOM     10  C   UNL     1       7.220   6.451  18.352  0.00  0.00    +0.000 C 
ATOM     11  O   UNL     1       6.740   5.488  18.928  0.00  0.00    +0.000 OA
BRANCH  10  12
ATOM     12  O   UNL     1       8.304   7.164  18.735  0.00  0.00    +0.000 OA
ATOM     13  C   UNL     1       8.365   8.509  18.247  0.00  0.00    +0.000 C 
ENDBRANCH  10  12
ENDBRANCH   9  10
ENDBRANCH   4   8
BRANCH   1  14
ATOM     14  S   UNL     1       1.935   2.511  18.187  0.00  0.00    +0.000 S 
BRANCH  14  16
ATOM     15  C   UNL     1       0.925   3.536  20.504  0.00  0.00    +0.000 C 
ATOM     16  C   UNL     1       0.867   3.452  19.166  0.00  0.00    +0.000 C 
BRANCH  15  17
ATOM     17  C   UNL     1       1.957   2.918  21.369  0.00  0.00    +0.000 C 
ATOM     18  O   UNL     1       1.756   2.110  22.261  0.00  0.00    +0.000 OA
BRANCH  17  20
ATOM     19  C   UNL     1       4.132   2.358  20.785  0.00  0.00    +0.000 C 
ATOM     20  O   UNL     1       3.168   3.392  20.987  0.00  0.00    +0.000 OA
ENDBRANCH  17  20
ENDBRANCH  15  17
ENDBRANCH  14  16
ENDBRANCH   1  14
TORSDOF 7
ENDMDL
