MODEL 1
REMARK VINA RESULT:      -6.4      0.000      0.000
REMARK  Name = 
REMARK  14 active torsions:
REMARK  status: ('A' for Active; 'I' for Inactive)
REMARK    1  A    between atoms: C_1  and  C_2
REMARK    2  A    between atoms: C_2  and  C_3
REMARK    3  A    between atoms: C_2  and  C_4
REMARK    4  A    between atoms: C_2  and  C_5
REMARK    5  A    between atoms: C_5  and  C_6
REMARK    6  A    between atoms: C_6  and  C_7
REMARK    7  A    between atoms: C_7  and  C_8
REMARK    8  A    between atoms: C_8  and  C_9
REMARK    9  A    between atoms: C_9  and  C_10
REMARK   10  A    between atoms: C_10  and  O_11
REMARK   11  A    between atoms: O_11  and  C_12
REMARK   12  A    between atoms: C_18  and  C_19
REMARK   13  A    between atoms: C_19  and  C_20
REMARK   14  A    between atoms: C_20  and  N_21
REMARK                            x       y       z     vdW  Elec       q    Type
REMARK                         _______ _______ _______ _____ _____    ______ ____
ROOT
ATOM      1  C   UNL     1       4.535   3.644  17.954  0.00  0.00    +0.000 A 
ATOM      2  C   UNL     1       5.542   4.297  18.671  0.00  0.00    +0.000 A 
ATOM      3  C   UNL     1       6.618   4.901  18.016  0.00  0.00    +0.000 A 
ATOM      4  C   UNL     1       6.649   4.832  16.621  0.00  0.00    +0.000 A 
ATOM      5  N   UNL     1       7.578   5.320  15.734  0.00  0.00    +0.000 N 
ATOM      6  C   UNL     1       7.209   5.018  14.452  0.00  0.00    +0.000 A 
ATOM      7  C   UNL     1       6.018   4.319  14.491  0.00  0.00    +0.000 A 
ATOM      8  C   UNL     1       5.657   4.201  15.872  0.00  0.00    +0.000 A 
ATOM      9  C   UNL     1       4.580   3.604  16.555  0.00  0.00    +0.000 A 
ATOM     10  H   UNL     1       8.414   5.818  16.001  0.00  0.00    +0.000 HD
ENDROOT
BRANCH   1  11
ATOM     11  O   UNL     1       3.454   3.005  18.500  0.00  0.00    +0.000 OA
BRANCH  11  12
ATOM     12  C   UNL     1       3.745   2.068  19.528  0.00  0.00    +0.000 C 
BRANCH  12  13
ATOM     13  C   UNL     1       3.098   2.551  20.818  0.00  0.00    +0.000 C 
BRANCH  13  14
ATOM     14  C   UNL     1       2.022   3.571  20.486  0.00  0.00    +0.000 C 
BRANCH  14  15
ATOM     15  C   UNL     1       2.271   4.912  21.166  0.00  0.00    +0.000 C 
BRANCH  15  16
ATOM     16  C   UNL     1       1.566   6.061  20.439  0.00  0.00    +0.000 C 
BRANCH  16  17
ATOM     17  C   UNL     1       2.544   7.057  19.796  0.00  0.00    +0.000 C 
BRANCH  17  19
ATOM     18  C   UNL     1       1.738   5.946  17.658  0.00  0.00    +0.000 C 
ATOM     19  C   UNL     1       2.461   7.167  18.255  0.00  0.00    +0.000 C 
ATOM     20  C   UNL     1       3.861   7.294  17.638  0.00  0.00    +0.000 C 
ATOM     21  C   UNL     1       1.648   8.429  17.903  0.00  0.00    +0.000 C 
ENDBRANCH  17  19
ENDBRANCH  16  17
ENDBRANCH  15  16
ENDBRANCH  14  15
ENDBRANCH  13  14
ENDBRANCH  12  13
ENDBRANCH  11  12
ENDBRANCH   1  11
BRANCH   7  22
ATOM     22  C   UNL     1       5.269   3.780  13.312  0.00  0.00    +0.000 C 
BRANCH  22  23
ATOM     23  C   UNL     1       6.203   3.276  12.205  0.00  0.00    +0.000 C 
BRANCH  23  24
ATOM     24  N   UNL     1       5.794   1.958  11.716  0.00  0.00    +0.000 NA
ATOM     25  H   UNL     1       4.779   1.878  11.765  0.00  0.00    +0.000 HD
ATOM     26  H   UNL     1       6.164   1.241  12.340  0.00  0.00    +0.000 HD
ENDBRANCH  23  24
ENDBRANCH  22  23
ENDBRANCH   7  22
TORSDOF 11
ENDMDL
MODEL 2
REMARK VINA RESULT:      -6.3      0.717      1.175
REMARK  Name = 
REMARK  14 active torsions:
REMARK  status: ('A' for Active; 'I' for Inactive)
REMARK    1  A    between atoms: C_1  and  C_2
REMARK    2  A    between atoms: C_2  and  C_3
REMARK    3  A    between atoms: C_2  and  C_4
REMARK    4  A    between atoms: C_2  and  C_5
REMARK    5  A    between atoms: C_5  and  C_6
REMARK    6  A    between atoms: C_6  and  C_7
REMARK    7  A    between atoms: C_7  and  C_8
REMARK    8  A    between atoms: C_8  and  C_9
REMARK    9  A    between atoms: C_9  and  C_10
REMARK   10  A    between atoms: C_10  and  O_11
REMARK   11  A    between atoms: O_11  and  C_12
REMARK   12  A    between atoms: C_18  and  C_19
REMARK   13  A    between atoms: C_19  and  C_20
REMARK   14  A    between atoms: C_20  and  N_21
REMARK                            x       y       z     vdW  Elec       q    Type
REMARK                         _______ _______ _______ _____ _____    ______ ____
ROOT
ATOM      1  C   UNL     1       4.401   3.395  18.029  0.00  0.00    +0.000 A 
ATOM      2  C   UNL     1       5.342   4.016  18.855  0.00  0.00    +0.000 A 
ATOM      3  C   UNL     1       6.416   4.728  18.316  0.00  0.00    +0.000 A 
ATOM      4  C   UNL     1       6.514   4.800  16.924  0.00  0.00    +0.000 A 
ATOM      5  N   UNL     1       7.457   5.413  16.136  0.00  0.00    +0.000 N 
ATOM      6  C   UNL     1       7.160   5.224  14.814  0.00  0.00    +0.000 A 
ATOM      7  C   UNL     1       6.004   4.474  14.726  0.00  0.00    +0.000 A 
ATOM      8  C   UNL     1       5.587   4.204  16.069  0.00  0.00    +0.000 A 
ATOM      9  C   UNL     1       4.510   3.497  16.637  0.00  0.00    +0.000 A 
ATOM     10  H   UNL     1       8.256   5.917  16.491  0.00  0.00    +0.000 HD
ENDROOT
BRANCH   1  11
ATOM     11  O   UNL     1       3.327   2.660  18.456  0.00  0.00    +0.000 OA
BRANCH  11  12
ATOM     12  C   UNL     1       3.123   2.626  19.862  0.00  0.00    +0.000 C 
BRANCH  12  13
ATOM     13  C   UNL     1       1.643   2.393  20.130  0.00  0.00    +0.000 C 
BRANCH  13  14
ATOM     14  C   UNL     1       0.991   3.713  20.506  0.00  0.00    +0.000 C 
BRANCH  14  15
ATOM     15  C   UNL     1       1.990   4.704  21.091  0.00  0.00    +0.000 C 
BRANCH  15  16
ATOM     16  C   UNL     1       1.769   6.122  20.559  0.00  0.00    +0.000 C 
BRANCH  16  17
ATOM     17  C   UNL     1       2.938   6.634  19.702  0.00  0.00    +0.000 C 
BRANCH  17  19
ATOM     18  C   UNL     1       1.800   8.302  18.161  0.00  0.00    +0.000 C 
ATOM     19  C   UNL     1       2.584   6.980  18.236  0.00  0.00    +0.000 C 
ATOM     20  C   UNL     1       1.767   5.854  17.588  0.00  0.00    +0.000 C 
ATOM     21  C   UNL     1       3.899   7.154  17.450  0.00  0.00    +0.000 C 
ENDBRANCH  17  19
ENDBRANCH  16  17
ENDBRANCH  15  16
ENDBRANCH  14  15
ENDBRANCH  13  14
ENDBRANCH  12  13
ENDBRANCH  11  12
ENDBRANCH   1  11
BRANCH   7  22
ATOM     22  C   UNL     1       5.335   4.024  13.464  0.00  0.00    +0.000 C 
BRANCH  22  23
ATOM     23  C   UNL     1       6.268   3.205  12.566  0.00  0.00    +0.000 C 
BRANCH  23  24
ATOM     24  N   UNL     1       7.087   4.068  11.712  0.00  0.00    +0.000 NA
ATOM     25  H   UNL     1       7.766   3.500  11.208  0.00  0.00    +0.000 HD
ATOM     26  H   UNL     1       7.629   4.701  12.301  0.00  0.00    +0.000 HD
ENDBRANCH  23  24
ENDBRANCH  22  23
ENDBRANCH   7  22
TORSDOF 11
ENDMDL
MODEL 3
REMARK VINA RESULT:      -6.2      1.670      2.960
REMARK  Name = 
REMARK  14 active torsions:
REMARK  status: ('A' for Active; 'I' for Inactive)
REMARK    1  A    between atoms: C_1  and  C_2
REMARK    2  A    between atoms: C_2  and  C_3
REMARK    3  A    between atoms: C_2  and  C_4
REMARK    4  A    between atoms: C_2  and  C_5
REMARK    5  A    between atoms: C_5  and  C_6
REMARK    6  A    between atoms: C_6  and  C_7
REMARK    7  A    between atoms: C_7  and  C_8
REMARK    8  A    between atoms: C_8  and  C_9
REMARK    9  A    between atoms: C_9  and  C_10
REMARK   10  A    between atoms: C_10  and  O_11
REMARK   11  A    between atoms: O_11  and  C_12
REMARK   12  A    between atoms: C_18  and  C_19
REMARK   13  A    between atoms: C_19  and  C_20
REMARK   14  A    between atoms: C_20  and  N_21
REMARK                            x       y       z     vdW  Elec       q    Type
REMARK                         _______ _______ _______ _____ _____    ______ ____
ROOT
ATOM      1  C   UNL     1       4.724   4.330  17.907  0.00  0.00    +0.000 A 
ATOM      2  C   UNL     1       5.766   5.100  18.434  0.00  0.00    +0.000 A 
ATOM      3  C   UNL     1       6.803   5.563  17.621  0.00  0.00    +0.000 A 
ATOM      4  C   UNL     1       6.761   5.232  16.265  0.00  0.00    +0.000 A 
ATOM      5  N   UNL     1       7.639   5.538  15.254  0.00  0.00    +0.000 N 
ATOM      6  C   UNL     1       7.204   5.002  14.073  0.00  0.00    +0.000 A 
ATOM      7  C   UNL     1       6.020   4.331  14.306  0.00  0.00    +0.000 A 
ATOM      8  C   UNL     1       5.732   4.477  15.701  0.00  0.00    +0.000 A 
ATOM      9  C   UNL     1       4.695   4.027  16.540  0.00  0.00    +0.000 A 
ATOM     10  H   UNL     1       8.487   6.072  15.377  0.00  0.00    +0.000 HD
ENDROOT
BRANCH   1  11
ATOM     11  O   UNL     1       3.675   3.813  18.619  0.00  0.00    +0.000 OA
BRANCH  11  12
ATOM     12  C   UNL     1       2.895   4.758  19.340  0.00  0.00    +0.000 C 
BRANCH  12  13
ATOM     13  C   UNL     1       2.244   5.706  18.343  0.00  0.00    +0.000 C 
BRANCH  13  14
ATOM     14  C   UNL     1       2.551   7.140  18.744  0.00  0.00    +0.000 C 
BRANCH  14  15
ATOM     15  C   UNL     1       2.560   8.083  17.547  0.00  0.00    +0.000 C 
BRANCH  15  16
ATOM     16  C   UNL     1       2.049   9.479  17.914  0.00  0.00    +0.000 C 
BRANCH  16  17
ATOM     17  C   UNL     1       1.161   9.485  19.168  0.00  0.00    +0.000 C 
BRANCH  17  19
ATOM     18  C   UNL     1       0.657  11.955  18.852  0.00  0.00    +0.000 C 
ATOM     19  C   UNL     1       0.065  10.577  19.201  0.00  0.00    +0.000 C 
ATOM     20  C   UNL     1      -0.610  10.636  20.579  0.00  0.00    +0.000 C 
ATOM     21  C   UNL     1      -0.999  10.227  18.142  0.00  0.00    +0.000 C 
ENDBRANCH  17  19
ENDBRANCH  16  17
ENDBRANCH  15  16
ENDBRANCH  14  15
ENDBRANCH  13  14
ENDBRANCH  12  13
ENDBRANCH  11  12
ENDBRANCH   1  11
BRANCH   7  22
ATOM     22  C   UNL     1       5.211   3.584  13.290  0.00  0.00    +0.000 C 
BRANCH  22  23
ATOM     23  C   UNL     1       6.021   3.240  12.035  0.00  0.00    +0.000 C 
BRANCH  23  24
ATOM     24  N   UNL     1       5.886   1.825  11.680  0.00  0.00    +0.000 NA
ATOM     25  H   UNL     1       6.721   1.520  11.182  0.00  0.00    +0.000 HD
ATOM     26  H   UNL     1       5.111   1.718  11.027  0.00  0.00    +0.000 HD
ENDBRANCH  23  24
ENDBRANCH  22  23
ENDBRANCH   7  22
TORSDOF 11
ENDMDL
MODEL 4
REMARK VINA RESULT:      -6.2      3.601      7.314
REMARK  Name = 
REMARK  14 active torsions:
REMARK  status: ('A' for Active; 'I' for Inactive)
REMARK    1  A    between atoms: C_1  and  C_2
REMARK    2  A    between atoms: C_2  and  C_3
REMARK    3  A    between atoms: C_2  and  C_4
REMARK    4  A    between atoms: C_2  and  C_5
REMARK    5  A    between atoms: C_5  and  C_6
REMARK    6  A    between atoms: C_6  and  C_7
REMARK    7  A    between atoms: C_7  and  C_8
REMARK    8  A    between atoms: C_8  and  C_9
REMARK    9  A    between atoms: C_9  and  C_10
REMARK   10  A    between atoms: C_10  and  O_11
REMARK   11  A    between atoms: O_11  and  C_12
REMARK   12  A    between atoms: C_18  and  C_19
REMARK   13  A    between atoms: C_19  and  C_20
REMARK   14  A    between atoms: C_20  and  N_21
REMARK                            x       y       z     vdW  Elec       q    Type
REMARK                         _______ _______ _______ _____ _____    ______ ____
ROOT
ATOM      1  C   UNL     1       2.498   6.913  19.470  0.00  0.00    +0.000 A 
ATOM      2  C   UNL     1       2.995   7.302  18.223  0.00  0.00    +0.000 A 
ATOM      3  C   UNL     1       2.577   8.490  17.619  0.00  0.00    +0.000 A 
ATOM      4  C   UNL     1       1.649   9.276  18.306  0.00  0.00    +0.000 A 
ATOM      5  N   UNL     1       1.065  10.467  17.950  0.00  0.00    +0.000 N 
ATOM      6  C   UNL     1       0.205  10.881  18.930  0.00  0.00    +0.000 A 
ATOM      7  C   UNL     1       0.220   9.950  19.950  0.00  0.00    +0.000 A 
ATOM      8  C   UNL     1       1.141   8.926  19.557  0.00  0.00    +0.000 A 
ATOM      9  C   UNL     1       1.582   7.727  20.148  0.00  0.00    +0.000 A 
ATOM     10  H   UNL     1       1.242  10.952  17.083  0.00  0.00    +0.000 HD
ENDROOT
BRANCH   1  11
ATOM     11  O   UNL     1       2.828   5.763  20.136  0.00  0.00    +0.000 OA
BRANCH  11  12
ATOM     12  C   UNL     1       1.755   5.105  20.797  0.00  0.00    +0.000 C 
BRANCH  12  13
ATOM     13  C   UNL     1       1.240   3.994  19.893  0.00  0.00    +0.000 C 
BRANCH  13  14
ATOM     14  C   UNL     1       2.405   3.400  19.118  0.00  0.00    +0.000 C 
BRANCH  14  15
ATOM     15  C   UNL     1       2.290   3.656  17.620  0.00  0.00    +0.000 C 
BRANCH  15  16
ATOM     16  C   UNL     1       3.622   3.438  16.898  0.00  0.00    +0.000 C 
BRANCH  16  17
ATOM     17  C   UNL     1       4.799   4.158  17.574  0.00  0.00    +0.000 C 
BRANCH  17  19
ATOM     18  C   UNL     1       7.270   4.693  17.318  0.00  0.00    +0.000 C 
ATOM     19  C   UNL     1       5.900   4.674  16.617  0.00  0.00    +0.000 C 
ATOM     20  C   UNL     1       5.563   6.081  16.100  0.00  0.00    +0.000 C 
ATOM     21  C   UNL     1       5.986   3.713  15.415  0.00  0.00    +0.000 C 
ENDBRANCH  17  19
ENDBRANCH  16  17
ENDBRANCH  15  16
ENDBRANCH  14  15
ENDBRANCH  13  14
ENDBRANCH  12  13
ENDBRANCH  11  12
ENDBRANCH   1  11
BRANCH   7  22
ATOM     22  C   UNL     1      -0.588  10.004  21.209  0.00  0.00    +0.000 C 
BRANCH  22  23
ATOM     23  C   UNL     1       0.183  10.638  22.373  0.00  0.00    +0.000 C 
BRANCH  23  24
ATOM     24  N   UNL     1       0.399   9.680  23.459  0.00  0.00    +0.000 NA
ATOM     25  H   UNL     1       1.399   9.585  23.633  0.00  0.00    +0.000 HD
ATOM     26  H   UNL     1       0.076   8.760  23.161  0.00  0.00    +0.000 HD
ENDBRANCH  23  24
ENDBRANCH  22  23
ENDBRANCH   7  22
TORSDOF 11
ENDMDL
MODEL 5
REMARK VINA RESULT:      -6.2      5.101      7.533
REMARK  Name = 
REMARK  14 active torsions:
REMARK  status: ('A' for Active; 'I' for Inactive)
REMARK    1  A    between atoms: C_1  and  C_2
REMARK    2  A    between atoms: C_2  and  C_3
REMARK    3  A    between atoms: C_2  and  C_4
REMARK    4  A    between atoms: C_2  and  C_5
REMARK    5  A    between atoms: C_5  and  C_6
REMARK    6  A    between atoms: C_6  and  C_7
REMARK    7  A    between atoms: C_7  and  C_8
REMARK    8  A    between atoms: C_8  and  C_9
REMARK    9  A    between atoms: C_9  and  C_10
REMARK   10  A    between atoms: C_10  and  O_11
REMARK   11  A    between atoms: O_11  and  C_12
REMARK   12  A    between atoms: C_18  and  C_19
REMARK   13  A    between atoms: C_19  and  C_20
REMARK   14  A    between atoms: C_20  and  N_21
REMARK                            x       y       z     vdW  Elec       q    Type
REMARK                         _______ _______ _______ _____ _____    ______ ____
ROOT
ATOM      1  C   UNL     1       5.086   5.058  18.066  0.00  0.00    +0.000 A 
ATOM      2  C   UNL     1       5.292   4.213  16.971  0.00  0.00    +0.000 A 
ATOM      3  C   UNL     1       4.416   3.160  16.699  0.00  0.00    +0.000 A 
ATOM      4  C   UNL     1       3.328   2.983  17.556  0.00  0.00    +0.000 A 
ATOM      5  N   UNL     1       2.331   2.038  17.533  0.00  0.00    +0.000 N 
ATOM      6  C   UNL     1       1.467   2.239  18.574  0.00  0.00    +0.000 A 
ATOM      7  C   UNL     1       1.899   3.334  19.297  0.00  0.00    +0.000 A 
ATOM      8  C   UNL     1       3.083   3.813  18.649  0.00  0.00    +0.000 A 
ATOM      9  C   UNL     1       3.976   4.871  18.900  0.00  0.00    +0.000 A 
ATOM     10  H   UNL     1       2.262   1.298  16.850  0.00  0.00    +0.000 HD
ENDROOT
BRANCH   1  11
ATOM     11  O   UNL     1       5.893   6.103  18.430  0.00  0.00    +0.000 OA
BRANCH  11  12
ATOM     12  C   UNL     1       6.134   7.075  17.422  0.00  0.00    +0.000 C 
BRANCH  12  13
ATOM     13  C   UNL     1       7.638   7.194  17.216  0.00  0.00    +0.000 C 
BRANCH  13  14
ATOM     14  C   UNL     1       8.228   8.047  18.327  0.00  0.00    +0.000 C 
BRANCH  14  15
ATOM     15  C   UNL     1       8.191   9.533  17.993  0.00  0.00    +0.000 C 
BRANCH  15  16
ATOM     16  C   UNL     1       9.229  10.325  18.793  0.00  0.00    +0.000 C 
BRANCH  16  17
ATOM     17  C   UNL     1      10.280  11.009  17.906  0.00  0.00    +0.000 C 
BRANCH  17  19
ATOM     18  C   UNL     1      11.161  12.597  19.683  0.00  0.00    +0.000 C 
ATOM     19  C   UNL     1      10.588  12.484  18.259  0.00  0.00    +0.000 C 
ATOM     20  C   UNL     1       9.328  13.353  18.136  0.00  0.00    +0.000 C 
ATOM     21  C   UNL     1      11.649  13.007  17.269  0.00  0.00    +0.000 C 
ENDBRANCH  17  19
ENDBRANCH  16  17
ENDBRANCH  15  16
ENDBRANCH  14  15
ENDBRANCH  13  14
ENDBRANCH  12  13
ENDBRANCH  11  12
ENDBRANCH   1  11
BRANCH   7  22
ATOM     22  C   UNL     1       1.253   3.893  20.527  0.00  0.00    +0.000 C 
BRANCH  22  23
ATOM     23  C   UNL     1       1.297   2.915  21.707  0.00  0.00    +0.000 C 
BRANCH  23  24
ATOM     24  N   UNL     1       2.669   2.512  22.021  0.00  0.00    +0.000 NA
ATOM     25  H   UNL     1       2.779   1.515  21.841  0.00  0.00    +0.000 HD
ATOM     26  H   UNL     1       2.834   2.640  23.019  0.00  0.00    +0.000 HD
ENDBRANCH  23  24
ENDBRANCH  22  23
ENDBRANCH   7  22
TORSDOF 11
ENDMDL
MODEL 6
REMARK VINA RESULT:      -6.1      3.853      7.478
REMARK  Name = 
REMARK  14 active torsions:
REMARK  status: ('A' for Active; 'I' for Inactive)
REMARK    1  A    between atoms: C_1  and  C_2
REMARK    2  A    between atoms: C_2  and  C_3
REMARK    3  A    between atoms: C_2  and  C_4
REMARK    4  A    between atoms: C_2  and  C_5
REMARK    5  A    between atoms: C_5  and  C_6
REMARK    6  A    between atoms: C_6  and  C_7
REMARK    7  A    between atoms: C_7  and  C_8
REMARK    8  A    between atoms: C_8  and  C_9
REMARK    9  A    between atoms: C_9  and  C_10
REMARK   10  A    between atoms: C_10  and  O_11
REMARK   11  A    between atoms: O_11  and  C_12
REMARK   12  A    between atoms: C_18  and  C_19
REMARK   13  A    between atoms: C_19  and  C_20
REMARK   14  A    between atoms: C_20  and  N_21
REMARK                            x       y       z     vdW  Elec       q    Type
REMARK                         _______ _______ _______ _____ _____    ______ ____
ROOT
ATOM      1  C   UNL     1       2.372   6.800  19.649  0.00  0.00    +0.000 A 
ATOM      2  C   UNL     1       2.748   7.066  18.329  0.00  0.00    +0.000 A 
ATOM      3  C   UNL     1       2.401   8.269  17.709  0.00  0.00    +0.000 A 
ATOM      4  C   UNL     1       1.669   9.195  18.453  0.00  0.00    +0.000 A 
ATOM      5  N   UNL     1       1.191  10.433  18.098  0.00  0.00    +0.000 N 
ATOM      6  C   UNL     1       0.518  10.997  19.147  0.00  0.00    +0.000 A 
ATOM      7  C   UNL     1       0.551  10.119  20.213  0.00  0.00    +0.000 A 
ATOM      8  C   UNL     1       1.286   8.971  19.776  0.00  0.00    +0.000 A 
ATOM      9  C   UNL     1       1.653   7.754  20.381  0.00  0.00    +0.000 A 
ATOM     10  H   UNL     1       1.312  10.851  17.188  0.00  0.00    +0.000 HD
ENDROOT
BRANCH   1  11
ATOM     11  O   UNL     1       2.644   5.650  20.340  0.00  0.00    +0.000 OA
BRANCH  11  12
ATOM     12  C   UNL     1       1.533   4.793  20.570  0.00  0.00    +0.000 C 
BRANCH  12  13
ATOM     13  C   UNL     1       1.697   3.549  19.709  0.00  0.00    +0.000 C 
BRANCH  13  14
ATOM     14  C   UNL     1       3.093   2.981  19.911  0.00  0.00    +0.000 C 
BRANCH  14  15
ATOM     15  C   UNL     1       3.771   2.637  18.591  0.00  0.00    +0.000 C 
BRANCH  15  16
ATOM     16  C   UNL     1       4.568   3.819  18.032  0.00  0.00    +0.000 C 
BRANCH  16  17
ATOM     17  C   UNL     1       4.488   3.929  16.501  0.00  0.00    +0.000 C 
BRANCH  17  19
ATOM     18  C   UNL     1       5.833   4.258  14.371  0.00  0.00    +0.000 C 
ATOM     19  C   UNL     1       5.646   4.708  15.831  0.00  0.00    +0.000 C 
ATOM     20  C   UNL     1       6.958   4.516  16.606  0.00  0.00    +0.000 C 
ATOM     21  C   UNL     1       5.284   6.206  15.831  0.00  0.00    +0.000 C 
ENDBRANCH  17  19
ENDBRANCH  16  17
ENDBRANCH  15  16
ENDBRANCH  14  15
ENDBRANCH  13  14
ENDBRANCH  12  13
ENDBRANCH  11  12
ENDBRANCH   1  11
BRANCH   7  22
ATOM     22  C   UNL     1      -0.077  10.333  21.555  0.00  0.00    +0.000 C 
BRANCH  22  23
ATOM     23  C   UNL     1      -0.737  11.710  21.680  0.00  0.00    +0.000 C 
BRANCH  23  24
ATOM     24  N   UNL     1      -0.958  12.075  23.082  0.00  0.00    +0.000 NA
ATOM     25  H   UNL     1      -0.464  12.942  23.288  0.00  0.00    +0.000 HD
ATOM     26  H   UNL     1      -0.541  11.362  23.681  0.00  0.00    +0.000 HD
ENDBRANCH  23  24
ENDBRANCH  22  23
ENDBRANCH   7  22
TORSDOF 11
ENDMDL
MODEL 7
REMARK VINA RESULT:      -6.0      1.413      3.265
REMARK  Name = 
REMARK  14 active torsions:
REMARK  status: ('A' for Active; 'I' for Inactive)
REMARK    1  A    between atoms: C_1  and  C_2
REMARK    2  A    between atoms: C_2  and  C_3
REMARK    3  A    between atoms: C_2  and  C_4
REMARK    4  A    between atoms: C_2  and  C_5
REMARK    5  A    between atoms: C_5  and  C_6
REMARK    6  A    between atoms: C_6  and  C_7
REMARK    7  A    between atoms: C_7  and  C_8
REMARK    8  A    between atoms: C_8  and  C_9
REMARK    9  A    between atoms: C_9  and  C_10
REMARK   10  A    between atoms: C_10  and  O_11
REMARK   11  A    between atoms: O_11  and  C_12
REMARK   12  A    between atoms: C_18  and  C_19
REMARK   13  A    between atoms: C_19  and  C_20
REMARK   14  A    between atoms: C_20  and  N_21
REMARK                            x       y       z     vdW  Elec       q    Type
REMARK                         _______ _______ _______ _____ _____    ______ ____
ROOT
ATOM      1  C   UNL     1       5.684   4.141  16.225  0.00  0.00    +0.000 A 
ATOM      2  C   UNL     1       6.606   5.178  16.396  0.00  0.00    +0.000 A 
ATOM      3  C   UNL     1       7.384   5.633  15.329  0.00  0.00    +0.000 A 
ATOM      4  C   UNL     1       7.207   5.019  14.088  0.00  0.00    +0.000 A 
ATOM      5  N   UNL     1       7.836   5.254  12.890  0.00  0.00    +0.000 N 
ATOM      6  C   UNL     1       7.350   4.409  11.929  0.00  0.00    +0.000 A 
ATOM      7  C   UNL     1       6.385   3.604  12.501  0.00  0.00    +0.000 A 
ATOM      8  C   UNL     1       6.289   3.991  13.876  0.00  0.00    +0.000 A 
ATOM      9  C   UNL     1       5.512   3.553  14.965  0.00  0.00    +0.000 A 
ATOM     10  H   UNL     1       8.560   5.943  12.750  0.00  0.00    +0.000 HD
ENDROOT
BRANCH   1  11
ATOM     11  O   UNL     1       4.890   3.610  17.206  0.00  0.00    +0.000 OA
BRANCH  11  12
ATOM     12  C   UNL     1       3.571   4.134  17.282  0.00  0.00    +0.000 C 
BRANCH  12  13
ATOM     13  C   UNL     1       3.651   5.575  17.764  0.00  0.00    +0.000 C 
BRANCH  13  14
ATOM     14  C   UNL     1       2.284   6.012  18.263  0.00  0.00    +0.000 C 
BRANCH  14  15
ATOM     15  C   UNL     1       2.347   6.616  19.661  0.00  0.00    +0.000 C 
BRANCH  15  16
ATOM     16  C   UNL     1       1.989   5.594  20.742  0.00  0.00    +0.000 C 
BRANCH  16  17
ATOM     17  C   UNL     1       1.175   4.407  20.204  0.00  0.00    +0.000 C 
BRANCH  17  19
ATOM     18  C   UNL     1       1.293   2.447  21.816  0.00  0.00    +0.000 C 
ATOM     19  C   UNL     1       1.783   3.009  20.469  0.00  0.00    +0.000 C 
ATOM     20  C   UNL     1       3.318   3.068  20.459  0.00  0.00    +0.000 C 
ATOM     21  C   UNL     1       1.317   2.058  19.350  0.00  0.00    +0.000 C 
ENDBRANCH  17  19
ENDBRANCH  16  17
ENDBRANCH  15  16
ENDBRANCH  14  15
ENDBRANCH  13  14
ENDBRANCH  12  13
ENDBRANCH  11  12
ENDBRANCH   1  11
BRANCH   7  22
ATOM     22  C   UNL     1       5.608   2.526  11.810  0.00  0.00    +0.000 C 
BRANCH  22  23
ATOM     23  C   UNL     1       6.512   1.545  11.055  0.00  0.00    +0.000 C 
BRANCH  23  24
ATOM     24  N   UNL     1       6.217   0.156  11.417  0.00  0.00    +0.000 NA
ATOM     25  H   UNL     1       6.483  -0.005  12.387  0.00  0.00    +0.000 HD
ATOM     26  H   UNL     1       6.801  -0.464  10.857  0.00  0.00    +0.000 HD
ENDBRANCH  23  24
ENDBRANCH  22  23
ENDBRANCH   7  22
TORSDOF 11
ENDMDL
MODEL 8
REMARK VINA RESULT:      -6.0      3.769      6.465
REMARK  Name = 
REMARK  14 active torsions:
REMARK  status: ('A' for Active; 'I' for Inactive)
REMARK    1  A    between atoms: C_1  and  C_2
REMARK    2  A    between atoms: C_2  and  C_3
REMARK    3  A    between atoms: C_2  and  C_4
REMARK    4  A    between atoms: C_2  and  C_5
REMARK    5  A    between atoms: C_5  and  C_6
REMARK    6  A    between atoms: C_6  and  C_7
REMARK    7  A    between atoms: C_7  and  C_8
REMARK    8  A    between atoms: C_8  and  C_9
REMARK    9  A    between atoms: C_9  and  C_10
REMARK   10  A    between atoms: C_10  and  O_11
REMARK   11  A    between atoms: O_11  and  C_12
REMARK   12  A    between atoms: C_18  and  C_19
REMARK   13  A    between atoms: C_19  and  C_20
REMARK   14  A    between atoms: C_20  and  N_21
REMARK                            x       y       z     vdW  Elec       q    Type
REMARK                         _______ _______ _______ _____ _____    ______ ____
ROOT
ATOM      1  C   UNL     1       3.515   6.600  17.858  0.00  0.00    +0.000 A 
ATOM      2  C   UNL     1       4.597   6.114  17.118  0.00  0.00    +0.000 A 
ATOM      3  C   UNL     1       4.839   4.742  17.011  0.00  0.00    +0.000 A 
ATOM      4  C   UNL     1       3.962   3.876  17.667  0.00  0.00    +0.000 A 
ATOM      5  N   UNL     1       3.967   2.504  17.741  0.00  0.00    +0.000 N 
ATOM      6  C   UNL     1       2.915   2.069  18.500  0.00  0.00    +0.000 A 
ATOM      7  C   UNL     1       2.203   3.170  18.934  0.00  0.00    +0.000 A 
ATOM      8  C   UNL     1       2.865   4.323  18.404  0.00  0.00    +0.000 A 
ATOM      9  C   UNL     1       2.639   5.710  18.491  0.00  0.00    +0.000 A 
ATOM     10  H   UNL     1       4.658   1.912  17.306  0.00  0.00    +0.000 HD
ENDROOT
BRANCH   1  11
ATOM     11  O   UNL     1       3.203   7.921  18.040  0.00  0.00    +0.000 OA
BRANCH  11  12
ATOM     12  C   UNL     1       1.885   8.299  17.665  0.00  0.00    +0.000 C 
BRANCH  12  13
ATOM     13  C   UNL     1       1.303   9.176  18.764  0.00  0.00    +0.000 C 
BRANCH  13  14
ATOM     14  C   UNL     1       1.518  10.637  18.404  0.00  0.00    +0.000 C 
BRANCH  14  15
ATOM     15  C   UNL     1       0.317  11.502  18.768  0.00  0.00    +0.000 C 
BRANCH  15  16
ATOM     16  C   UNL     1      -1.008  10.792  18.478  0.00  0.00    +0.000 C 
BRANCH  16  17
ATOM     17  C   UNL     1      -1.989  11.653  17.668  0.00  0.00    +0.000 C 
BRANCH  17  19
ATOM     18  C   UNL     1      -2.760  10.623  15.477  0.00  0.00    +0.000 C 
ATOM     19  C   UNL     1      -3.120  10.876  16.952  0.00  0.00    +0.000 C 
ATOM     20  C   UNL     1      -4.450  11.639  17.039  0.00  0.00    +0.000 C 
ATOM     21  C   UNL     1      -3.286   9.511  17.649  0.00  0.00    +0.000 C 
ENDBRANCH  17  19
ENDBRANCH  16  17
ENDBRANCH  15  16
ENDBRANCH  14  15
ENDBRANCH  13  14
ENDBRANCH  12  13
ENDBRANCH  11  12
ENDBRANCH   1  11
BRANCH   7  22
ATOM     22  C   UNL     1       0.985   3.149  19.805  0.00  0.00    +0.000 C 
BRANCH  22  23
ATOM     23  C   UNL     1       1.276   2.602  21.207  0.00  0.00    +0.000 C 
BRANCH  23  24
ATOM     24  N   UNL     1       2.231   3.448  21.926  0.00  0.00    +0.000 NA
ATOM     25  H   UNL     1       3.086   2.921  22.102  0.00  0.00    +0.000 HD
ATOM     26  H   UNL     1       1.848   3.678  22.843  0.00  0.00    +0.000 HD
ENDBRANCH  23  24
ENDBRANCH  22  23
ENDBRANCH   7  22
TORSDOF 11
ENDMDL
MODEL 9
REMARK VINA RESULT:      -6.0      1.286      1.978
REMARK  Name = 
REMARK  14 active torsions:
REMARK  status: ('A' for Active; 'I' for Inactive)
REMARK    1  A    between atoms: C_1  and  C_2
REMARK    2  A    between atoms: C_2  and  C_3
REMARK    3  A    between atoms: C_2  and  C_4
REMARK    4  A    between atoms: C_2  and  C_5
REMARK    5  A    between atoms: C_5  and  C_6
REMARK    6  A    between atoms: C_6  and  C_7
REMARK    7  A    between atoms: C_7  and  C_8
REMARK    8  A    between atoms: C_8  and  C_9
REMARK    9  A    between atoms: C_9  and  C_10
REMARK   10  A    between atoms: C_10  and  O_11
REMARK   11  A    between atoms: O_11  and  C_12
REMARK   12  A    between atoms: C_18  and  C_19
REMARK   13  A    between atoms: C_19  and  C_20
REMARK   14  A    between atoms: C_20  and  N_21
REMARK                            x       y       z     vdW  Elec       q    Type
REMARK                         _______ _______ _______ _____ _____    ______ ____
ROOT
ATOM      1  C   UNL     1       5.087   4.164  16.696  0.00  0.00    +0.000 A 
ATOM      2  C   UNL     1       6.012   5.117  17.130  0.00  0.00    +0.000 A 
ATOM      3  C   UNL     1       6.988   5.620  16.267  0.00  0.00    +0.000 A 
ATOM      4  C   UNL     1       7.005   5.139  14.956  0.00  0.00    +0.000 A 
ATOM      5  N   UNL     1       7.847   5.444  13.914  0.00  0.00    +0.000 N 
ATOM      6  C   UNL     1       7.499   4.729  12.802  0.00  0.00    +0.000 A 
ATOM      7  C   UNL     1       6.410   3.937  13.112  0.00  0.00    +0.000 A 
ATOM      8  C   UNL     1       6.091   4.198  14.483  0.00  0.00    +0.000 A 
ATOM      9  C   UNL     1       5.112   3.711  15.370  0.00  0.00    +0.000 A 
ATOM     10  H   UNL     1       8.616   6.095  13.975  0.00  0.00    +0.000 HD
ENDROOT
BRANCH   1  11
ATOM     11  O   UNL     1       4.106   3.595  17.464  0.00  0.00    +0.000 OA
BRANCH  11  12
ATOM     12  C   UNL     1       3.930   2.194  17.300  0.00  0.00    +0.000 C 
BRANCH  12  13
ATOM     13  C   UNL     1       3.207   1.652  18.525  0.00  0.00    +0.000 C 
BRANCH  13  14
ATOM     14  C   UNL     1       1.797   2.219  18.565  0.00  0.00    +0.000 C 
BRANCH  14  15
ATOM     15  C   UNL     1       1.314   2.460  19.990  0.00  0.00    +0.000 C 
BRANCH  15  16
ATOM     16  C   UNL     1       1.178   3.953  20.303  0.00  0.00    +0.000 C 
BRANCH  16  17
ATOM     17  C   UNL     1       1.495   4.852  19.098  0.00  0.00    +0.000 C 
BRANCH  17  19
ATOM     18  C   UNL     1       2.534   6.971  18.158  0.00  0.00    +0.000 C 
ATOM     19  C   UNL     1       2.400   6.071  19.399  0.00  0.00    +0.000 C 
ATOM     20  C   UNL     1       3.792   5.619  19.866  0.00  0.00    +0.000 C 
ATOM     21  C   UNL     1       1.744   6.895  20.524  0.00  0.00    +0.000 C 
ENDBRANCH  17  19
ENDBRANCH  16  17
ENDBRANCH  15  16
ENDBRANCH  14  15
ENDBRANCH  13  14
ENDBRANCH  12  13
ENDBRANCH  11  12
ENDBRANCH   1  11
BRANCH   7  22
ATOM     22  C   UNL     1       5.717   2.984  12.188  0.00  0.00    +0.000 C 
BRANCH  22  23
ATOM     23  C   UNL     1       6.701   2.186  11.324  0.00  0.00    +0.000 C 
BRANCH  23  24
ATOM     24  N   UNL     1       6.354   0.764  11.288  0.00  0.00    +0.000 NA
ATOM     25  H   UNL     1       5.364   0.651  11.505  0.00  0.00    +0.000 HD
ATOM     26  H   UNL     1       6.863   0.278  12.027  0.00  0.00    +0.000 HD
ENDBRANCH  23  24
ENDBRANCH  22  23
ENDBRANCH   7  22
TORSDOF 11
ENDMDL
