MODEL 1
REMARK VINA RESULT:      -8.7      0.000      0.000
REMARK  Name = 
REMARK  12 active torsions:
REMARK  status: ('A' for Active; 'I' for Inactive)
REMARK    1  A    between atoms: C_2  and  O_3
REMARK    2  A    between atoms: C_2  and  C_4
REMARK    3  A    between atoms: C_4  and  C_5
REMARK    4  A    between atoms: C_5  and  N_6
REMARK    5  A    between atoms: C_5  and  C_17
REMARK    6  A    between atoms: C_7  and  O_9
REMARK    7  A    between atoms: O_9  and  C_10
REMARK    8  A    between atoms: C_10  and  C_11
REMARK    9  A    between atoms: C_17  and  C_19
REMARK   10  A    between atoms: C_19  and  O_20
REMARK   11  A    between atoms: O_20  and  C_21
REMARK   12  A    between atoms: C_22  and  C_23
REMARK                            x       y       z     vdW  Elec       q    Type
REMARK                         _______ _______ _______ _____ _____    ______ ____
ROOT
ATOM      1  C   UNL     1       6.315   6.046  16.757  0.00  0.00    +0.000 C 
ENDROOT
BRANCH   1   2
ATOM      2  N   UNL     1       7.145   7.240  16.797  0.00  0.00    +0.000 N 
ATOM      3  C   UNL     1       7.862   7.637  17.881  0.00  0.00    +0.000 C 
ATOM      4  O   UNL     1       7.878   7.063  18.962  0.00  0.00    +0.000 OA
ATOM      5  H   UNL     1       7.129   7.928  16.056  0.00  0.00    +0.000 HD
BRANCH   3   6
ATOM      6  O   UNL     1       8.503   8.787  17.573  0.00  0.00    +0.000 OA
BRANCH   6   7
ATOM      7  C   UNL     1       8.706   9.713  18.649  0.00  0.00    +0.000 C 
BRANCH   7   8
ATOM      8  C   UNL     1       9.418  10.972  18.212  0.00  0.00    +0.000 A 
ATOM      9  C   UNL     1      10.809  10.993  18.040  0.00  0.00    +0.000 A 
ATOM     10  C   UNL     1      11.449  12.142  17.561  0.00  0.00    +0.000 A 
ATOM     11  C   UNL     1      10.707  13.280  17.258  0.00  0.00    +0.000 A 
ATOM     12  C   UNL     1       9.324  13.275  17.440  0.00  0.00    +0.000 A 
ATOM     13  C   UNL     1       8.683  12.128  17.920  0.00  0.00    +0.000 A 
ENDBRANCH   7   8
ENDBRANCH   6   7
ENDBRANCH   3   6
ENDBRANCH   1   2
BRANCH   1  14
ATOM     14  C   UNL     1       7.002   4.871  17.477  0.00  0.00    +0.000 C 
ATOM     15  O   UNL     1       8.057   4.398  17.037  0.00  0.00    +0.000 OA
BRANCH  14  16
ATOM     16  C   UNL     1       6.401   4.348  18.774  0.00  0.00    +0.000 C 
BRANCH  16  17
ATOM     17  O   UNL     1       5.127   4.957  18.932  0.00  0.00    +0.000 OA
BRANCH  17  18
ATOM     18  C   UNL     1       4.011   4.305  18.454  0.00  0.00    +0.000 C 
ATOM     19  C   UNL     1       2.812   4.908  18.327  0.00  0.00    +0.000 C 
ATOM     20  C   UNL     1       1.947   3.883  17.683  0.00  0.00    +0.000 C 
ATOM     21  O   UNL     1       0.784   4.061  17.343  0.00  0.00    +0.000 OA
ATOM     22  C   UNL     1       2.648   2.568  17.535  0.00  0.00    +0.000 C 
ATOM     23  C   UNL     1       4.077   2.906  17.911  0.00  0.00    +0.000 C 
BRANCH  19  24
ATOM     24  C   UNL     1       2.421   6.281  18.681  0.00  0.00    +0.000 A 
ATOM     25  C   UNL     1       2.055   6.621  19.993  0.00  0.00    +0.000 A 
ATOM     26  C   UNL     1       1.705   7.932  20.332  0.00  0.00    +0.000 A 
ATOM     27  C   UNL     1       1.704   8.928  19.361  0.00  0.00    +0.000 A 
ATOM     28  C   UNL     1       2.062   8.615  18.054  0.00  0.00    +0.000 A 
ATOM     29  C   UNL     1       2.425   7.307  17.721  0.00  0.00    +0.000 A 
ENDBRANCH  19  24
ENDBRANCH  17  18
ENDBRANCH  16  17
ENDBRANCH  14  16
ENDBRANCH   1  14
BRANCH   1  30
ATOM     30  C   UNL     1       5.743   5.650  15.384  0.00  0.00    +0.000 C 
BRANCH  30  32
ATOM     31  O   UNL     1       7.667   5.533  13.934  0.00  0.00    +0.000 OA
ATOM     32  C   UNL     1       6.726   4.968  14.472  0.00  0.00    +0.000 C 
BRANCH  32  33
ATOM     33  O   UNL     1       6.480   3.655  14.279  0.00  0.00    +0.000 OA
ATOM     34  H   UNL     1       6.312   3.374  13.357  0.00  0.00    +0.000 HD
ENDBRANCH  32  33
ENDBRANCH  30  32
ENDBRANCH   1  30
TORSDOF 12
ENDMDL
MODEL 2
REMARK VINA RESULT:      -8.5      2.915      7.492
REMARK  Name = 
REMARK  12 active torsions:
REMARK  status: ('A' for Active; 'I' for Inactive)
REMARK    1  A    between atoms: C_2  and  O_3
REMARK    2  A    between atoms: C_2  and  C_4
REMARK    3  A    between atoms: C_4  and  C_5
REMARK    4  A    between atoms: C_5  and  N_6
REMARK    5  A    between atoms: C_5  and  C_17
REMARK    6  A    between atoms: C_7  and  O_9
REMARK    7  A    between atoms: O_9  and  C_10
REMARK    8  A    between atoms: C_10  and  C_11
REMARK    9  A    between atoms: C_17  and  C_19
REMARK   10  A    between atoms: C_19  and  O_20
REMARK   11  A    between atoms: O_20  and  C_21
REMARK   12  A    between atoms: C_22  and  C_23
REMARK                            x       y       z     vdW  Elec       q    Type
REMARK                         _______ _______ _______ _____ _____    ______ ____
ROOT
ATOM      1  C   UNL     1       2.140   4.222  19.469  0.00  0.00    +0.000 C 
ENDROOT
BRANCH   1   2
ATOM      2  N   UNL     1       1.761   5.599  19.742  0.00  0.00    +0.000 N 
ATOM      3  C   UNL     1       2.559   6.674  19.506  0.00  0.00    +0.000 C 
ATOM      4  O   UNL     1       3.700   6.618  19.066  0.00  0.00    +0.000 OA
ATOM      5  H   UNL     1       0.923   5.831  20.257  0.00  0.00    +0.000 HD
BRANCH   3   6
ATOM      6  O   UNL     1       1.897   7.790  19.885  0.00  0.00    +0.000 OA
BRANCH   6   7
ATOM      7  C   UNL     1       1.271   7.753  21.175  0.00  0.00    +0.000 C 
BRANCH   7   8
ATOM      8  C   UNL     1       0.435   8.980  21.455  0.00  0.00    +0.000 A 
ATOM      9  C   UNL     1      -0.073   9.232  22.736  0.00  0.00    +0.000 A 
ATOM     10  C   UNL     1      -0.782  10.410  23.002  0.00  0.00    +0.000 A 
ATOM     11  C   UNL     1      -0.996  11.340  21.989  0.00  0.00    +0.000 A 
ATOM     12  C   UNL     1      -0.508  11.092  20.706  0.00  0.00    +0.000 A 
ATOM     13  C   UNL     1       0.199   9.915  20.438  0.00  0.00    +0.000 A 
ENDBRANCH   7   8
ENDBRANCH   6   7
ENDBRANCH   3   6
ENDBRANCH   1   2
BRANCH   1  14
ATOM     14  C   UNL     1       2.212   3.959  17.953  0.00  0.00    +0.000 C 
ATOM     15  O   UNL     1       1.256   4.245  17.222  0.00  0.00    +0.000 OA
BRANCH  14  16
ATOM     16  C   UNL     1       3.501   3.405  17.361  0.00  0.00    +0.000 C 
BRANCH  16  17
ATOM     17  O   UNL     1       4.384   4.500  17.157  0.00  0.00    +0.000 OA
BRANCH  17  18
ATOM     18  C   UNL     1       5.144   4.539  16.009  0.00  0.00    +0.000 C 
ATOM     19  C   UNL     1       6.333   5.171  15.942  0.00  0.00    +0.000 C 
ATOM     20  C   UNL     1       6.840   4.866  14.576  0.00  0.00    +0.000 C 
ATOM     21  O   UNL     1       7.929   5.215  14.139  0.00  0.00    +0.000 OA
ATOM     22  C   UNL     1       5.836   4.114  13.759  0.00  0.00    +0.000 C 
ATOM     23  C   UNL     1       4.769   3.765  14.778  0.00  0.00    +0.000 C 
BRANCH  19  24
ATOM     24  C   UNL     1       7.031   5.947  16.978  0.00  0.00    +0.000 A 
ATOM     25  C   UNL     1       7.244   7.328  16.835  0.00  0.00    +0.000 A 
ATOM     26  C   UNL     1       7.889   8.069  17.831  0.00  0.00    +0.000 A 
ATOM     27  C   UNL     1       8.343   7.440  18.986  0.00  0.00    +0.000 A 
ATOM     28  C   UNL     1       8.145   6.074  19.148  0.00  0.00    +0.000 A 
ATOM     29  C   UNL     1       7.488   5.338  18.158  0.00  0.00    +0.000 A 
ENDBRANCH  19  24
ENDBRANCH  17  18
ENDBRANCH  16  17
ENDBRANCH  14  16
ENDBRANCH   1  14
BRANCH   1  30
ATOM     30  C   UNL     1       1.364   3.130  20.225  0.00  0.00    +0.000 C 
BRANCH  30  32
ATOM     31  O   UNL     1       3.231   2.420  21.577  0.00  0.00    +0.000 OA
ATOM     32  C   UNL     1       2.033   2.645  21.482  0.00  0.00    +0.000 C 
BRANCH  32  33
ATOM     33  O   UNL     1       1.191   2.463  22.521  0.00  0.00    +0.000 OA
ATOM     34  H   UNL     1       1.437   1.769  23.165  0.00  0.00    +0.000 HD
ENDBRANCH  32  33
ENDBRANCH  30  32
ENDBRANCH   1  30
TORSDOF 12
ENDMDL
MODEL 3
REMARK VINA RESULT:      -8.5      4.217      8.691
REMARK  Name = 
REMARK  12 active torsions:
REMARK  status: ('A' for Active; 'I' for Inactive)
REMARK    1  A    between atoms: C_2  and  O_3
REMARK    2  A    between atoms: C_2  and  C_4
REMARK    3  A    between atoms: C_4  and  C_5
REMARK    4  A    between atoms: C_5  and  N_6
REMARK    5  A    between atoms: C_5  and  C_17
REMARK    6  A    between atoms: C_7  and  O_9
REMARK    7  A    between atoms: O_9  and  C_10
REMARK    8  A    between atoms: C_10  and  C_11
REMARK    9  A    between atoms: C_17  and  C_19
REMARK   10  A    between atoms: C_19  and  O_20
REMARK   11  A    between atoms: O_20  and  C_21
REMARK   12  A    between atoms: C_22  and  C_23
REMARK                            x       y       z     vdW  Elec       q    Type
REMARK                         _______ _______ _______ _____ _____    ______ ____
ROOT
ATOM      1  C   UNL     1       1.713   9.104  19.555  0.00  0.00    +0.000 C 
ENDROOT
BRANCH   1   2
ATOM      2  N   UNL     1       0.626   9.993  19.176  0.00  0.00    +0.000 N 
ATOM      3  C   UNL     1       0.664  11.346  19.304  0.00  0.00    +0.000 C 
ATOM      4  O   UNL     1       1.596  11.981  19.779  0.00  0.00    +0.000 OA
ATOM      5  H   UNL     1      -0.287   9.643  18.918  0.00  0.00    +0.000 HD
BRANCH   3   6
ATOM      6  O   UNL     1      -0.513  11.851  18.869  0.00  0.00    +0.000 OA
BRANCH   6   7
ATOM      7  C   UNL     1      -1.677  11.046  19.100  0.00  0.00    +0.000 C 
BRANCH   7   8
ATOM      8  C   UNL     1      -2.499  10.833  17.850  0.00  0.00    +0.000 A 
ATOM      9  C   UNL     1      -3.732  11.476  17.678  0.00  0.00    +0.000 A 
ATOM     10  C   UNL     1      -4.449  11.332  16.484  0.00  0.00    +0.000 A 
ATOM     11  C   UNL     1      -3.944  10.539  15.457  0.00  0.00    +0.000 A 
ATOM     12  C   UNL     1      -2.725   9.882  15.623  0.00  0.00    +0.000 A 
ATOM     13  C   UNL     1      -2.008  10.024  16.816  0.00  0.00    +0.000 A 
ENDBRANCH   7   8
ENDBRANCH   6   7
ENDBRANCH   3   6
ENDBRANCH   1   2
BRANCH   1  14
ATOM     14  C   UNL     1       2.266   8.355  18.328  0.00  0.00    +0.000 C 
ATOM     15  O   UNL     1       2.203   8.864  17.203  0.00  0.00    +0.000 OA
BRANCH  14  16
ATOM     16  C   UNL     1       2.953   7.012  18.532  0.00  0.00    +0.000 C 
BRANCH  16  17
ATOM     17  O   UNL     1       3.764   6.766  17.391  0.00  0.00    +0.000 OA
BRANCH  17  18
ATOM     18  C   UNL     1       5.091   6.442  17.572  0.00  0.00    +0.000 C 
ATOM     19  C   UNL     1       5.499   5.205  17.917  0.00  0.00    +0.000 C 
ATOM     20  C   UNL     1       6.985   5.283  17.893  0.00  0.00    +0.000 C 
ATOM     21  O   UNL     1       7.739   4.341  18.096  0.00  0.00    +0.000 OA
ATOM     22  C   UNL     1       7.470   6.676  17.636  0.00  0.00    +0.000 C 
ATOM     23  C   UNL     1       6.196   7.412  17.269  0.00  0.00    +0.000 C 
BRANCH  19  24
ATOM     24  C   UNL     1       4.693   4.008  18.205  0.00  0.00    +0.000 A 
ATOM     25  C   UNL     1       4.669   3.436  19.486  0.00  0.00    +0.000 A 
ATOM     26  C   UNL     1       3.885   2.311  19.764  0.00  0.00    +0.000 A 
ATOM     27  C   UNL     1       3.118   1.729  18.759  0.00  0.00    +0.000 A 
ATOM     28  C   UNL     1       3.128   2.277  17.482  0.00  0.00    +0.000 A 
ATOM     29  C   UNL     1       3.900   3.410  17.211  0.00  0.00    +0.000 A 
ENDBRANCH  19  24
ENDBRANCH  17  18
ENDBRANCH  16  17
ENDBRANCH  14  16
ENDBRANCH   1  14
BRANCH   1  30
ATOM     30  C   UNL     1       1.457   8.174  20.754  0.00  0.00    +0.000 C 
BRANCH  30  32
ATOM     31  O   UNL     1       1.515   9.425  22.815  0.00  0.00    +0.000 OA
ATOM     32  C   UNL     1       0.860   8.854  21.955  0.00  0.00    +0.000 C 
BRANCH  32  33
ATOM     33  O   UNL     1      -0.486   8.777  22.020  0.00  0.00    +0.000 OA
ATOM     34  H   UNL     1      -0.883   8.831  22.913  0.00  0.00    +0.000 HD
ENDBRANCH  32  33
ENDBRANCH  30  32
ENDBRANCH   1  30
TORSDOF 12
ENDMDL
MODEL 4
REMARK VINA RESULT:      -8.4      1.379      1.741
REMARK  Name = 
REMARK  12 active torsions:
REMARK  status: ('A' for Active; 'I' for Inactive)
REMARK    1  A    between atoms: C_2  and  O_3
REMARK    2  A    between atoms: C_2  and  C_4
REMARK    3  A    between atoms: C_4  and  C_5
REMARK    4  A    between atoms: C_5  and  N_6
REMARK    5  A    between atoms: C_5  and  C_17
REMARK    6  A    between atoms: C_7  and  O_9
REMARK    7  A    between atoms: O_9  and  C_10
REMARK    8  A    between atoms: C_10  and  C_11
REMARK    9  A    between atoms: C_17  and  C_19
REMARK   10  A    between atoms: C_19  and  O_20
REMARK   11  A    between atoms: O_20  and  C_21
REMARK   12  A    between atoms: C_22  and  C_23
REMARK                            x       y       z     vdW  Elec       q    Type
REMARK                         _______ _______ _______ _____ _____    ______ ____
ROOT
ATOM      1  C   UNL     1       7.151   5.728  17.973  0.00  0.00    +0.000 C 
ENDROOT
BRANCH   1   2
ATOM      2  N   UNL     1       7.886   6.980  18.059  0.00  0.00    +0.000 N 
ATOM      3  C   UNL     1       7.518   8.127  17.430  0.00  0.00    +0.000 C 
ATOM      4  O   UNL     1       6.549   8.244  16.691  0.00  0.00    +0.000 OA
ATOM      5  H   UNL     1       8.799   7.036  18.488  0.00  0.00    +0.000 HD
BRANCH   3   6
ATOM      6  O   UNL     1       8.428   9.085  17.718  0.00  0.00    +0.000 OA
BRANCH   6   7
ATOM      7  C   UNL     1       8.828   9.192  19.091  0.00  0.00    +0.000 C 
BRANCH   7   8
ATOM      8  C   UNL     1       9.507  10.505  19.403  0.00  0.00    +0.000 A 
ATOM      9  C   UNL     1       9.451  11.061  20.688  0.00  0.00    +0.000 A 
ATOM     10  C   UNL     1      10.147  12.239  20.985  0.00  0.00    +0.000 A 
ATOM     11  C   UNL     1      10.895  12.876  19.998  0.00  0.00    +0.000 A 
ATOM     12  C   UNL     1      10.944  12.340  18.712  0.00  0.00    +0.000 A 
ATOM     13  C   UNL     1      10.249  11.164  18.413  0.00  0.00    +0.000 A 
ENDBRANCH   7   8
ENDBRANCH   6   7
ENDBRANCH   3   6
ENDBRANCH   1   2
BRANCH   1  14
ATOM     14  C   UNL     1       6.904   5.135  19.373  0.00  0.00    +0.000 C 
ATOM     15  O   UNL     1       7.574   5.515  20.341  0.00  0.00    +0.000 OA
BRANCH  14  16
ATOM     16  C   UNL     1       5.779   4.127  19.558  0.00  0.00    +0.000 C 
BRANCH  16  17
ATOM     17  O   UNL     1       4.883   4.277  18.465  0.00  0.00    +0.000 OA
BRANCH  17  18
ATOM     18  C   UNL     1       3.687   3.594  18.484  0.00  0.00    +0.000 C 
ATOM     19  C   UNL     1       2.511   4.189  18.770  0.00  0.00    +0.000 C 
ATOM     20  C   UNL     1       1.495   3.121  18.568  0.00  0.00    +0.000 C 
ATOM     21  O   UNL     1       0.285   3.276  18.674  0.00  0.00    +0.000 OA
ATOM     22  C   UNL     1       2.124   1.797  18.263  0.00  0.00    +0.000 C 
ATOM     23  C   UNL     1       3.582   2.159  18.056  0.00  0.00    +0.000 C 
BRANCH  19  24
ATOM     24  C   UNL     1       2.246   5.587  19.145  0.00  0.00    +0.000 A 
ATOM     25  C   UNL     1       1.805   5.924  20.435  0.00  0.00    +0.000 A 
ATOM     26  C   UNL     1       1.573   7.255  20.798  0.00  0.00    +0.000 A 
ATOM     27  C   UNL     1       1.768   8.275  19.871  0.00  0.00    +0.000 A 
ATOM     28  C   UNL     1       2.202   7.964  18.587  0.00  0.00    +0.000 A 
ATOM     29  C   UNL     1       2.447   6.635  18.232  0.00  0.00    +0.000 A 
ENDBRANCH  19  24
ENDBRANCH  17  18
ENDBRANCH  16  17
ENDBRANCH  14  16
ENDBRANCH   1  14
BRANCH   1  30
ATOM     30  C   UNL     1       7.680   4.686  16.971  0.00  0.00    +0.000 C 
BRANCH  30  32
ATOM     31  O   UNL     1       6.883   5.315  14.784  0.00  0.00    +0.000 OA
ATOM     32  C   UNL     1       6.848   4.539  15.727  0.00  0.00    +0.000 C 
BRANCH  32  33
ATOM     33  O   UNL     1       6.031   3.464  15.734  0.00  0.00    +0.000 OA
ATOM     34  H   UNL     1       5.071   3.646  15.688  0.00  0.00    +0.000 HD
ENDBRANCH  32  33
ENDBRANCH  30  32
ENDBRANCH   1  30
TORSDOF 12
ENDMDL
MODEL 5
REMARK VINA RESULT:      -8.3      2.998      7.103
REMARK  Name = 
REMARK  12 active torsions:
REMARK  status: ('A' for Active; 'I' for Inactive)
REMARK    1  A    between atoms: C_2  and  O_3
REMARK    2  A    between atoms: C_2  and  C_4
REMARK    3  A    between atoms: C_4  and  C_5
REMARK    4  A    between atoms: C_5  and  N_6
REMARK    5  A    between atoms: C_5  and  C_17
REMARK    6  A    between atoms: C_7  and  O_9
REMARK    7  A    between atoms: O_9  and  C_10
REMARK    8  A    between atoms: C_10  and  C_11
REMARK    9  A    between atoms: C_17  and  C_19
REMARK   10  A    between atoms: C_19  and  O_20
REMARK   11  A    between atoms: O_20  and  C_21
REMARK   12  A    between atoms: C_22  and  C_23
REMARK                            x       y       z     vdW  Elec       q    Type
REMARK                         _______ _______ _______ _____ _____    ______ ____
ROOT
ATOM      1  C   UNL     1       3.427   4.077  18.873  0.00  0.00    +0.000 C 
ENDROOT
BRANCH   1   2
ATOM      2  N   UNL     1       2.616   5.195  18.415  0.00  0.00    +0.000 N 
ATOM      3  C   UNL     1       3.111   6.420  18.097  0.00  0.00    +0.000 C 
ATOM      4  O   UNL     1       4.287   6.747  18.186  0.00  0.00    +0.000 OA
ATOM      5  H   UNL     1       1.606   5.166  18.435  0.00  0.00    +0.000 HD
BRANCH   3   6
ATOM      6  O   UNL     1       2.082   7.214  17.723  0.00  0.00    +0.000 OA
BRANCH   6   7
ATOM      7  C   UNL     1       2.282   8.627  17.865  0.00  0.00    +0.000 C 
BRANCH   7   8
ATOM      8  C   UNL     1       1.293   9.265  18.811  0.00  0.00    +0.000 A 
ATOM      9  C   UNL     1       0.270  10.097  18.335  0.00  0.00    +0.000 A 
ATOM     10  C   UNL     1      -0.687  10.622  19.212  0.00  0.00    +0.000 A 
ATOM     11  C   UNL     1      -0.625  10.327  20.571  0.00  0.00    +0.000 A 
ATOM     12  C   UNL     1       0.398   9.514  21.058  0.00  0.00    +0.000 A 
ATOM     13  C   UNL     1       1.356   8.990  20.184  0.00  0.00    +0.000 A 
ENDBRANCH   7   8
ENDBRANCH   6   7
ENDBRANCH   3   6
ENDBRANCH   1   2
BRANCH   1  14
ATOM     14  C   UNL     1       3.451   2.947  17.828  0.00  0.00    +0.000 C 
ATOM     15  O   UNL     1       2.548   2.101  17.799  0.00  0.00    +0.000 OA
BRANCH  14  16
ATOM     16  C   UNL     1       4.564   2.925  16.791  0.00  0.00    +0.000 C 
BRANCH  16  17
ATOM     17  O   UNL     1       4.531   4.167  16.099  0.00  0.00    +0.000 OA
BRANCH  17  18
ATOM     18  C   UNL     1       5.452   4.400  15.102  0.00  0.00    +0.000 C 
ATOM     19  C   UNL     1       6.615   5.046  15.319  0.00  0.00    +0.000 C 
ATOM     20  C   UNL     1       7.330   4.973  14.016  0.00  0.00    +0.000 C 
ATOM     21  O   UNL     1       8.460   5.400  13.812  0.00  0.00    +0.000 OA
ATOM     22  C   UNL     1       6.486   4.355  12.946  0.00  0.00    +0.000 C 
ATOM     23  C   UNL     1       5.291   3.834  13.720  0.00  0.00    +0.000 C 
BRANCH  19  24
ATOM     24  C   UNL     1       7.124   5.649  16.561  0.00  0.00    +0.000 A 
ATOM     25  C   UNL     1       7.277   7.039  16.686  0.00  0.00    +0.000 A 
ATOM     26  C   UNL     1       7.740   7.614  17.875  0.00  0.00    +0.000 A 
ATOM     27  C   UNL     1       8.069   6.806  18.959  0.00  0.00    +0.000 A 
ATOM     28  C   UNL     1       7.927   5.427  18.857  0.00  0.00    +0.000 A 
ATOM     29  C   UNL     1       7.450   4.856  17.673  0.00  0.00    +0.000 A 
ENDBRANCH  19  24
ENDBRANCH  17  18
ENDBRANCH  16  17
ENDBRANCH  14  16
ENDBRANCH   1  14
BRANCH   1  30
ATOM     30  C   UNL     1       3.152   3.565  20.298  0.00  0.00    +0.000 C 
BRANCH  30  32
ATOM     31  O   UNL     1       0.945   2.896  21.006  0.00  0.00    +0.000 OA
ATOM     32  C   UNL     1       1.746   3.792  20.782  0.00  0.00    +0.000 C 
BRANCH  32  33
ATOM     33  O   UNL     1       1.423   5.092  20.945  0.00  0.00    +0.000 OA
ATOM     34  H   UNL     1       1.914   5.580  21.636  0.00  0.00    +0.000 HD
ENDBRANCH  32  33
ENDBRANCH  30  32
ENDBRANCH   1  30
TORSDOF 12
ENDMDL
MODEL 6
REMARK VINA RESULT:      -8.3      4.728      8.984
REMARK  Name = 
REMARK  12 active torsions:
REMARK  status: ('A' for Active; 'I' for Inactive)
REMARK    1  A    between atoms: C_2  and  O_3
REMARK    2  A    between atoms: C_2  and  C_4
REMARK    3  A    between atoms: C_4  and  C_5
REMARK    4  A    between atoms: C_5  and  N_6
REMARK    5  A    between atoms: C_5  and  C_17
REMARK    6  A    between atoms: C_7  and  O_9
REMARK    7  A    between atoms: O_9  and  C_10
REMARK    8  A    between atoms: C_10  and  C_11
REMARK    9  A    between atoms: C_17  and  C_19
REMARK   10  A    between atoms: C_19  and  O_20
REMARK   11  A    between atoms: O_20  and  C_21
REMARK   12  A    between atoms: C_22  and  C_23
REMARK                            x       y       z     vdW  Elec       q    Type
REMARK                         _______ _______ _______ _____ _____    ______ ____
ROOT
ATOM      1  C   UNL     1       0.640   9.455  20.834  0.00  0.00    +0.000 C 
ENDROOT
BRANCH   1   2
ATOM      2  N   UNL     1      -0.076  10.375  19.963  0.00  0.00    +0.000 N 
ATOM      3  C   UNL     1       0.318  11.651  19.709  0.00  0.00    +0.000 C 
ATOM      4  O   UNL     1       1.297  12.195  20.201  0.00  0.00    +0.000 OA
ATOM      5  H   UNL     1      -0.993  10.160  19.597  0.00  0.00    +0.000 HD
BRANCH   3   6
ATOM      6  O   UNL     1      -0.580  12.217  18.872  0.00  0.00    +0.000 OA
BRANCH   6   7
ATOM      7  C   UNL     1      -1.961  11.919  19.121  0.00  0.00    +0.000 C 
BRANCH   7   8
ATOM      8  C   UNL     1      -2.677  11.398  17.897  0.00  0.00    +0.000 A 
ATOM      9  C   UNL     1      -4.009  11.747  17.636  0.00  0.00    +0.000 A 
ATOM     10  C   UNL     1      -4.638  11.320  16.460  0.00  0.00    +0.000 A 
ATOM     11  C   UNL     1      -3.946  10.535  15.542  0.00  0.00    +0.000 A 
ATOM     12  C   UNL     1      -2.625  10.169  15.800  0.00  0.00    +0.000 A 
ATOM     13  C   UNL     1      -1.995  10.593  16.975  0.00  0.00    +0.000 A 
ENDBRANCH   7   8
ENDBRANCH   6   7
ENDBRANCH   3   6
ENDBRANCH   1   2
BRANCH   1  14
ATOM     14  C   UNL     1       1.462   8.443  20.014  0.00  0.00    +0.000 C 
ATOM     15  O   UNL     1       1.865   8.736  18.881  0.00  0.00    +0.000 OA
BRANCH  14  16
ATOM     16  C   UNL     1       1.827   7.107  20.644  0.00  0.00    +0.000 C 
BRANCH  16  17
ATOM     17  O   UNL     1       2.613   6.389  19.702  0.00  0.00    +0.000 OA
BRANCH  17  18
ATOM     18  C   UNL     1       2.910   5.067  19.951  0.00  0.00    +0.000 C 
ATOM     19  C   UNL     1       4.033   4.474  19.500  0.00  0.00    +0.000 C 
ATOM     20  C   UNL     1       3.994   3.107  20.087  0.00  0.00    +0.000 C 
ATOM     21  O   UNL     1       4.872   2.264  19.960  0.00  0.00    +0.000 OA
ATOM     22  C   UNL     1       2.716   2.849  20.823  0.00  0.00    +0.000 C 
ATOM     23  C   UNL     1       2.066   4.218  20.858  0.00  0.00    +0.000 C 
BRANCH  19  24
ATOM     24  C   UNL     1       5.107   5.033  18.664  0.00  0.00    +0.000 A 
ATOM     25  C   UNL     1       6.350   5.385  19.213  0.00  0.00    +0.000 A 
ATOM     26  C   UNL     1       7.378   5.897  18.413  0.00  0.00    +0.000 A 
ATOM     27  C   UNL     1       7.176   6.076  17.048  0.00  0.00    +0.000 A 
ATOM     28  C   UNL     1       5.953   5.735  16.483  0.00  0.00    +0.000 A 
ATOM     29  C   UNL     1       4.933   5.211  17.282  0.00  0.00    +0.000 A 
ENDBRANCH  19  24
ENDBRANCH  17  18
ENDBRANCH  16  17
ENDBRANCH  14  16
ENDBRANCH   1  14
BRANCH   1  30
ATOM     30  C   UNL     1      -0.179   8.788  21.953  0.00  0.00    +0.000 C 
BRANCH  30  32
ATOM     31  O   UNL     1       0.653   9.611  24.062  0.00  0.00    +0.000 OA
ATOM     32  C   UNL     1      -0.244   9.576  23.233  0.00  0.00    +0.000 C 
BRANCH  32  33
ATOM     33  O   UNL     1      -1.400  10.250  23.407  0.00  0.00    +0.000 OA
ATOM     34  H   UNL     1      -1.701  10.800  22.655  0.00  0.00    +0.000 HD
ENDBRANCH  32  33
ENDBRANCH  30  32
ENDBRANCH   1  30
TORSDOF 12
ENDMDL
MODEL 7
REMARK VINA RESULT:      -8.3      1.384      1.993
REMARK  Name = 
REMARK  12 active torsions:
REMARK  status: ('A' for Active; 'I' for Inactive)
REMARK    1  A    between atoms: C_2  and  O_3
REMARK    2  A    between atoms: C_2  and  C_4
REMARK    3  A    between atoms: C_4  and  C_5
REMARK    4  A    between atoms: C_5  and  N_6
REMARK    5  A    between atoms: C_5  and  C_17
REMARK    6  A    between atoms: C_7  and  O_9
REMARK    7  A    between atoms: O_9  and  C_10
REMARK    8  A    between atoms: C_10  and  C_11
REMARK    9  A    between atoms: C_17  and  C_19
REMARK   10  A    between atoms: C_19  and  O_20
REMARK   11  A    between atoms: O_20  and  C_21
REMARK   12  A    between atoms: C_22  and  C_23
REMARK                            x       y       z     vdW  Elec       q    Type
REMARK                         _______ _______ _______ _____ _____    ______ ____
ROOT
ATOM      1  C   UNL     1       7.261   6.055  18.145  0.00  0.00    +0.000 C 
ENDROOT
BRANCH   1   2
ATOM      2  N   UNL     1       8.142   7.185  18.398  0.00  0.00    +0.000 N 
ATOM      3  C   UNL     1       7.939   8.437  17.911  0.00  0.00    +0.000 C 
ATOM      4  O   UNL     1       7.015   8.765  17.178  0.00  0.00    +0.000 OA
ATOM      5  H   UNL     1       9.042   7.071  18.844  0.00  0.00    +0.000 HD
BRANCH   3   6
ATOM      6  O   UNL     1       8.952   9.229  18.331  0.00  0.00    +0.000 OA
BRANCH   6   7
ATOM      7  C   UNL     1       8.829  10.628  18.043  0.00  0.00    +0.000 C 
BRANCH   7   8
ATOM      8  C   UNL     1      10.082  11.405  18.371  0.00  0.00    +0.000 A 
ATOM      9  C   UNL     1      10.606  12.345  17.473  0.00  0.00    +0.000 A 
ATOM     10  C   UNL     1      11.724  13.114  17.819  0.00  0.00    +0.000 A 
ATOM     11  C   UNL     1      12.331  12.944  19.061  0.00  0.00    +0.000 A 
ATOM     12  C   UNL     1      11.828  12.001  19.956  0.00  0.00    +0.000 A 
ATOM     13  C   UNL     1      10.712  11.231  19.611  0.00  0.00    +0.000 A 
ENDBRANCH   7   8
ENDBRANCH   6   7
ENDBRANCH   3   6
ENDBRANCH   1   2
BRANCH   1  14
ATOM     14  C   UNL     1       6.877   5.349  19.459  0.00  0.00    +0.000 C 
ATOM     15  O   UNL     1       7.720   5.178  20.347  0.00  0.00    +0.000 OA
BRANCH  14  16
ATOM     16  C   UNL     1       5.430   4.927  19.673  0.00  0.00    +0.000 C 
BRANCH  16  17
ATOM     17  O   UNL     1       5.277   3.625  19.125  0.00  0.00    +0.000 OA
BRANCH  17  18
ATOM     18  C   UNL     1       4.007   3.146  18.887  0.00  0.00    +0.000 C 
ATOM     19  C   UNL     1       2.977   3.947  18.549  0.00  0.00    +0.000 C 
ATOM     20  C   UNL     1       1.850   3.012  18.284  0.00  0.00    +0.000 C 
ATOM     21  O   UNL     1       0.740   3.347  17.892  0.00  0.00    +0.000 OA
ATOM     22  C   UNL     1       2.211   1.594  18.602  0.00  0.00    +0.000 C 
ATOM     23  C   UNL     1       3.703   1.676  18.855  0.00  0.00    +0.000 C 
BRANCH  19  24
ATOM     24  C   UNL     1       2.947   5.411  18.407  0.00  0.00    +0.000 A 
ATOM     25  C   UNL     1       3.562   6.051  17.319  0.00  0.00    +0.000 A 
ATOM     26  C   UNL     1       3.514   7.442  17.174  0.00  0.00    +0.000 A 
ATOM     27  C   UNL     1       2.859   8.221  18.123  0.00  0.00    +0.000 A 
ATOM     28  C   UNL     1       2.244   7.609  19.209  0.00  0.00    +0.000 A 
ATOM     29  C   UNL     1       2.281   6.218  19.344  0.00  0.00    +0.000 A 
ENDBRANCH  19  24
ENDBRANCH  17  18
ENDBRANCH  16  17
ENDBRANCH  14  16
ENDBRANCH   1  14
BRANCH   1  30
ATOM     30  C   UNL     1       7.700   5.070  17.047  0.00  0.00    +0.000 C 
BRANCH  30  32
ATOM     31  O   UNL     1       6.353   5.553  15.106  0.00  0.00    +0.000 OA
ATOM     32  C   UNL     1       6.649   4.785  16.009  0.00  0.00    +0.000 C 
BRANCH  32  33
ATOM     33  O   UNL     1       6.036   3.592  16.159  0.00  0.00    +0.000 OA
ATOM     34  H   UNL     1       5.257   3.574  16.751  0.00  0.00    +0.000 HD
ENDBRANCH  32  33
ENDBRANCH  30  32
ENDBRANCH   1  30
TORSDOF 12
ENDMDL
MODEL 8
REMARK VINA RESULT:      -8.2      1.147      1.430
REMARK  Name = 
REMARK  12 active torsions:
REMARK  status: ('A' for Active; 'I' for Inactive)
REMARK    1  A    between atoms: C_2  and  O_3
REMARK    2  A    between atoms: C_2  and  C_4
REMARK    3  A    between atoms: C_4  and  C_5
REMARK    4  A    between atoms: C_5  and  N_6
REMARK    5  A    between atoms: C_5  and  C_17
REMARK    6  A    between atoms: C_7  and  O_9
REMARK    7  A    between atoms: O_9  and  C_10
REMARK    8  A    between atoms: C_10  and  C_11
REMARK    9  A    between atoms: C_17  and  C_19
REMARK   10  A    between atoms: C_19  and  O_20
REMARK   11  A    between atoms: O_20  and  C_21
REMARK   12  A    between atoms: C_22  and  C_23
REMARK                            x       y       z     vdW  Elec       q    Type
REMARK                         _______ _______ _______ _____ _____    ______ ____
ROOT
ATOM      1  C   UNL     1       6.511   5.980  16.697  0.00  0.00    +0.000 C 
ENDROOT
BRANCH   1   2
ATOM      2  N   UNL     1       7.446   7.092  16.624  0.00  0.00    +0.000 N 
ATOM      3  C   UNL     1       7.629   8.005  17.614  0.00  0.00    +0.000 C 
ATOM      4  O   UNL     1       7.014   8.027  18.672  0.00  0.00    +0.000 OA
ATOM      5  H   UNL     1       7.923   7.333  15.766  0.00  0.00    +0.000 HD
BRANCH   3   6
ATOM      6  O   UNL     1       8.559   8.898  17.206  0.00  0.00    +0.000 OA
BRANCH   6   7
ATOM      7  C   UNL     1       8.320  10.270  17.550  0.00  0.00    +0.000 C 
BRANCH   7   8
ATOM      8  C   UNL     1       9.439  10.872  18.367  0.00  0.00    +0.000 A 
ATOM      9  C   UNL     1       9.379  10.899  19.766  0.00  0.00    +0.000 A 
ATOM     10  C   UNL     1      10.455  11.389  20.516  0.00  0.00    +0.000 A 
ATOM     11  C   UNL     1      11.595  11.864  19.873  0.00  0.00    +0.000 A 
ATOM     12  C   UNL     1      11.660  11.856  18.480  0.00  0.00    +0.000 A 
ATOM     13  C   UNL     1      10.585  11.368  17.730  0.00  0.00    +0.000 A 
ENDBRANCH   7   8
ENDBRANCH   6   7
ENDBRANCH   3   6
ENDBRANCH   1   2
BRANCH   1  14
ATOM     14  C   UNL     1       7.102   4.814  17.510  0.00  0.00    +0.000 C 
ATOM     15  O   UNL     1       8.067   4.173  17.075  0.00  0.00    +0.000 OA
BRANCH  14  16
ATOM     16  C   UNL     1       6.526   4.507  18.885  0.00  0.00    +0.000 C 
BRANCH  16  17
ATOM     17  O   UNL     1       5.249   5.126  18.964  0.00  0.00    +0.000 OA
BRANCH  17  18
ATOM     18  C   UNL     1       4.162   4.368  19.341  0.00  0.00    +0.000 C 
ATOM     19  C   UNL     1       2.926   4.886  19.483  0.00  0.00    +0.000 C 
ATOM     20  C   UNL     1       2.063   3.711  19.786  0.00  0.00    +0.000 C 
ATOM     21  O   UNL     1       0.848   3.753  19.930  0.00  0.00    +0.000 OA
ATOM     22  C   UNL     1       2.861   2.455  19.947  0.00  0.00    +0.000 C 
ATOM     23  C   UNL     1       4.245   2.876  19.494  0.00  0.00    +0.000 C 
BRANCH  19  24
ATOM     24  C   UNL     1       2.479   6.279  19.328  0.00  0.00    +0.000 A 
ATOM     25  C   UNL     1       1.926   6.991  20.403  0.00  0.00    +0.000 A 
ATOM     26  C   UNL     1       1.521   8.323  20.260  0.00  0.00    +0.000 A 
ATOM     27  C   UNL     1       1.654   8.965  19.032  0.00  0.00    +0.000 A 
ATOM     28  C   UNL     1       2.198   8.278  17.953  0.00  0.00    +0.000 A 
ATOM     29  C   UNL     1       2.615   6.952  18.103  0.00  0.00    +0.000 A 
ENDBRANCH  19  24
ENDBRANCH  17  18
ENDBRANCH  16  17
ENDBRANCH  14  16
ENDBRANCH   1  14
BRANCH   1  30
ATOM     30  C   UNL     1       5.879   5.521  15.371  0.00  0.00    +0.000 C 
BRANCH  30  32
ATOM     31  O   UNL     1       7.778   5.420  13.888  0.00  0.00    +0.000 OA
ATOM     32  C   UNL     1       6.837   4.853  14.423  0.00  0.00    +0.000 C 
BRANCH  32  33
ATOM     33  O   UNL     1       6.565   3.551  14.192  0.00  0.00    +0.000 OA
ATOM     34  H   UNL     1       7.333   2.970  14.018  0.00  0.00    +0.000 HD
ENDBRANCH  32  33
ENDBRANCH  30  32
ENDBRANCH   1  30
TORSDOF 12
ENDMDL
MODEL 9
REMARK VINA RESULT:      -8.2      4.609      8.580
REMARK  Name = 
REMARK  12 active torsions:
REMARK  status: ('A' for Active; 'I' for Inactive)
REMARK    1  A    between atoms: C_2  and  O_3
REMARK    2  A    between atoms: C_2  and  C_4
REMARK    3  A    between atoms: C_4  and  C_5
REMARK    4  A    between atoms: C_5  and  N_6
REMARK    5  A    between atoms: C_5  and  C_17
REMARK    6  A    between atoms: C_7  and  O_9
REMARK    7  A    between atoms: O_9  and  C_10
REMARK    8  A    between atoms: C_10  and  C_11
REMARK    9  A    between atoms: C_17  and  C_19
REMARK   10  A    between atoms: C_19  and  O_20
REMARK   11  A    between atoms: O_20  and  C_21
REMARK   12  A    between atoms: C_22  and  C_23
REMARK                            x       y       z     vdW  Elec       q    Type
REMARK                         _______ _______ _______ _____ _____    ______ ____
ROOT
ATOM      1  C   UNL     1       1.749   8.526  20.645  0.00  0.00    +0.000 C 
ENDROOT
BRANCH   1   2
ATOM      2  N   UNL     1       0.878   9.138  19.654  0.00  0.00    +0.000 N 
ATOM      3  C   UNL     1       0.884  10.461  19.344  0.00  0.00    +0.000 C 
ATOM      4  O   UNL     1       1.592  11.305  19.877  0.00  0.00    +0.000 OA
ATOM      5  H   UNL     1       0.114   8.632  19.228  0.00  0.00    +0.000 HD
BRANCH   3   6
ATOM      6  O   UNL     1      -0.055  10.683  18.397  0.00  0.00    +0.000 OA
BRANCH   6   7
ATOM      7  C   UNL     1      -1.419  10.473  18.788  0.00  0.00    +0.000 C 
BRANCH   7   8
ATOM      8  C   UNL     1      -2.377  10.526  17.621  0.00  0.00    +0.000 A 
ATOM      9  C   UNL     1      -3.537  11.310  17.674  0.00  0.00    +0.000 A 
ATOM     10  C   UNL     1      -4.379  11.412  16.559  0.00  0.00    +0.000 A 
ATOM     11  C   UNL     1      -4.072  10.726  15.387  0.00  0.00    +0.000 A 
ATOM     12  C   UNL     1      -2.928   9.930  15.329  0.00  0.00    +0.000 A 
ATOM     13  C   UNL     1      -2.088   9.826  16.442  0.00  0.00    +0.000 A 
ENDBRANCH   7   8
ENDBRANCH   6   7
ENDBRANCH   3   6
ENDBRANCH   1   2
BRANCH   1  14
ATOM     14  C   UNL     1       1.945   7.025  20.357  0.00  0.00    +0.000 C 
ATOM     15  O   UNL     1       1.236   6.182  20.919  0.00  0.00    +0.000 OA
BRANCH  14  16
ATOM     16  C   UNL     1       2.977   6.602  19.321  0.00  0.00    +0.000 C 
BRANCH  16  17
ATOM     17  O   UNL     1       2.288   5.913  18.286  0.00  0.00    +0.000 OA
BRANCH  17  18
ATOM     18  C   UNL     1       2.280   4.535  18.293  0.00  0.00    +0.000 C 
ATOM     19  C   UNL     1       3.351   3.797  17.937  0.00  0.00    +0.000 C 
ATOM     20  C   UNL     1       2.938   2.392  18.197  0.00  0.00    +0.000 C 
ATOM     21  O   UNL     1       3.658   1.412  18.053  0.00  0.00    +0.000 OA
ATOM     22  C   UNL     1       1.504   2.296  18.615  0.00  0.00    +0.000 C 
ATOM     23  C   UNL     1       1.119   3.747  18.826  0.00  0.00    +0.000 C 
BRANCH  19  24
ATOM     24  C   UNL     1       4.666   4.244  17.451  0.00  0.00    +0.000 A 
ATOM     25  C   UNL     1       5.750   4.411  18.328  0.00  0.00    +0.000 A 
ATOM     26  C   UNL     1       7.005   4.815  17.862  0.00  0.00    +0.000 A 
ATOM     27  C   UNL     1       7.198   5.071  16.507  0.00  0.00    +0.000 A 
ATOM     28  C   UNL     1       6.138   4.914  15.621  0.00  0.00    +0.000 A 
ATOM     29  C   UNL     1       4.889   4.496  16.087  0.00  0.00    +0.000 A 
ENDBRANCH  19  24
ENDBRANCH  17  18
ENDBRANCH  16  17
ENDBRANCH  14  16
ENDBRANCH   1  14
BRANCH   1  30
ATOM     30  C   UNL     1       1.421   8.810  22.121  0.00  0.00    +0.000 C 
BRANCH  30  32
ATOM     31  O   UNL     1      -0.428  10.077  23.012  0.00  0.00    +0.000 OA
ATOM     32  C   UNL     1      -0.030   9.101  22.393  0.00  0.00    +0.000 C 
BRANCH  32  33
ATOM     33  O   UNL     1      -0.879   8.177  21.898  0.00  0.00    +0.000 OA
ATOM     34  H   UNL     1      -0.541   7.620  21.168  0.00  0.00    +0.000 HD
ENDBRANCH  32  33
ENDBRANCH  30  32
ENDBRANCH   1  30
TORSDOF 12
ENDMDL
