MODEL 1
REMARK VINA RESULT:      -8.0      0.000      0.000
REMARK  Name = 
REMARK  5 active torsions:
REMARK  status: ('A' for Active; 'I' for Inactive)
REMARK    1  A    between atoms: C_1  and  C_2
REMARK    2  A    between atoms: C_3  and  N_4
REMARK    3  A    between atoms: C_7  and  C_8
REMARK    4  A    between atoms: C_13  and  O_14
REMARK    5  A    between atoms: C_20  and  C_21
REMARK                            x       y       z     vdW  Elec       q    Type
REMARK                         _______ _______ _______ _____ _____    ______ ____
ROOT
ATOM      1  N   UNL     1       2.383   7.656  19.537  0.00  0.00    +0.000 NA
ATOM      2  C   UNL     1       2.497   6.374  19.541  0.00  0.00    +0.000 C 
ATOM      3  O   UNL     1       1.710   5.519  20.239  0.00  0.00    +0.000 OA
ATOM      4  C   UNL     1       1.713   4.238  19.553  0.00  0.00    +0.000 C 
ATOM      5  C   UNL     1       2.744   4.370  18.436  0.00  0.00    +0.000 C 
ATOM      6  C   UNL     1       3.902   3.404  18.196  0.00  0.00    +0.000 C 
ATOM      7  C   UNL     1       5.084   3.958  18.978  0.00  0.00    +0.000 C 
ATOM      8  C   UNL     1       4.721   5.402  19.330  0.00  0.00    +0.000 C 
ATOM      9  N   UNL     1       3.383   5.651  18.774  0.00  0.00    +0.000 N 
ENDROOT
BRANCH   1  12
ATOM     10  C   UNL     1       0.585   9.759  18.114  0.00  0.00    +0.000 C 
ATOM     11  C   UNL     1       0.591   9.472  19.593  0.00  0.00    +0.000 A 
ATOM     12  C   UNL     1       1.412   8.466  20.162  0.00  0.00    +0.000 A 
ATOM     13  C   UNL     1       1.442   8.371  21.567  0.00  0.00    +0.000 A 
ATOM     14  C   UNL     1       0.707   9.218  22.399  0.00  0.00    +0.000 A 
ATOM     15  C   UNL     1      -0.150  10.163  21.842  0.00  0.00    +0.000 A 
ATOM     16  C   UNL     1      -0.238  10.263  20.446  0.00  0.00    +0.000 A 
ATOM     17 CL   UNL     1      -1.381  11.390  19.761  0.00  0.00    +0.000 Cl
BRANCH  15  18
ATOM     18  C   UNL     1      -0.855  11.056  22.720  0.00  0.00    +0.000 C 
ATOM     19  N   UNL     1      -1.417  11.803  23.409  0.00  0.00    +0.000 NA
ENDBRANCH  15  18
ENDBRANCH   1  12
BRANCH   4  20
ATOM     20  C   UNL     1       1.766   3.044  20.487  0.00  0.00    +0.000 C 
ATOM     21  F   UNL     1       2.884   3.047  21.247  0.00  0.00    +0.000 F 
ATOM     22  F   UNL     1       0.713   3.083  21.342  0.00  0.00    +0.000 F 
ATOM     23  F   UNL     1       1.723   1.856  19.857  0.00  0.00    +0.000 F 
ENDBRANCH   4  20
BRANCH   6  24
ATOM     24  O   UNL     1       4.249   3.412  16.801  0.00  0.00    +0.000 OA
ATOM     25  H   UNL     1       5.021   3.998  16.691  0.00  0.00    +0.000 HD
ENDBRANCH   6  24
TORSDOF 4
ENDMDL
MODEL 2
REMARK VINA RESULT:      -7.7      3.069      3.822
REMARK  Name = 
REMARK  5 active torsions:
REMARK  status: ('A' for Active; 'I' for Inactive)
REMARK    1  A    between atoms: C_1  and  C_2
REMARK    2  A    between atoms: C_3  and  N_4
REMARK    3  A    between atoms: C_7  and  C_8
REMARK    4  A    between atoms: C_13  and  O_14
REMARK    5  A    between atoms: C_20  and  C_21
REMARK                            x       y       z     vdW  Elec       q    Type
REMARK                         _______ _______ _______ _____ _____    ______ ____
ROOT
ATOM      1  N   UNL     1       2.864   6.720  17.716  0.00  0.00    +0.000 NA
ATOM      2  C   UNL     1       4.058   6.241  17.700  0.00  0.00    +0.000 C 
ATOM      3  O   UNL     1       4.975   6.384  18.689  0.00  0.00    +0.000 OA
ATOM      4  C   UNL     1       5.897   5.264  18.616  0.00  0.00    +0.000 C 
ATOM      5  C   UNL     1       5.528   4.506  17.345  0.00  0.00    +0.000 C 
ATOM      6  C   UNL     1       6.508   4.130  16.235  0.00  0.00    +0.000 C 
ATOM      7  C   UNL     1       6.474   5.276  15.235  0.00  0.00    +0.000 C 
ATOM      8  C   UNL     1       5.222   6.091  15.565  0.00  0.00    +0.000 C 
ATOM      9  N   UNL     1       4.579   5.435  16.712  0.00  0.00    +0.000 N 
ENDROOT
BRANCH   1  12
ATOM     10  C   UNL     1       2.025   9.715  17.635  0.00  0.00    +0.000 C 
ATOM     11  C   UNL     1       1.827   8.784  18.802  0.00  0.00    +0.000 A 
ATOM     12  C   UNL     1       2.198   7.417  18.747  0.00  0.00    +0.000 A 
ATOM     13  C   UNL     1       2.094   6.668  19.935  0.00  0.00    +0.000 A 
ATOM     14  C   UNL     1       1.648   7.216  21.139  0.00  0.00    +0.000 A 
ATOM     15  C   UNL     1       1.220   8.540  21.181  0.00  0.00    +0.000 A 
ATOM     16  C   UNL     1       1.270   9.309  20.008  0.00  0.00    +0.000 A 
ATOM     17 CL   UNL     1       0.648  10.939  20.052  0.00  0.00    +0.000 Cl
BRANCH  15  18
ATOM     18  C   UNL     1       0.814   9.095  22.443  0.00  0.00    +0.000 C 
ATOM     19  N   UNL     1       0.491   9.573  23.451  0.00  0.00    +0.000 NA
ENDBRANCH  15  18
ENDBRANCH   1  12
BRANCH   4  20
ATOM     20  C   UNL     1       7.343   5.645  18.872  0.00  0.00    +0.000 C 
ATOM     21  F   UNL     1       7.679   6.795  18.246  0.00  0.00    +0.000 F 
ATOM     22  F   UNL     1       7.536   5.850  20.199  0.00  0.00    +0.000 F 
ATOM     23  F   UNL     1       8.230   4.712  18.481  0.00  0.00    +0.000 F 
ENDBRANCH   4  20
BRANCH   6  24
ATOM     24  O   UNL     1       6.043   2.944  15.570  0.00  0.00    +0.000 OA
ATOM     25  H   UNL     1       6.249   2.182  16.144  0.00  0.00    +0.000 HD
ENDBRANCH   6  24
TORSDOF 4
ENDMDL
MODEL 3
REMARK VINA RESULT:      -7.5      1.447      2.155
REMARK  Name = 
REMARK  5 active torsions:
REMARK  status: ('A' for Active; 'I' for Inactive)
REMARK    1  A    between atoms: C_1  and  C_2
REMARK    2  A    between atoms: C_3  and  N_4
REMARK    3  A    between atoms: C_7  and  C_8
REMARK    4  A    between atoms: C_13  and  O_14
REMARK    5  A    between atoms: C_20  and  C_21
REMARK                            x       y       z     vdW  Elec       q    Type
REMARK                         _______ _______ _______ _____ _____    ______ ____
ROOT
ATOM      1  N   UNL     1       2.759   7.770  18.711  0.00  0.00    +0.000 NA
ATOM      2  C   UNL     1       2.740   6.487  18.804  0.00  0.00    +0.000 C 
ATOM      3  O   UNL     1       1.705   5.749  19.276  0.00  0.00    +0.000 OA
ATOM      4  C   UNL     1       1.781   4.428  18.678  0.00  0.00    +0.000 C 
ATOM      5  C   UNL     1       3.099   4.396  17.911  0.00  0.00    +0.000 C 
ATOM      6  C   UNL     1       4.176   3.325  18.066  0.00  0.00    +0.000 C 
ATOM      7  C   UNL     1       5.129   3.835  19.138  0.00  0.00    +0.000 C 
ATOM      8  C   UNL     1       4.823   5.325  19.303  0.00  0.00    +0.000 C 
ATOM      9  N   UNL     1       3.736   5.641  18.367  0.00  0.00    +0.000 N 
ENDROOT
BRANCH   1  12
ATOM     10  C   UNL     1       1.560   8.374  21.517  0.00  0.00    +0.000 C 
ATOM     11  C   UNL     1       1.105   8.993  20.222  0.00  0.00    +0.000 A 
ATOM     12  C   UNL     1       1.732   8.698  18.985  0.00  0.00    +0.000 A 
ATOM     13  C   UNL     1       1.145   9.224  17.818  0.00  0.00    +0.000 A 
ATOM     14  C   UNL     1      -0.010  10.010  17.839  0.00  0.00    +0.000 A 
ATOM     15  C   UNL     1      -0.589  10.357  19.056  0.00  0.00    +0.000 A 
ATOM     16  C   UNL     1      -0.011   9.885  20.244  0.00  0.00    +0.000 A 
ATOM     17 CL   UNL     1      -0.693  10.399  21.766  0.00  0.00    +0.000 Cl
BRANCH  15  18
ATOM     18  C   UNL     1      -1.805  11.122  19.049  0.00  0.00    +0.000 C 
ATOM     19  N   UNL     1      -2.770  11.767  19.035  0.00  0.00    +0.000 NA
ENDBRANCH  15  18
ENDBRANCH   1  12
BRANCH   4  20
ATOM     20  C   UNL     1       1.443   3.303  19.638  0.00  0.00    +0.000 C 
ATOM     21  F   UNL     1       2.312   3.243  20.672  0.00  0.00    +0.000 F 
ATOM     22  F   UNL     1       0.213   3.508  20.172  0.00  0.00    +0.000 F 
ATOM     23  F   UNL     1       1.429   2.084  19.067  0.00  0.00    +0.000 F 
ENDBRANCH   4  20
BRANCH   6  24
ATOM     24  O   UNL     1       4.912   3.206  16.838  0.00  0.00    +0.000 OA
ATOM     25  H   UNL     1       4.740   2.316  16.474  0.00  0.00    +0.000 HD
ENDBRANCH   6  24
TORSDOF 4
ENDMDL
MODEL 4
REMARK VINA RESULT:      -7.4      3.247      4.256
REMARK  Name = 
REMARK  5 active torsions:
REMARK  status: ('A' for Active; 'I' for Inactive)
REMARK    1  A    between atoms: C_1  and  C_2
REMARK    2  A    between atoms: C_3  and  N_4
REMARK    3  A    between atoms: C_7  and  C_8
REMARK    4  A    between atoms: C_13  and  O_14
REMARK    5  A    between atoms: C_20  and  C_21
REMARK                            x       y       z     vdW  Elec       q    Type
REMARK                         _______ _______ _______ _____ _____    ______ ____
ROOT
ATOM      1  N   UNL     1       3.100   7.065  17.343  0.00  0.00    +0.000 NA
ATOM      2  C   UNL     1       4.241   6.474  17.395  0.00  0.00    +0.000 C 
ATOM      3  O   UNL     1       5.158   6.623  18.383  0.00  0.00    +0.000 OA
ATOM      4  C   UNL     1       5.967   5.418  18.435  0.00  0.00    +0.000 C 
ATOM      5  C   UNL     1       5.539   4.580  17.235  0.00  0.00    +0.000 C 
ATOM      6  C   UNL     1       6.488   4.005  16.186  0.00  0.00    +0.000 C 
ATOM      7  C   UNL     1       6.576   5.046  15.080  0.00  0.00    +0.000 C 
ATOM      8  C   UNL     1       5.407   6.007  15.306  0.00  0.00    +0.000 C 
ATOM      9  N   UNL     1       4.692   5.530  16.499  0.00  0.00    +0.000 N 
ENDROOT
BRANCH   1  12
ATOM     10  C   UNL     1       2.181   6.245  20.200  0.00  0.00    +0.000 C 
ATOM     11  C   UNL     1       2.010   7.610  19.585  0.00  0.00    +0.000 A 
ATOM     12  C   UNL     1       2.495   7.919  18.289  0.00  0.00    +0.000 A 
ATOM     13  C   UNL     1       2.165   9.180  17.756  0.00  0.00    +0.000 A 
ATOM     14  C   UNL     1       1.391  10.115  18.447  0.00  0.00    +0.000 A 
ATOM     15  C   UNL     1       0.970   9.842  19.745  0.00  0.00    +0.000 A 
ATOM     16  C   UNL     1       1.312   8.612  20.327  0.00  0.00    +0.000 A 
ATOM     17 CL   UNL     1       0.853   8.317  21.985  0.00  0.00    +0.000 Cl
BRANCH  15  18
ATOM     18  C   UNL     1       0.132  10.798  20.414  0.00  0.00    +0.000 C 
ATOM     19  N   UNL     1      -0.527  11.595  20.942  0.00  0.00    +0.000 NA
ENDBRANCH  15  18
ENDBRANCH   1  12
BRANCH   4  20
ATOM     20  C   UNL     1       7.441   5.681  18.681  0.00  0.00    +0.000 C 
ATOM     21  F   UNL     1       8.209   4.630  18.319  0.00  0.00    +0.000 F 
ATOM     22  F   UNL     1       7.848   6.739  17.936  0.00  0.00    +0.000 F 
ATOM     23  F   UNL     1       7.739   5.961  19.963  0.00  0.00    +0.000 F 
ENDBRANCH   4  20
BRANCH   6  24
ATOM     24  O   UNL     1       5.917   2.811  15.628  0.00  0.00    +0.000 OA
ATOM     25  H   UNL     1       5.906   2.912  14.657  0.00  0.00    +0.000 HD
ENDBRANCH   6  24
TORSDOF 4
ENDMDL
MODEL 5
REMARK VINA RESULT:      -7.1      2.927      3.801
REMARK  Name = 
REMARK  5 active torsions:
REMARK  status: ('A' for Active; 'I' for Inactive)
REMARK    1  A    between atoms: C_1  and  C_2
REMARK    2  A    between atoms: C_3  and  N_4
REMARK    3  A    between atoms: C_7  and  C_8
REMARK    4  A    between atoms: C_13  and  O_14
REMARK    5  A    between atoms: C_20  and  C_21
REMARK                            x       y       z     vdW  Elec       q    Type
REMARK                         _______ _______ _______ _____ _____    ______ ____
ROOT
ATOM      1  N   UNL     1       1.981   7.025  19.801  0.00  0.00    +0.000 NA
ATOM      2  C   UNL     1       2.844   6.360  19.117  0.00  0.00    +0.000 C 
ATOM      3  O   UNL     1       3.575   6.850  18.086  0.00  0.00    +0.000 OA
ATOM      4  C   UNL     1       4.800   6.074  17.990  0.00  0.00    +0.000 C 
ATOM      5  C   UNL     1       4.644   4.932  18.988  0.00  0.00    +0.000 C 
ATOM      6  C   UNL     1       4.829   3.452  18.660  0.00  0.00    +0.000 C 
ATOM      7  C   UNL     1       3.454   2.931  18.268  0.00  0.00    +0.000 C 
ATOM      8  C   UNL     1       2.450   3.984  18.741  0.00  0.00    +0.000 C 
ATOM      9  N   UNL     1       3.230   5.061  19.368  0.00  0.00    +0.000 N 
ENDROOT
BRANCH   1  12
ATOM     10  C   UNL     1       0.809   8.748  22.111  0.00  0.00    +0.000 C 
ATOM     11  C   UNL     1       1.063   9.227  20.706  0.00  0.00    +0.000 A 
ATOM     12  C   UNL     1       1.641   8.392  19.717  0.00  0.00    +0.000 A 
ATOM     13  C   UNL     1       1.710   8.893  18.403  0.00  0.00    +0.000 A 
ATOM     14  C   UNL     1       1.237  10.158  18.049  0.00  0.00    +0.000 A 
ATOM     15  C   UNL     1       0.731  11.007  19.029  0.00  0.00    +0.000 A 
ATOM     16  C   UNL     1       0.681  10.560  20.358  0.00  0.00    +0.000 A 
ATOM     17 CL   UNL     1       0.126  11.664  21.590  0.00  0.00    +0.000 Cl
BRANCH  15  18
ATOM     18  C   UNL     1       0.204  12.283  18.631  0.00  0.00    +0.000 C 
ATOM     19  N   UNL     1      -0.251  13.301  18.305  0.00  0.00    +0.000 NA
ENDBRANCH  15  18
ENDBRANCH   1  12
BRANCH   4  20
ATOM     20  C   UNL     1       5.222   5.774  16.564  0.00  0.00    +0.000 C 
ATOM     21  F   UNL     1       5.161   6.872  15.778  0.00  0.00    +0.000 F 
ATOM     22  F   UNL     1       6.511   5.352  16.546  0.00  0.00    +0.000 F 
ATOM     23  F   UNL     1       4.484   4.821  15.965  0.00  0.00    +0.000 F 
ENDBRANCH   4  20
BRANCH   6  24
ATOM     24  O   UNL     1       5.251   2.749  19.840  0.00  0.00    +0.000 OA
ATOM     25  H   UNL     1       5.627   3.406  20.458  0.00  0.00    +0.000 HD
ENDBRANCH   6  24
TORSDOF 4
ENDMDL
MODEL 6
REMARK VINA RESULT:      -7.0      1.809      2.124
REMARK  Name = 
REMARK  5 active torsions:
REMARK  status: ('A' for Active; 'I' for Inactive)
REMARK    1  A    between atoms: C_1  and  C_2
REMARK    2  A    between atoms: C_3  and  N_4
REMARK    3  A    between atoms: C_7  and  C_8
REMARK    4  A    between atoms: C_13  and  O_14
REMARK    5  A    between atoms: C_20  and  C_21
REMARK                            x       y       z     vdW  Elec       q    Type
REMARK                         _______ _______ _______ _____ _____    ______ ____
ROOT
ATOM      1  N   UNL     1       3.243   7.486  18.172  0.00  0.00    +0.000 NA
ATOM      2  C   UNL     1       3.612   6.266  18.004  0.00  0.00    +0.000 C 
ATOM      3  O   UNL     1       3.122   5.197  18.680  0.00  0.00    +0.000 OA
ATOM      4  C   UNL     1       3.286   4.019  17.846  0.00  0.00    +0.000 C 
ATOM      5  C   UNL     1       4.100   4.478  16.640  0.00  0.00    +0.000 C 
ATOM      6  C   UNL     1       5.383   3.813  16.147  0.00  0.00    +0.000 C 
ATOM      7  C   UNL     1       6.527   4.532  16.845  0.00  0.00    +0.000 C 
ATOM      8  C   UNL     1       5.934   5.823  17.413  0.00  0.00    +0.000 C 
ATOM      9  N   UNL     1       4.509   5.828  17.055  0.00  0.00    +0.000 N 
ENDROOT
BRANCH   1  12
ATOM     10  C   UNL     1       1.697  10.146  17.708  0.00  0.00    +0.000 C 
ATOM     11  C   UNL     1       1.513   9.223  18.883  0.00  0.00    +0.000 A 
ATOM     12  C   UNL     1       2.226   8.003  19.003  0.00  0.00    +0.000 A 
ATOM     13  C   UNL     1       2.081   7.281  20.203  0.00  0.00    +0.000 A 
ATOM     14  C   UNL     1       1.275   7.718  21.257  0.00  0.00    +0.000 A 
ATOM     15  C   UNL     1       0.521   8.879  21.117  0.00  0.00    +0.000 A 
ATOM     16  C   UNL     1       0.608   9.607  19.921  0.00  0.00    +0.000 A 
ATOM     17 CL   UNL     1      -0.408  11.012  19.724  0.00  0.00    +0.000 Cl
BRANCH  15  18
ATOM     18  C   UNL     1      -0.259   9.334  22.234  0.00  0.00    +0.000 C 
ATOM     19  N   UNL     1      -0.882   9.732  23.130  0.00  0.00    +0.000 NA
ENDBRANCH  15  18
ENDBRANCH   1  12
BRANCH   4  20
ATOM     20  C   UNL     1       3.712   2.782  18.614  0.00  0.00    +0.000 C 
ATOM     21  F   UNL     1       4.888   2.964  19.254  0.00  0.00    +0.000 F 
ATOM     22  F   UNL     1       2.789   2.492  19.565  0.00  0.00    +0.000 F 
ATOM     23  F   UNL     1       3.849   1.685  17.846  0.00  0.00    +0.000 F 
ENDBRANCH   4  20
BRANCH   6  24
ATOM     24  O   UNL     1       5.519   4.028  14.732  0.00  0.00    +0.000 OA
ATOM     25  H   UNL     1       6.428   4.343  14.567  0.00  0.00    +0.000 HD
ENDBRANCH   6  24
TORSDOF 4
ENDMDL
MODEL 7
REMARK VINA RESULT:      -7.0      2.504      3.430
REMARK  Name = 
REMARK  5 active torsions:
REMARK  status: ('A' for Active; 'I' for Inactive)
REMARK    1  A    between atoms: C_1  and  C_2
REMARK    2  A    between atoms: C_3  and  N_4
REMARK    3  A    between atoms: C_7  and  C_8
REMARK    4  A    between atoms: C_13  and  O_14
REMARK    5  A    between atoms: C_20  and  C_21
REMARK                            x       y       z     vdW  Elec       q    Type
REMARK                         _______ _______ _______ _____ _____    ______ ____
ROOT
ATOM      1  N   UNL     1       1.255   7.159  20.919  0.00  0.00    +0.000 NA
ATOM      2  C   UNL     1       1.867   6.217  20.292  0.00  0.00    +0.000 C 
ATOM      3  O   UNL     1       2.535   6.359  19.121  0.00  0.00    +0.000 OA
ATOM      4  C   UNL     1       3.556   5.328  19.055  0.00  0.00    +0.000 C 
ATOM      5  C   UNL     1       3.313   4.427  20.261  0.00  0.00    +0.000 C 
ATOM      6  C   UNL     1       3.154   2.910  20.202  0.00  0.00    +0.000 C 
ATOM      7  C   UNL     1       1.662   2.647  20.052  0.00  0.00    +0.000 C 
ATOM      8  C   UNL     1       0.962   3.958  20.412  0.00  0.00    +0.000 C 
ATOM      9  N   UNL     1       2.017   4.925  20.746  0.00  0.00    +0.000 N 
ENDROOT
BRANCH   1  12
ATOM     10  C   UNL     1       0.139   9.382  22.789  0.00  0.00    +0.000 C 
ATOM     11  C   UNL     1       0.651   9.594  21.388  0.00  0.00    +0.000 A 
ATOM     12  C   UNL     1       1.185   8.535  20.612  0.00  0.00    +0.000 A 
ATOM     13  C   UNL     1       1.509   8.813  19.270  0.00  0.00    +0.000 A 
ATOM     14  C   UNL     1       1.326  10.070  18.692  0.00  0.00    +0.000 A 
ATOM     15  C   UNL     1       0.865  11.129  19.469  0.00  0.00    +0.000 A 
ATOM     16  C   UNL     1       0.568  10.903  20.821  0.00  0.00    +0.000 A 
ATOM     17 CL   UNL     1       0.075  12.257  21.805  0.00  0.00    +0.000 Cl
BRANCH  15  18
ATOM     18  C   UNL     1       0.636  12.399  18.837  0.00  0.00    +0.000 C 
ATOM     19  N   UNL     1       0.444  13.439  18.356  0.00  0.00    +0.000 NA
ENDBRANCH  15  18
ENDBRANCH   1  12
BRANCH   4  20
ATOM     20  C   UNL     1       3.714   4.713  17.677  0.00  0.00    +0.000 C 
ATOM     21  F   UNL     1       2.561   4.166  17.233  0.00  0.00    +0.000 F 
ATOM     22  F   UNL     1       4.062   5.672  16.783  0.00  0.00    +0.000 F 
ATOM     23  F   UNL     1       4.654   3.751  17.613  0.00  0.00    +0.000 F 
ENDBRANCH   4  20
BRANCH   6  24
ATOM     24  O   UNL     1       3.583   2.335  21.447  0.00  0.00    +0.000 OA
ATOM     25  H   UNL     1       4.107   1.538  21.240  0.00  0.00    +0.000 HD
ENDBRANCH   6  24
TORSDOF 4
ENDMDL
MODEL 8
REMARK VINA RESULT:      -6.8      4.125      7.342
REMARK  Name = 
REMARK  5 active torsions:
REMARK  status: ('A' for Active; 'I' for Inactive)
REMARK    1  A    between atoms: C_1  and  C_2
REMARK    2  A    between atoms: C_3  and  N_4
REMARK    3  A    between atoms: C_7  and  C_8
REMARK    4  A    between atoms: C_13  and  O_14
REMARK    5  A    between atoms: C_20  and  C_21
REMARK                            x       y       z     vdW  Elec       q    Type
REMARK                         _______ _______ _______ _____ _____    ______ ____
ROOT
ATOM      1  N   UNL     1       2.177   7.803  18.068  0.00  0.00    +0.000 NA
ATOM      2  C   UNL     1       1.563   8.694  18.764  0.00  0.00    +0.000 C 
ATOM      3  O   UNL     1       1.481   8.714  20.117  0.00  0.00    +0.000 OA
ATOM      4  C   UNL     1       1.288  10.091  20.539  0.00  0.00    +0.000 C 
ATOM      5  C   UNL     1       1.090  10.892  19.256  0.00  0.00    +0.000 C 
ATOM      6  C   UNL     1      -0.083  11.832  18.984  0.00  0.00    +0.000 C 
ATOM      7  C   UNL     1      -1.149  10.991  18.299  0.00  0.00    +0.000 C 
ATOM      8  C   UNL     1      -0.450   9.710  17.839  0.00  0.00    +0.000 C 
ATOM      9  N   UNL     1       0.955   9.821  18.257  0.00  0.00    +0.000 N 
ENDROOT
BRANCH   1  12
ATOM     10  C   UNL     1       4.905   6.917  16.863  0.00  0.00    +0.000 C 
ATOM     11  C   UNL     1       4.177   6.220  17.982  0.00  0.00    +0.000 A 
ATOM     12  C   UNL     1       2.955   6.710  18.507  0.00  0.00    +0.000 A 
ATOM     13  C   UNL     1       2.289   5.911  19.457  0.00  0.00    +0.000 A 
ATOM     14  C   UNL     1       2.783   4.679  19.888  0.00  0.00    +0.000 A 
ATOM     15  C   UNL     1       4.015   4.225  19.426  0.00  0.00    +0.000 A 
ATOM     16  C   UNL     1       4.728   5.011  18.508  0.00  0.00    +0.000 A 
ATOM     17 CL   UNL     1       6.310   4.474  18.004  0.00  0.00    +0.000 Cl
BRANCH  15  18
ATOM     18  C   UNL     1       4.475   2.931  19.845  0.00  0.00    +0.000 C 
ATOM     19  N   UNL     1       4.861   1.898  20.210  0.00  0.00    +0.000 NA
ENDBRANCH  15  18
ENDBRANCH   1  12
BRANCH   4  20
ATOM     20  C   UNL     1       0.304  10.247  21.683  0.00  0.00    +0.000 C 
ATOM     21  F   UNL     1      -0.890   9.679  21.403  0.00  0.00    +0.000 F 
ATOM     22  F   UNL     1       0.784   9.626  22.789  0.00  0.00    +0.000 F 
ATOM     23  F   UNL     1       0.060  11.527  22.021  0.00  0.00    +0.000 F 
ENDBRANCH   4  20
BRANCH   6  24
ATOM     24  O   UNL     1       0.331  12.859  18.069  0.00  0.00    +0.000 OA
ATOM     25  H   UNL     1      -0.381  13.526  18.031  0.00  0.00    +0.000 HD
ENDBRANCH   6  24
TORSDOF 4
ENDMDL
MODEL 9
REMARK VINA RESULT:      -6.8      3.960      7.267
REMARK  Name = 
REMARK  5 active torsions:
REMARK  status: ('A' for Active; 'I' for Inactive)
REMARK    1  A    between atoms: C_1  and  C_2
REMARK    2  A    between atoms: C_3  and  N_4
REMARK    3  A    between atoms: C_7  and  C_8
REMARK    4  A    between atoms: C_13  and  O_14
REMARK    5  A    between atoms: C_20  and  C_21
REMARK                            x       y       z     vdW  Elec       q    Type
REMARK                         _______ _______ _______ _____ _____    ______ ____
ROOT
ATOM      1  N   UNL     1       2.015   8.072  18.796  0.00  0.00    +0.000 NA
ATOM      2  C   UNL     1       1.375   8.800  19.643  0.00  0.00    +0.000 C 
ATOM      3  O   UNL     1       1.248   8.536  20.967  0.00  0.00    +0.000 OA
ATOM      4  C   UNL     1       1.036   9.795  21.661  0.00  0.00    +0.000 C 
ATOM      5  C   UNL     1       0.876  10.847  20.568  0.00  0.00    +0.000 C 
ATOM      6  C   UNL     1      -0.291  11.826  20.461  0.00  0.00    +0.000 C 
ATOM      7  C   UNL     1      -1.331  11.149  19.580  0.00  0.00    +0.000 C 
ATOM      8  C   UNL     1      -0.611   9.991  18.886  0.00  0.00    +0.000 C 
ATOM      9  N   UNL     1       0.778  10.009  19.363  0.00  0.00    +0.000 N 
ENDROOT
BRANCH   1  12
ATOM     10  C   UNL     1       4.452   7.149  17.097  0.00  0.00    +0.000 C 
ATOM     11  C   UNL     1       3.871   6.402  18.269  0.00  0.00    +0.000 A 
ATOM     12  C   UNL     1       2.783   6.910  19.022  0.00  0.00    +0.000 A 
ATOM     13  C   UNL     1       2.230   6.072  20.010  0.00  0.00    +0.000 A 
ATOM     14  C   UNL     1       2.708   4.786  20.266  0.00  0.00    +0.000 A 
ATOM     15  C   UNL     1       3.818   4.309  19.575  0.00  0.00    +0.000 A 
ATOM     16  C   UNL     1       4.422   5.129  18.609  0.00  0.00    +0.000 A 
ATOM     17 CL   UNL     1       5.865   4.555  17.813  0.00  0.00    +0.000 Cl
BRANCH  15  18
ATOM     18  C   UNL     1       4.258   2.963  19.819  0.00  0.00    +0.000 C 
ATOM     19  N   UNL     1       4.625   1.885  20.046  0.00  0.00    +0.000 NA
ENDBRANCH  15  18
ENDBRANCH   1  12
BRANCH   4  20
ATOM     20  C   UNL     1       0.015   9.711  22.780  0.00  0.00    +0.000 C 
ATOM     21  F   UNL     1      -0.582  10.901  23.009  0.00  0.00    +0.000 F 
ATOM     22  F   UNL     1      -0.967   8.839  22.440  0.00  0.00    +0.000 F 
ATOM     23  F   UNL     1       0.526   9.296  23.954  0.00  0.00    +0.000 F 
ENDBRANCH   4  20
BRANCH   6  24
ATOM     24  O   UNL     1       0.147  13.021  19.795  0.00  0.00    +0.000 OA
ATOM     25  H   UNL     1       0.346  13.687  20.480  0.00  0.00    +0.000 HD
ENDBRANCH   6  24
TORSDOF 4
ENDMDL
