MODEL 1
REMARK VINA RESULT:      -6.4      0.000      0.000
REMARK  Name = 
REMARK  12 active torsions:
REMARK  status: ('A' for Active; 'I' for Inactive)
REMARK    1  A    between atoms: C_1  and  C_2
REMARK    2  A    between atoms: C_2  and  C_3
REMARK    3  A    between atoms: C_3  and  C_4
REMARK    4  A    between atoms: C_4  and  C_5
REMARK    5  A    between atoms: C_5  and  C_6
REMARK    6  A    between atoms: C_6  and  C_7
REMARK    7  A    between atoms: C_7  and  C_8
REMARK    8  A    between atoms: C_8  and  C_9
REMARK    9  A    between atoms: N_11  and  C_12
REMARK   10  A    between atoms: C_12  and  C_13
REMARK   11  A    between atoms: C_16  and  C_17
REMARK   12  A    between atoms: C_17  and  O_19
REMARK                            x       y       z     vdW  Elec       q    Type
REMARK                         _______ _______ _______ _____ _____    ______ ____
ROOT
ATOM      1  C   UNL     1       3.036   2.083  18.507  0.00  0.00    +0.000 C 
ATOM      2  O   UNL     1       3.773   1.106  18.408  0.00  0.00    +0.000 OA
ATOM      3  N   UNL     1       3.172   3.218  17.746  0.00  0.00    +0.000 N 
ATOM      4  H   UNL     1       2.653   4.049  18.001  0.00  0.00    +0.000 HD
ENDROOT
BRANCH   1   5
ATOM      5  C   UNL     1       1.872   2.127  19.473  0.00  0.00    +0.000 C 
BRANCH   5   6
ATOM      6  C   UNL     1       0.975   3.332  19.199  0.00  0.00    +0.000 C 
BRANCH   6   7
ATOM      7  C   UNL     1       0.924   4.300  20.381  0.00  0.00    +0.000 C 
BRANCH   7   8
ATOM      8  C   UNL     1       2.261   5.022  20.530  0.00  0.00    +0.000 C 
BRANCH   8   9
ATOM      9  C   UNL     1       2.155   6.487  20.115  0.00  0.00    +0.000 C 
BRANCH   9  10
ATOM     10  C   UNL     1       2.230   6.629  18.595  0.00  0.00    +0.000 C 
BRANCH  10  12
ATOM     11  C   UNL     1       1.589   8.915  17.767  0.00  0.00    +0.000 C 
ATOM     12  C   UNL     1       2.735   8.013  18.195  0.00  0.00    +0.000 C 
ENDBRANCH  10  12
ENDBRANCH   9  10
ENDBRANCH   8   9
ENDBRANCH   7   8
ENDBRANCH   6   7
ENDBRANCH   5   6
ENDBRANCH   1   5
BRANCH   3  13
ATOM     13  C   UNL     1       4.218   3.317  16.759  0.00  0.00    +0.000 C 
BRANCH  13  14
ATOM     14  C   UNL     1       5.155   4.467  17.032  0.00  0.00    +0.000 A 
ATOM     15  C   UNL     1       6.238   4.312  17.904  0.00  0.00    +0.000 A 
ATOM     16  C   UNL     1       7.096   5.385  18.167  0.00  0.00    +0.000 A 
ATOM     17  C   UNL     1       6.881   6.640  17.579  0.00  0.00    +0.000 A 
ATOM     18  C   UNL     1       5.811   6.797  16.693  0.00  0.00    +0.000 A 
ATOM     19  C   UNL     1       4.962   5.715  16.418  0.00  0.00    +0.000 A 
BRANCH  17  20
ATOM     20  C   UNL     1       7.851   7.728  17.925  0.00  0.00    +0.000 C 
ATOM     21  O   UNL     1       7.977   8.720  17.238  0.00  0.00    +0.000 OA
BRANCH  20  22
ATOM     22  O   UNL     1       8.616   7.505  19.016  0.00  0.00    +0.000 OA
ATOM     23  H   UNL     1       8.353   6.785  19.609  0.00  0.00    +0.000 HD
ENDBRANCH  20  22
ENDBRANCH  17  20
ENDBRANCH  13  14
ENDBRANCH   3  13
TORSDOF 11
ENDMDL
MODEL 2
REMARK VINA RESULT:      -6.4      3.725      7.142
REMARK  Name = 
REMARK  12 active torsions:
REMARK  status: ('A' for Active; 'I' for Inactive)
REMARK    1  A    between atoms: C_1  and  C_2
REMARK    2  A    between atoms: C_2  and  C_3
REMARK    3  A    between atoms: C_3  and  C_4
REMARK    4  A    between atoms: C_4  and  C_5
REMARK    5  A    between atoms: C_5  and  C_6
REMARK    6  A    between atoms: C_6  and  C_7
REMARK    7  A    between atoms: C_7  and  C_8
REMARK    8  A    between atoms: C_8  and  C_9
REMARK    9  A    between atoms: N_11  and  C_12
REMARK   10  A    between atoms: C_12  and  C_13
REMARK   11  A    between atoms: C_16  and  C_17
REMARK   12  A    between atoms: C_17  and  O_19
REMARK                            x       y       z     vdW  Elec       q    Type
REMARK                         _______ _______ _______ _____ _____    ______ ____
ROOT
ATOM      1  C   UNL     1       5.458   5.926  16.311  0.00  0.00    +0.000 C 
ATOM      2  O   UNL     1       4.904   6.926  16.759  0.00  0.00    +0.000 OA
ATOM      3  N   UNL     1       6.094   4.993  17.094  0.00  0.00    +0.000 N 
ATOM      4  H   UNL     1       6.681   4.298  16.654  0.00  0.00    +0.000 HD
ENDROOT
BRANCH   1   5
ATOM      5  C   UNL     1       5.475   5.601  14.833  0.00  0.00    +0.000 C 
BRANCH   5   6
ATOM      6  C   UNL     1       6.055   4.211  14.582  0.00  0.00    +0.000 C 
BRANCH   6   7
ATOM      7  C   UNL     1       6.506   4.022  13.134  0.00  0.00    +0.000 C 
BRANCH   7   8
ATOM      8  C   UNL     1       6.145   2.620  12.648  0.00  0.00    +0.000 C 
BRANCH   8   9
ATOM      9  C   UNL     1       5.411   2.662  11.310  0.00  0.00    +0.000 C 
BRANCH   9  10
ATOM     10  C   UNL     1       4.128   3.485  11.420  0.00  0.00    +0.000 C 
BRANCH  10  12
ATOM     11  C   UNL     1       2.786   4.402   9.501  0.00  0.00    +0.000 C 
ATOM     12  C   UNL     1       3.163   3.155  10.283  0.00  0.00    +0.000 C 
ENDBRANCH  10  12
ENDBRANCH   9  10
ENDBRANCH   8   9
ENDBRANCH   7   8
ENDBRANCH   6   7
ENDBRANCH   5   6
ENDBRANCH   1   5
BRANCH   3  13
ATOM     13  C   UNL     1       6.138   5.148  18.527  0.00  0.00    +0.000 C 
BRANCH  13  14
ATOM     14  C   UNL     1       4.900   4.611  19.199  0.00  0.00    +0.000 A 
ATOM     15  C   UNL     1       4.716   3.233  19.355  0.00  0.00    +0.000 A 
ATOM     16  C   UNL     1       3.559   2.736  19.966  0.00  0.00    +0.000 A 
ATOM     17  C   UNL     1       2.553   3.605  20.418  0.00  0.00    +0.000 A 
ATOM     18  C   UNL     1       2.740   4.984  20.281  0.00  0.00    +0.000 A 
ATOM     19  C   UNL     1       3.909   5.479  19.684  0.00  0.00    +0.000 A 
BRANCH  17  20
ATOM     20  C   UNL     1       1.350   2.979  21.053  0.00  0.00    +0.000 C 
ATOM     21  O   UNL     1       1.383   2.513  22.173  0.00  0.00    +0.000 OA
BRANCH  20  22
ATOM     22  O   UNL     1       0.245   2.915  20.278  0.00  0.00    +0.000 OA
ATOM     23  H   UNL     1       0.338   3.154  19.344  0.00  0.00    +0.000 HD
ENDBRANCH  20  22
ENDBRANCH  17  20
ENDBRANCH  13  14
ENDBRANCH   3  13
TORSDOF 11
ENDMDL
MODEL 3
REMARK VINA RESULT:      -6.3      2.694      4.340
REMARK  Name = 
REMARK  12 active torsions:
REMARK  status: ('A' for Active; 'I' for Inactive)
REMARK    1  A    between atoms: C_1  and  C_2
REMARK    2  A    between atoms: C_2  and  C_3
REMARK    3  A    between atoms: C_3  and  C_4
REMARK    4  A    between atoms: C_4  and  C_5
REMARK    5  A    between atoms: C_5  and  C_6
REMARK    6  A    between atoms: C_6  and  C_7
REMARK    7  A    between atoms: C_7  and  C_8
REMARK    8  A    between atoms: C_8  and  C_9
REMARK    9  A    between atoms: N_11  and  C_12
REMARK   10  A    between atoms: C_12  and  C_13
REMARK   11  A    between atoms: C_16  and  C_17
REMARK   12  A    between atoms: C_17  and  O_19
REMARK                            x       y       z     vdW  Elec       q    Type
REMARK                         _______ _______ _______ _____ _____    ______ ____
ROOT
ATOM      1  C   UNL     1       2.565   6.212  19.780  0.00  0.00    +0.000 C 
ATOM      2  O   UNL     1       2.540   7.400  19.473  0.00  0.00    +0.000 OA
ATOM      3  N   UNL     1       3.714   5.459  19.814  0.00  0.00    +0.000 N 
ATOM      4  H   UNL     1       3.642   4.453  19.895  0.00  0.00    +0.000 HD
ENDROOT
BRANCH   1   5
ATOM      5  C   UNL     1       1.320   5.451  20.181  0.00  0.00    +0.000 C 
BRANCH   5   6
ATOM      6  C   UNL     1       1.647   3.997  20.512  0.00  0.00    +0.000 C 
BRANCH   6   7
ATOM      7  C   UNL     1       0.587   3.029  19.986  0.00  0.00    +0.000 C 
BRANCH   7   8
ATOM      8  C   UNL     1       1.131   2.250  18.790  0.00  0.00    +0.000 C 
BRANCH   8   9
ATOM      9  C   UNL     1       1.876   3.162  17.820  0.00  0.00    +0.000 C 
BRANCH   9  10
ATOM     10  C   UNL     1       3.305   2.668  17.597  0.00  0.00    +0.000 C 
BRANCH  10  12
ATOM     11  C   UNL     1       4.546   1.997  19.678  0.00  0.00    +0.000 C 
ATOM     12  C   UNL     1       3.647   1.524  18.549  0.00  0.00    +0.000 C 
ENDBRANCH  10  12
ENDBRANCH   9  10
ENDBRANCH   8   9
ENDBRANCH   7   8
ENDBRANCH   6   7
ENDBRANCH   5   6
ENDBRANCH   1   5
BRANCH   3  13
ATOM     13  C   UNL     1       4.986   6.050  19.484  0.00  0.00    +0.000 C 
BRANCH  13  14
ATOM     14  C   UNL     1       5.465   5.649  18.112  0.00  0.00    +0.000 A 
ATOM     15  C   UNL     1       4.899   6.219  16.966  0.00  0.00    +0.000 A 
ATOM     16  C   UNL     1       5.334   5.834  15.693  0.00  0.00    +0.000 A 
ATOM     17  C   UNL     1       6.332   4.860  15.537  0.00  0.00    +0.000 A 
ATOM     18  C   UNL     1       6.914   4.300  16.678  0.00  0.00    +0.000 A 
ATOM     19  C   UNL     1       6.487   4.701  17.954  0.00  0.00    +0.000 A 
BRANCH  17  20
ATOM     20  C   UNL     1       6.728   4.510  14.135  0.00  0.00    +0.000 C 
ATOM     21  O   UNL     1       7.375   5.267  13.442  0.00  0.00    +0.000 OA
BRANCH  20  22
ATOM     22  O   UNL     1       6.267   3.327  13.675  0.00  0.00    +0.000 OA
ATOM     23  H   UNL     1       6.340   2.558  14.260  0.00  0.00    +0.000 HD
ENDBRANCH  20  22
ENDBRANCH  17  20
ENDBRANCH  13  14
ENDBRANCH   3  13
TORSDOF 11
ENDMDL
MODEL 4
REMARK VINA RESULT:      -6.2      0.780      1.211
REMARK  Name = 
REMARK  12 active torsions:
REMARK  status: ('A' for Active; 'I' for Inactive)
REMARK    1  A    between atoms: C_1  and  C_2
REMARK    2  A    between atoms: C_2  and  C_3
REMARK    3  A    between atoms: C_3  and  C_4
REMARK    4  A    between atoms: C_4  and  C_5
REMARK    5  A    between atoms: C_5  and  C_6
REMARK    6  A    between atoms: C_6  and  C_7
REMARK    7  A    between atoms: C_7  and  C_8
REMARK    8  A    between atoms: C_8  and  C_9
REMARK    9  A    between atoms: N_11  and  C_12
REMARK   10  A    between atoms: C_12  and  C_13
REMARK   11  A    between atoms: C_16  and  C_17
REMARK   12  A    between atoms: C_17  and  O_19
REMARK                            x       y       z     vdW  Elec       q    Type
REMARK                         _______ _______ _______ _____ _____    ______ ____
ROOT
ATOM      1  C   UNL     1       2.234   2.598  18.959  0.00  0.00    +0.000 C 
ATOM      2  O   UNL     1       2.988   1.770  19.461  0.00  0.00    +0.000 OA
ATOM      3  N   UNL     1       2.505   3.262  17.786  0.00  0.00    +0.000 N 
ATOM      4  H   UNL     1       1.935   4.056  17.526  0.00  0.00    +0.000 HD
ENDROOT
BRANCH   1   5
ATOM      5  C   UNL     1       0.899   2.960  19.573  0.00  0.00    +0.000 C 
BRANCH   5   6
ATOM      6  C   UNL     1       1.058   4.043  20.637  0.00  0.00    +0.000 C 
BRANCH   6   7
ATOM      7  C   UNL     1       2.057   5.123  20.223  0.00  0.00    +0.000 C 
BRANCH   7   8
ATOM      8  C   UNL     1       1.654   6.471  20.817  0.00  0.00    +0.000 C 
BRANCH   8   9
ATOM      9  C   UNL     1       2.105   7.630  19.932  0.00  0.00    +0.000 C 
BRANCH   9  10
ATOM     10  C   UNL     1       2.814   7.114  18.680  0.00  0.00    +0.000 C 
BRANCH  10  12
ATOM     11  C   UNL     1       1.850   9.267  17.808  0.00  0.00    +0.000 C 
ATOM     12  C   UNL     1       2.923   8.208  17.619  0.00  0.00    +0.000 C 
ENDBRANCH  10  12
ENDBRANCH   9  10
ENDBRANCH   8   9
ENDBRANCH   7   8
ENDBRANCH   6   7
ENDBRANCH   5   6
ENDBRANCH   1   5
BRANCH   3  13
ATOM     13  C   UNL     1       3.727   3.005  17.066  0.00  0.00    +0.000 C 
BRANCH  13  14
ATOM     14  C   UNL     1       4.735   4.113  17.236  0.00  0.00    +0.000 A 
ATOM     15  C   UNL     1       5.305   4.372  18.487  0.00  0.00    +0.000 A 
ATOM     16  C   UNL     1       6.229   5.410  18.645  0.00  0.00    +0.000 A 
ATOM     17  C   UNL     1       6.590   6.224  17.560  0.00  0.00    +0.000 A 
ATOM     18  C   UNL     1       6.038   5.960  16.303  0.00  0.00    +0.000 A 
ATOM     19  C   UNL     1       5.125   4.906  16.145  0.00  0.00    +0.000 A 
BRANCH  17  20
ATOM     20  C   UNL     1       7.583   7.313  17.828  0.00  0.00    +0.000 C 
ATOM     21  O   UNL     1       8.355   7.264  18.763  0.00  0.00    +0.000 OA
BRANCH  20  22
ATOM     22  O   UNL     1       7.521   8.378  16.999  0.00  0.00    +0.000 OA
ATOM     23  H   UNL     1       6.904   9.090  17.227  0.00  0.00    +0.000 HD
ENDBRANCH  20  22
ENDBRANCH  17  20
ENDBRANCH  13  14
ENDBRANCH   3  13
TORSDOF 11
ENDMDL
MODEL 5
REMARK VINA RESULT:      -6.2      2.464      3.007
REMARK  Name = 
REMARK  12 active torsions:
REMARK  status: ('A' for Active; 'I' for Inactive)
REMARK    1  A    between atoms: C_1  and  C_2
REMARK    2  A    between atoms: C_2  and  C_3
REMARK    3  A    between atoms: C_3  and  C_4
REMARK    4  A    between atoms: C_4  and  C_5
REMARK    5  A    between atoms: C_5  and  C_6
REMARK    6  A    between atoms: C_6  and  C_7
REMARK    7  A    between atoms: C_7  and  C_8
REMARK    8  A    between atoms: C_8  and  C_9
REMARK    9  A    between atoms: N_11  and  C_12
REMARK   10  A    between atoms: C_12  and  C_13
REMARK   11  A    between atoms: C_16  and  C_17
REMARK   12  A    between atoms: C_17  and  O_19
REMARK                            x       y       z     vdW  Elec       q    Type
REMARK                         _______ _______ _______ _____ _____    ______ ____
ROOT
ATOM      1  C   UNL     1       3.949   2.512  19.518  0.00  0.00    +0.000 C 
ATOM      2  O   UNL     1       4.852   1.876  20.052  0.00  0.00    +0.000 OA
ATOM      3  N   UNL     1       4.145   3.702  18.857  0.00  0.00    +0.000 N 
ATOM      4  H   UNL     1       3.342   4.262  18.601  0.00  0.00    +0.000 HD
ENDROOT
BRANCH   1   5
ATOM      5  C   UNL     1       2.513   2.035  19.508  0.00  0.00    +0.000 C 
BRANCH   5   6
ATOM      6  C   UNL     1       1.575   3.121  18.989  0.00  0.00    +0.000 C 
BRANCH   6   7
ATOM      7  C   UNL     1       0.792   3.800  20.113  0.00  0.00    +0.000 C 
BRANCH   7   8
ATOM      8  C   UNL     1       1.709   4.725  20.910  0.00  0.00    +0.000 C 
BRANCH   8   9
ATOM      9  C   UNL     1       1.476   6.190  20.551  0.00  0.00    +0.000 C 
BRANCH   9  10
ATOM     10  C   UNL     1       2.670   6.758  19.784  0.00  0.00    +0.000 C 
BRANCH  10  12
ATOM     11  C   UNL     1       2.728   8.150  17.691  0.00  0.00    +0.000 C 
ATOM     12  C   UNL     1       2.395   6.791  18.283  0.00  0.00    +0.000 C 
ENDBRANCH  10  12
ENDBRANCH   9  10
ENDBRANCH   8   9
ENDBRANCH   7   8
ENDBRANCH   6   7
ENDBRANCH   5   6
ENDBRANCH   1   5
BRANCH   3  13
ATOM     13  C   UNL     1       5.464   4.274  18.755  0.00  0.00    +0.000 C 
BRANCH  13  14
ATOM     14  C   UNL     1       5.916   4.417  17.324  0.00  0.00    +0.000 A 
ATOM     15  C   UNL     1       5.051   4.105  16.269  0.00  0.00    +0.000 A 
ATOM     16  C   UNL     1       5.478   4.224  14.942  0.00  0.00    +0.000 A 
ATOM     17  C   UNL     1       6.783   4.642  14.640  0.00  0.00    +0.000 A 
ATOM     18  C   UNL     1       7.647   4.972  15.689  0.00  0.00    +0.000 A 
ATOM     19  C   UNL     1       7.210   4.868  17.019  0.00  0.00    +0.000 A 
BRANCH  17  20
ATOM     20  C   UNL     1       7.150   4.734  13.191  0.00  0.00    +0.000 C 
ATOM     21  O   UNL     1       6.712   3.959  12.366  0.00  0.00    +0.000 OA
BRANCH  20  22
ATOM     22  O   UNL     1       8.042   5.697  12.873  0.00  0.00    +0.000 OA
ATOM     23  H   UNL     1       8.821   5.794  13.443  0.00  0.00    +0.000 HD
ENDBRANCH  20  22
ENDBRANCH  17  20
ENDBRANCH  13  14
ENDBRANCH   3  13
TORSDOF 11
ENDMDL
MODEL 6
REMARK VINA RESULT:      -6.2      3.499      6.096
REMARK  Name = 
REMARK  12 active torsions:
REMARK  status: ('A' for Active; 'I' for Inactive)
REMARK    1  A    between atoms: C_1  and  C_2
REMARK    2  A    between atoms: C_2  and  C_3
REMARK    3  A    between atoms: C_3  and  C_4
REMARK    4  A    between atoms: C_4  and  C_5
REMARK    5  A    between atoms: C_5  and  C_6
REMARK    6  A    between atoms: C_6  and  C_7
REMARK    7  A    between atoms: C_7  and  C_8
REMARK    8  A    between atoms: C_8  and  C_9
REMARK    9  A    between atoms: N_11  and  C_12
REMARK   10  A    between atoms: C_12  and  C_13
REMARK   11  A    between atoms: C_16  and  C_17
REMARK   12  A    between atoms: C_17  and  O_19
REMARK                            x       y       z     vdW  Elec       q    Type
REMARK                         _______ _______ _______ _____ _____    ______ ____
ROOT
ATOM      1  C   UNL     1       4.621   6.340  17.308  0.00  0.00    +0.000 C 
ATOM      2  O   UNL     1       5.485   7.210  17.235  0.00  0.00    +0.000 OA
ATOM      3  N   UNL     1       3.279   6.609  17.424  0.00  0.00    +0.000 N 
ATOM      4  H   UNL     1       2.644   5.857  17.661  0.00  0.00    +0.000 HD
ENDROOT
BRANCH   1   5
ATOM      5  C   UNL     1       4.949   4.864  17.249  0.00  0.00    +0.000 C 
BRANCH   5   6
ATOM      6  C   UNL     1       4.486   4.146  18.515  0.00  0.00    +0.000 C 
BRANCH   6   7
ATOM      7  C   UNL     1       3.685   2.881  18.206  0.00  0.00    +0.000 C 
BRANCH   7   8
ATOM      8  C   UNL     1       2.289   3.249  17.709  0.00  0.00    +0.000 C 
BRANCH   8   9
ATOM      9  C   UNL     1       1.456   3.903  18.808  0.00  0.00    +0.000 C 
BRANCH   9  10
ATOM     10  C   UNL     1       0.747   2.845  19.654  0.00  0.00    +0.000 C 
BRANCH  10  12
ATOM     11  C   UNL     1       2.116   4.059  21.378  0.00  0.00    +0.000 C 
ATOM     12  C   UNL     1       1.305   2.811  21.075  0.00  0.00    +0.000 C 
ENDBRANCH  10  12
ENDBRANCH   9  10
ENDBRANCH   8   9
ENDBRANCH   7   8
ENDBRANCH   6   7
ENDBRANCH   5   6
ENDBRANCH   1   5
BRANCH   3  13
ATOM     13  C   UNL     1       2.805   7.969  17.464  0.00  0.00    +0.000 C 
BRANCH  13  14
ATOM     14  C   UNL     1       2.120   8.298  18.766  0.00  0.00    +0.000 A 
ATOM     15  C   UNL     1       2.185   7.414  19.848  0.00  0.00    +0.000 A 
ATOM     16  C   UNL     1       1.535   7.715  21.051  0.00  0.00    +0.000 A 
ATOM     17  C   UNL     1       0.792   8.897  21.191  0.00  0.00    +0.000 A 
ATOM     18  C   UNL     1       0.738   9.793  20.120  0.00  0.00    +0.000 A 
ATOM     19  C   UNL     1       1.405   9.497  18.921  0.00  0.00    +0.000 A 
BRANCH  17  20
ATOM     20  C   UNL     1       0.128   9.129  22.514  0.00  0.00    +0.000 C 
ATOM     21  O   UNL     1       0.620   9.841  23.365  0.00  0.00    +0.000 OA
BRANCH  20  22
ATOM     22  O   UNL     1      -1.021   8.449  22.719  0.00  0.00    +0.000 OA
ATOM     23  H   UNL     1      -1.659   8.823  23.346  0.00  0.00    +0.000 HD
ENDBRANCH  20  22
ENDBRANCH  17  20
ENDBRANCH  13  14
ENDBRANCH   3  13
TORSDOF 11
ENDMDL
MODEL 7
REMARK VINA RESULT:      -6.1      3.416      5.048
REMARK  Name = 
REMARK  12 active torsions:
REMARK  status: ('A' for Active; 'I' for Inactive)
REMARK    1  A    between atoms: C_1  and  C_2
REMARK    2  A    between atoms: C_2  and  C_3
REMARK    3  A    between atoms: C_3  and  C_4
REMARK    4  A    between atoms: C_4  and  C_5
REMARK    5  A    between atoms: C_5  and  C_6
REMARK    6  A    between atoms: C_6  and  C_7
REMARK    7  A    between atoms: C_7  and  C_8
REMARK    8  A    between atoms: C_8  and  C_9
REMARK    9  A    between atoms: N_11  and  C_12
REMARK   10  A    between atoms: C_12  and  C_13
REMARK   11  A    between atoms: C_16  and  C_17
REMARK   12  A    between atoms: C_17  and  O_19
REMARK                            x       y       z     vdW  Elec       q    Type
REMARK                         _______ _______ _______ _____ _____    ______ ____
ROOT
ATOM      1  C   UNL     1       5.580   5.231  18.840  0.00  0.00    +0.000 C 
ATOM      2  O   UNL     1       6.255   4.244  19.117  0.00  0.00    +0.000 OA
ATOM      3  N   UNL     1       5.894   6.108  17.829  0.00  0.00    +0.000 N 
ATOM      4  H   UNL     1       5.404   6.991  17.772  0.00  0.00    +0.000 HD
ENDROOT
BRANCH   1   5
ATOM      5  C   UNL     1       4.303   5.575  19.575  0.00  0.00    +0.000 C 
BRANCH   5   6
ATOM      6  C   UNL     1       3.188   5.943  18.600  0.00  0.00    +0.000 C 
BRANCH   6   7
ATOM      7  C   UNL     1       2.873   4.811  17.622  0.00  0.00    +0.000 C 
BRANCH   7   8
ATOM      8  C   UNL     1       1.481   4.247  17.900  0.00  0.00    +0.000 C 
BRANCH   8   9
ATOM      9  C   UNL     1       1.544   2.780  18.315  0.00  0.00    +0.000 C 
BRANCH   9  10
ATOM     10  C   UNL     1       0.804   2.556  19.634  0.00  0.00    +0.000 C 
BRANCH  10  12
ATOM     11  C   UNL     1       2.139   3.290  21.635  0.00  0.00    +0.000 C 
ATOM     12  C   UNL     1       1.081   3.689  20.620  0.00  0.00    +0.000 C 
ENDBRANCH  10  12
ENDBRANCH   9  10
ENDBRANCH   8   9
ENDBRANCH   7   8
ENDBRANCH   6   7
ENDBRANCH   5   6
ENDBRANCH   1   5
BRANCH   3  13
ATOM     13  C   UNL     1       7.067   5.900  17.018  0.00  0.00    +0.000 C 
BRANCH  13  14
ATOM     14  C   UNL     1       6.759   5.149  15.748  0.00  0.00    +0.000 A 
ATOM     15  C   UNL     1       7.532   5.345  14.598  0.00  0.00    +0.000 A 
ATOM     16  C   UNL     1       7.234   4.657  13.417  0.00  0.00    +0.000 A 
ATOM     17  C   UNL     1       6.147   3.772  13.353  0.00  0.00    +0.000 A 
ATOM     18  C   UNL     1       5.381   3.559  14.503  0.00  0.00    +0.000 A 
ATOM     19  C   UNL     1       5.693   4.236  15.691  0.00  0.00    +0.000 A 
BRANCH  17  20
ATOM     20  C   UNL     1       5.904   3.087  12.043  0.00  0.00    +0.000 C 
ATOM     21  O   UNL     1       6.771   2.454  11.478  0.00  0.00    +0.000 OA
BRANCH  20  22
ATOM     22  O   UNL     1       4.678   3.269  11.506  0.00  0.00    +0.000 OA
ATOM     23  H   UNL     1       3.974   2.660  11.775  0.00  0.00    +0.000 HD
ENDBRANCH  20  22
ENDBRANCH  17  20
ENDBRANCH  13  14
ENDBRANCH   3  13
TORSDOF 11
ENDMDL
MODEL 8
REMARK VINA RESULT:      -6.1      3.470      7.558
REMARK  Name = 
REMARK  12 active torsions:
REMARK  status: ('A' for Active; 'I' for Inactive)
REMARK    1  A    between atoms: C_1  and  C_2
REMARK    2  A    between atoms: C_2  and  C_3
REMARK    3  A    between atoms: C_3  and  C_4
REMARK    4  A    between atoms: C_4  and  C_5
REMARK    5  A    between atoms: C_5  and  C_6
REMARK    6  A    between atoms: C_6  and  C_7
REMARK    7  A    between atoms: C_7  and  C_8
REMARK    8  A    between atoms: C_8  and  C_9
REMARK    9  A    between atoms: N_11  and  C_12
REMARK   10  A    between atoms: C_12  and  C_13
REMARK   11  A    between atoms: C_16  and  C_17
REMARK   12  A    between atoms: C_17  and  O_19
REMARK                            x       y       z     vdW  Elec       q    Type
REMARK                         _______ _______ _______ _____ _____    ______ ____
ROOT
ATOM      1  C   UNL     1       7.858   7.291  17.887  0.00  0.00    +0.000 C 
ATOM      2  O   UNL     1       8.259   6.826  18.950  0.00  0.00    +0.000 OA
ATOM      3  N   UNL     1       7.293   6.532  16.890  0.00  0.00    +0.000 N 
ATOM      4  H   UNL     1       7.154   6.944  15.976  0.00  0.00    +0.000 HD
ENDROOT
BRANCH   1   5
ATOM      5  C   UNL     1       7.922   8.769  17.571  0.00  0.00    +0.000 C 
BRANCH   5   6
ATOM      6  C   UNL     1       8.788   9.512  18.585  0.00  0.00    +0.000 C 
BRANCH   6   7
ATOM      7  C   UNL     1       9.003  10.977  18.205  0.00  0.00    +0.000 C 
BRANCH   7   8
ATOM      8  C   UNL     1      10.488  11.248  17.969  0.00  0.00    +0.000 C 
BRANCH   8   9
ATOM      9  C   UNL     1      11.003  12.364  18.872  0.00  0.00    +0.000 C 
BRANCH   9  10
ATOM     10  C   UNL     1      10.972  11.935  20.339  0.00  0.00    +0.000 C 
BRANCH  10  12
ATOM     11  C   UNL     1       8.973  12.101  21.854  0.00  0.00    +0.000 C 
ATOM     12  C   UNL     1      10.091  12.867  21.167  0.00  0.00    +0.000 C 
ENDBRANCH  10  12
ENDBRANCH   9  10
ENDBRANCH   8   9
ENDBRANCH   7   8
ENDBRANCH   6   7
ENDBRANCH   5   6
ENDBRANCH   1   5
BRANCH   3  13
ATOM     13  C   UNL     1       7.136   5.109  17.052  0.00  0.00    +0.000 C 
BRANCH  13  14
ATOM     14  C   UNL     1       5.738   4.732  17.473  0.00  0.00    +0.000 A 
ATOM     15  C   UNL     1       5.289   4.996  18.771  0.00  0.00    +0.000 A 
ATOM     16  C   UNL     1       3.997   4.631  19.163  0.00  0.00    +0.000 A 
ATOM     17  C   UNL     1       3.131   3.979  18.272  0.00  0.00    +0.000 A 
ATOM     18  C   UNL     1       3.568   3.727  16.968  0.00  0.00    +0.000 A 
ATOM     19  C   UNL     1       4.858   4.110  16.573  0.00  0.00    +0.000 A 
BRANCH  17  20
ATOM     20  C   UNL     1       1.769   3.623  18.785  0.00  0.00    +0.000 C 
ATOM     21  O   UNL     1       0.979   2.983  18.122  0.00  0.00    +0.000 OA
BRANCH  20  22
ATOM     22  O   UNL     1       1.457   4.112  20.005  0.00  0.00    +0.000 OA
ATOM     23  H   UNL     1       1.077   3.498  20.651  0.00  0.00    +0.000 HD
ENDBRANCH  20  22
ENDBRANCH  17  20
ENDBRANCH  13  14
ENDBRANCH   3  13
TORSDOF 11
ENDMDL
MODEL 9
REMARK VINA RESULT:      -6.1      3.961      7.387
REMARK  Name = 
REMARK  12 active torsions:
REMARK  status: ('A' for Active; 'I' for Inactive)
REMARK    1  A    between atoms: C_1  and  C_2
REMARK    2  A    between atoms: C_2  and  C_3
REMARK    3  A    between atoms: C_3  and  C_4
REMARK    4  A    between atoms: C_4  and  C_5
REMARK    5  A    between atoms: C_5  and  C_6
REMARK    6  A    between atoms: C_6  and  C_7
REMARK    7  A    between atoms: C_7  and  C_8
REMARK    8  A    between atoms: C_8  and  C_9
REMARK    9  A    between atoms: N_11  and  C_12
REMARK   10  A    between atoms: C_12  and  C_13
REMARK   11  A    between atoms: C_16  and  C_17
REMARK   12  A    between atoms: C_17  and  O_19
REMARK                            x       y       z     vdW  Elec       q    Type
REMARK                         _______ _______ _______ _____ _____    ______ ____
ROOT
ATOM      1  C   UNL     1       6.633   5.029  15.365  0.00  0.00    +0.000 C 
ATOM      2  O   UNL     1       7.730   4.617  15.731  0.00  0.00    +0.000 OA
ATOM      3  N   UNL     1       5.616   5.357  16.229  0.00  0.00    +0.000 N 
ATOM      4  H   UNL     1       4.687   5.513  15.861  0.00  0.00    +0.000 HD
ENDROOT
BRANCH   1   5
ATOM      5  C   UNL     1       6.293   5.246  13.907  0.00  0.00    +0.000 C 
BRANCH   5   6
ATOM      6  C   UNL     1       7.469   4.878  13.006  0.00  0.00    +0.000 C 
BRANCH   6   7
ATOM      7  C   UNL     1       7.041   4.034  11.805  0.00  0.00    +0.000 C 
BRANCH   7   8
ATOM      8  C   UNL     1       6.446   2.709  12.278  0.00  0.00    +0.000 C 
BRANCH   8   9
ATOM      9  C   UNL     1       5.216   2.324  11.461  0.00  0.00    +0.000 C 
BRANCH   9  10
ATOM     10  C   UNL     1       4.320   3.539  11.222  0.00  0.00    +0.000 C 
BRANCH  10  12
ATOM     11  C   UNL     1       2.784   4.518   9.488  0.00  0.00    +0.000 C 
ATOM     12  C   UNL     1       3.260   3.243  10.163  0.00  0.00    +0.000 C 
ENDBRANCH  10  12
ENDBRANCH   9  10
ENDBRANCH   8   9
ENDBRANCH   7   8
ENDBRANCH   6   7
ENDBRANCH   5   6
ENDBRANCH   1   5
BRANCH   3  13
ATOM     13  C   UNL     1       5.797   5.231  17.654  0.00  0.00    +0.000 C 
BRANCH  13  14
ATOM     14  C   UNL     1       4.578   4.665  18.337  0.00  0.00    +0.000 A 
ATOM     15  C   UNL     1       4.211   5.102  19.614  0.00  0.00    +0.000 A 
ATOM     16  C   UNL     1       3.088   4.564  20.253  0.00  0.00    +0.000 A 
ATOM     17  C   UNL     1       2.319   3.566  19.637  0.00  0.00    +0.000 A 
ATOM     18  C   UNL     1       2.670   3.137  18.353  0.00  0.00    +0.000 A 
ATOM     19  C   UNL     1       3.787   3.691  17.708  0.00  0.00    +0.000 A 
BRANCH  17  20
ATOM     20  C   UNL     1       1.139   3.048  20.400  0.00  0.00    +0.000 C 
ATOM     21  O   UNL     1       1.164   2.907  21.605  0.00  0.00    +0.000 OA
BRANCH  20  22
ATOM     22  O   UNL     1       0.068   2.695  19.655  0.00  0.00    +0.000 OA
ATOM     23  H   UNL     1      -0.614   3.366  19.503  0.00  0.00    +0.000 HD
ENDBRANCH  20  22
ENDBRANCH  17  20
ENDBRANCH  13  14
ENDBRANCH   3  13
TORSDOF 11
ENDMDL
