MODEL 1
REMARK VINA RESULT:      -6.2      0.000      0.000
REMARK  Name = 
REMARK  11 active torsions:
REMARK  status: ('A' for Active; 'I' for Inactive)
REMARK    1  A    between atoms: C_1  and  C_2
REMARK    2  A    between atoms: C_2  and  O_3
REMARK    3  A    between atoms: O_3  and  C_4
REMARK    4  A    between atoms: C_4  and  C_6
REMARK    5  A    between atoms: C_10  and  C_11
REMARK    6  A    between atoms: C_11  and  S_12
REMARK    7  A    between atoms: S_12  and  C_13
REMARK    8  A    between atoms: C_13  and  C_14
REMARK    9  A    between atoms: C_17  and  C_18
REMARK   10  A    between atoms: C_18  and  O_20
REMARK   11  A    between atoms: O_20  and  C_21
REMARK                            x       y       z     vdW  Elec       q    Type
REMARK                         _______ _______ _______ _____ _____    ______ ____
ROOT
ATOM      1  C   UNL     1       5.223   3.841  19.416  0.00  0.00    +0.000 C 
ENDROOT
BRANCH   1   6
ATOM      2  C   UNL     1       2.780   4.646  18.748  0.00  0.00    +0.000 A 
ATOM      3  C   UNL     1       1.949   4.223  17.667  0.00  0.00    +0.000 A 
ATOM      4  C   UNL     1       2.677   3.316  16.943  0.00  0.00    +0.000 A 
ATOM      5  O   UNL     1       3.900   3.139  17.498  0.00  0.00    +0.000 OA
ATOM      6  C   UNL     1       3.964   3.932  18.616  0.00  0.00    +0.000 A 
BRANCH   2   7
ATOM      7  C   UNL     1       2.455   5.569  19.818  0.00  0.00    +0.000 C 
ATOM      8  O   UNL     1       2.440   6.785  19.688  0.00  0.00    +0.000 OA
BRANCH   7   9
ATOM      9  O   UNL     1       2.259   4.911  20.997  0.00  0.00    +0.000 OA
BRANCH   9  11
ATOM     10  C   UNL     1       1.806   2.704  21.760  0.00  0.00    +0.000 C 
ATOM     11  C   UNL     1       1.271   3.876  20.956  0.00  0.00    +0.000 C 
ENDBRANCH   9  11
ENDBRANCH   7   9
ENDBRANCH   2   7
ENDBRANCH   1   6
BRANCH   1  12
ATOM     12  S   UNL     1       6.285   5.293  19.097  0.00  0.00    +0.000 S 
BRANCH  12  13
ATOM     13  C   UNL     1       7.289   4.654  17.710  0.00  0.00    +0.000 C 
BRANCH  13  14
ATOM     14  C   UNL     1       6.618   4.935  16.403  0.00  0.00    +0.000 A 
ATOM     15  C   UNL     1       5.643   5.829  16.011  0.00  0.00    +0.000 A 
ATOM     16  C   UNL     1       5.418   5.607  14.631  0.00  0.00    +0.000 A 
ATOM     17  C   UNL     1       6.280   4.595  14.240  0.00  0.00    +0.000 A 
ATOM     18  O   UNL     1       7.018   4.193  15.330  0.00  0.00    +0.000 OA
BRANCH  17  19
ATOM     19  C   UNL     1       6.466   3.975  12.942  0.00  0.00    +0.000 C 
ATOM     20  O   UNL     1       7.347   4.248  12.139  0.00  0.00    +0.000 OA
BRANCH  19  21
ATOM     21  O   UNL     1       5.513   3.010  12.755  0.00  0.00    +0.000 OA
ATOM     22  C   UNL     1       4.647   3.238  11.645  0.00  0.00    +0.000 C 
ENDBRANCH  19  21
ENDBRANCH  17  19
ENDBRANCH  13  14
ENDBRANCH  12  13
ENDBRANCH   1  12
TORSDOF 9
ENDMDL
MODEL 2
REMARK VINA RESULT:      -6.2      3.056      7.697
REMARK  Name = 
REMARK  11 active torsions:
REMARK  status: ('A' for Active; 'I' for Inactive)
REMARK    1  A    between atoms: C_1  and  C_2
REMARK    2  A    between atoms: C_2  and  O_3
REMARK    3  A    between atoms: O_3  and  C_4
REMARK    4  A    between atoms: C_4  and  C_6
REMARK    5  A    between atoms: C_10  and  C_11
REMARK    6  A    between atoms: C_11  and  S_12
REMARK    7  A    between atoms: S_12  and  C_13
REMARK    8  A    between atoms: C_13  and  C_14
REMARK    9  A    between atoms: C_17  and  C_18
REMARK   10  A    between atoms: C_18  and  O_20
REMARK   11  A    between atoms: O_20  and  C_21
REMARK                            x       y       z     vdW  Elec       q    Type
REMARK                         _______ _______ _______ _____ _____    ______ ____
ROOT
ATOM      1  C   UNL     1       4.832   4.445  18.632  0.00  0.00    +0.000 C 
ENDROOT
BRANCH   1   6
ATOM      2  C   UNL     1       6.846   5.961  17.791  0.00  0.00    +0.000 A 
ATOM      3  C   UNL     1       8.026   6.369  18.485  0.00  0.00    +0.000 A 
ATOM      4  C   UNL     1       7.926   5.871  19.758  0.00  0.00    +0.000 A 
ATOM      5  O   UNL     1       6.773   5.177  19.906  0.00  0.00    +0.000 OA
ATOM      6  C   UNL     1       6.116   5.208  18.702  0.00  0.00    +0.000 A 
BRANCH   2   7
ATOM      7  C   UNL     1       6.495   6.203  16.406  0.00  0.00    +0.000 C 
ATOM      8  O   UNL     1       5.513   6.842  16.053  0.00  0.00    +0.000 OA
BRANCH   7   9
ATOM      9  O   UNL     1       7.344   5.553  15.559  0.00  0.00    +0.000 OA
BRANCH   9  11
ATOM     10  C   UNL     1       6.033   3.649  14.997  0.00  0.00    +0.000 C 
ATOM     11  C   UNL     1       6.713   4.895  14.456  0.00  0.00    +0.000 C 
ENDBRANCH   9  11
ENDBRANCH   7   9
ENDBRANCH   2   7
ENDBRANCH   1   6
BRANCH   1  12
ATOM     12  S   UNL     1       3.516   5.329  19.540  0.00  0.00    +0.000 S 
BRANCH  12  13
ATOM     13  C   UNL     1       2.760   6.268  18.166  0.00  0.00    +0.000 C 
BRANCH  13  14
ATOM     14  C   UNL     1       2.159   7.542  18.669  0.00  0.00    +0.000 A 
ATOM     15  C   UNL     1       1.791   8.723  18.058  0.00  0.00    +0.000 A 
ATOM     16  C   UNL     1       1.283   9.566  19.076  0.00  0.00    +0.000 A 
ATOM     17  C   UNL     1       1.351   8.854  20.262  0.00  0.00    +0.000 A 
ATOM     18  O   UNL     1       1.882   7.610  20.004  0.00  0.00    +0.000 OA
BRANCH  17  19
ATOM     19  C   UNL     1       0.967   9.237  21.607  0.00  0.00    +0.000 C 
ATOM     20  O   UNL     1       1.715   9.310  22.571  0.00  0.00    +0.000 OA
BRANCH  19  21
ATOM     21  O   UNL     1      -0.371   9.530  21.635  0.00  0.00    +0.000 OA
ATOM     22  C   UNL     1      -0.674  10.884  21.966  0.00  0.00    +0.000 C 
ENDBRANCH  19  21
ENDBRANCH  17  19
ENDBRANCH  13  14
ENDBRANCH  12  13
ENDBRANCH   1  12
TORSDOF 9
ENDMDL
MODEL 3
REMARK VINA RESULT:      -6.1      1.849      7.396
REMARK  Name = 
REMARK  11 active torsions:
REMARK  status: ('A' for Active; 'I' for Inactive)
REMARK    1  A    between atoms: C_1  and  C_2
REMARK    2  A    between atoms: C_2  and  O_3
REMARK    3  A    between atoms: O_3  and  C_4
REMARK    4  A    between atoms: C_4  and  C_6
REMARK    5  A    between atoms: C_10  and  C_11
REMARK    6  A    between atoms: C_11  and  S_12
REMARK    7  A    between atoms: S_12  and  C_13
REMARK    8  A    between atoms: C_13  and  C_14
REMARK    9  A    between atoms: C_17  and  C_18
REMARK   10  A    between atoms: C_18  and  O_20
REMARK   11  A    between atoms: O_20  and  C_21
REMARK                            x       y       z     vdW  Elec       q    Type
REMARK                         _______ _______ _______ _____ _____    ______ ____
ROOT
ATOM      1  C   UNL     1       5.145   4.257  14.850  0.00  0.00    +0.000 C 
ENDROOT
BRANCH   1   6
ATOM      2  C   UNL     1       6.286   3.874  12.481  0.00  0.00    +0.000 A 
ATOM      3  C   UNL     1       7.530   4.368  11.982  0.00  0.00    +0.000 A 
ATOM      4  C   UNL     1       8.054   5.172  12.960  0.00  0.00    +0.000 A 
ATOM      5  O   UNL     1       7.230   5.210  14.034  0.00  0.00    +0.000 OA
ATOM      6  C   UNL     1       6.156   4.401  13.759  0.00  0.00    +0.000 A 
BRANCH   2   7
ATOM      7  C   UNL     1       5.368   2.954  11.839  0.00  0.00    +0.000 C 
ATOM      8  O   UNL     1       5.678   1.830  11.466  0.00  0.00    +0.000 OA
BRANCH   7   9
ATOM      9  O   UNL     1       4.152   3.535  11.627  0.00  0.00    +0.000 OA
BRANCH   9  11
ATOM     10  C   UNL     1       2.935   4.122   9.669  0.00  0.00    +0.000 C 
ATOM     11  C   UNL     1       3.393   2.974  10.552  0.00  0.00    +0.000 C 
ENDBRANCH   9  11
ENDBRANCH   7   9
ENDBRANCH   2   7
ENDBRANCH   1   6
BRANCH   1  12
ATOM     12  S   UNL     1       5.962   4.276  16.483  0.00  0.00    +0.000 S 
BRANCH  12  13
ATOM     13  C   UNL     1       5.330   5.863  17.136  0.00  0.00    +0.000 C 
BRANCH  13  14
ATOM     14  C   UNL     1       4.160   5.630  18.037  0.00  0.00    +0.000 A 
ATOM     15  C   UNL     1       3.096   6.415  18.432  0.00  0.00    +0.000 A 
ATOM     16  C   UNL     1       2.315   5.628  19.313  0.00  0.00    +0.000 A 
ATOM     17  C   UNL     1       2.930   4.390  19.402  0.00  0.00    +0.000 A 
ATOM     18  O   UNL     1       4.057   4.395  18.611  0.00  0.00    +0.000 OA
BRANCH  17  19
ATOM     19  C   UNL     1       2.558   3.212  20.162  0.00  0.00    +0.000 C 
ATOM     20  O   UNL     1       3.311   2.534  20.844  0.00  0.00    +0.000 OA
BRANCH  19  21
ATOM     21  O   UNL     1       1.215   2.982  20.019  0.00  0.00    +0.000 OA
ATOM     22  C   UNL     1       0.842   2.406  18.769  0.00  0.00    +0.000 C 
ENDBRANCH  19  21
ENDBRANCH  17  19
ENDBRANCH  13  14
ENDBRANCH  12  13
ENDBRANCH   1  12
TORSDOF 9
ENDMDL
MODEL 4
REMARK VINA RESULT:      -6.1      2.908      4.368
REMARK  Name = 
REMARK  11 active torsions:
REMARK  status: ('A' for Active; 'I' for Inactive)
REMARK    1  A    between atoms: C_1  and  C_2
REMARK    2  A    between atoms: C_2  and  O_3
REMARK    3  A    between atoms: O_3  and  C_4
REMARK    4  A    between atoms: C_4  and  C_6
REMARK    5  A    between atoms: C_10  and  C_11
REMARK    6  A    between atoms: C_11  and  S_12
REMARK    7  A    between atoms: S_12  and  C_13
REMARK    8  A    between atoms: C_13  and  C_14
REMARK    9  A    between atoms: C_17  and  C_18
REMARK   10  A    between atoms: C_18  and  O_20
REMARK   11  A    between atoms: O_20  and  C_21
REMARK                            x       y       z     vdW  Elec       q    Type
REMARK                         _______ _______ _______ _____ _____    ______ ____
ROOT
ATOM      1  C   UNL     1       1.691   3.831  17.954  0.00  0.00    +0.000 C 
ENDROOT
BRANCH   1   6
ATOM      2  C   UNL     1       2.004   4.705  20.444  0.00  0.00    +0.000 A 
ATOM      3  C   UNL     1       1.987   3.975  21.671  0.00  0.00    +0.000 A 
ATOM      4  C   UNL     1       1.708   2.672  21.350  0.00  0.00    +0.000 A 
ATOM      5  O   UNL     1       1.557   2.537  20.011  0.00  0.00    +0.000 OA
ATOM      6  C   UNL     1       1.758   3.771  19.446  0.00  0.00    +0.000 A 
BRANCH   2   7
ATOM      7  C   UNL     1       2.292   6.111  20.245  0.00  0.00    +0.000 C 
ATOM      8  O   UNL     1       3.212   6.529  19.554  0.00  0.00    +0.000 OA
BRANCH   7   9
ATOM      9  O   UNL     1       1.466   6.897  20.995  0.00  0.00    +0.000 OA
BRANCH   9  11
ATOM     10  C   UNL     1       1.154   9.054  21.948  0.00  0.00    +0.000 C 
ATOM     11  C   UNL     1       1.509   8.292  20.682  0.00  0.00    +0.000 C 
ENDBRANCH   9  11
ENDBRANCH   7   9
ENDBRANCH   2   7
ENDBRANCH   1   6
BRANCH   1  12
ATOM     12  S   UNL     1       2.799   2.579  17.217  0.00  0.00    +0.000 S 
BRANCH  12  13
ATOM     13  C   UNL     1       4.362   2.999  18.067  0.00  0.00    +0.000 C 
BRANCH  13  14
ATOM     14  C   UNL     1       4.938   4.263  17.510  0.00  0.00    +0.000 A 
ATOM     15  C   UNL     1       4.615   5.057  16.429  0.00  0.00    +0.000 A 
ATOM     16  C   UNL     1       5.545   6.124  16.416  0.00  0.00    +0.000 A 
ATOM     17  C   UNL     1       6.385   5.941  17.501  0.00  0.00    +0.000 A 
ATOM     18  O   UNL     1       6.004   4.801  18.172  0.00  0.00    +0.000 OA
BRANCH  17  19
ATOM     19  C   UNL     1       7.511   6.734  17.958  0.00  0.00    +0.000 C 
ATOM     20  O   UNL     1       8.211   6.488  18.929  0.00  0.00    +0.000 OA
BRANCH  19  21
ATOM     21  O   UNL     1       7.691   7.799  17.117  0.00  0.00    +0.000 OA
ATOM     22  C   UNL     1       7.975   9.033  17.775  0.00  0.00    +0.000 C 
ENDBRANCH  19  21
ENDBRANCH  17  19
ENDBRANCH  13  14
ENDBRANCH  12  13
ENDBRANCH   1  12
TORSDOF 9
ENDMDL
MODEL 5
REMARK VINA RESULT:      -6.0      1.763      3.324
REMARK  Name = 
REMARK  11 active torsions:
REMARK  status: ('A' for Active; 'I' for Inactive)
REMARK    1  A    between atoms: C_1  and  C_2
REMARK    2  A    between atoms: C_2  and  O_3
REMARK    3  A    between atoms: O_3  and  C_4
REMARK    4  A    between atoms: C_4  and  C_6
REMARK    5  A    between atoms: C_10  and  C_11
REMARK    6  A    between atoms: C_11  and  S_12
REMARK    7  A    between atoms: S_12  and  C_13
REMARK    8  A    between atoms: C_13  and  C_14
REMARK    9  A    between atoms: C_17  and  C_18
REMARK   10  A    between atoms: C_18  and  O_20
REMARK   11  A    between atoms: O_20  and  C_21
REMARK                            x       y       z     vdW  Elec       q    Type
REMARK                         _______ _______ _______ _____ _____    ______ ____
ROOT
ATOM      1  C   UNL     1       2.285   6.353  19.682  0.00  0.00    +0.000 C 
ENDROOT
BRANCH   1   6
ATOM      2  C   UNL     1       1.786   3.749  19.508  0.00  0.00    +0.000 A 
ATOM      3  C   UNL     1       1.721   2.766  20.542  0.00  0.00    +0.000 A 
ATOM      4  C   UNL     1       2.034   3.406  21.713  0.00  0.00    +0.000 A 
ATOM      5  O   UNL     1       2.283   4.718  21.484  0.00  0.00    +0.000 OA
ATOM      6  C   UNL     1       2.112   4.941  20.141  0.00  0.00    +0.000 A 
BRANCH   2   7
ATOM      7  C   UNL     1       1.501   3.581  18.097  0.00  0.00    +0.000 C 
ATOM      8  O   UNL     1       0.911   4.410  17.417  0.00  0.00    +0.000 OA
BRANCH   7   9
ATOM      9  O   UNL     1       1.892   2.352  17.655  0.00  0.00    +0.000 OA
BRANCH   9  11
ATOM     10  C   UNL     1       3.864   1.170  18.268  0.00  0.00    +0.000 C 
ATOM     11  C   UNL     1       3.286   2.233  17.350  0.00  0.00    +0.000 C 
ENDBRANCH   9  11
ENDBRANCH   7   9
ENDBRANCH   2   7
ENDBRANCH   1   6
BRANCH   1  12
ATOM     12  S   UNL     1       3.639   6.463  18.460  0.00  0.00    +0.000 S 
BRANCH  12  13
ATOM     13  C   UNL     1       4.761   5.176  19.114  0.00  0.00    +0.000 C 
BRANCH  13  14
ATOM     14  C   UNL     1       5.875   4.913  18.151  0.00  0.00    +0.000 A 
ATOM     15  C   UNL     1       7.233   4.721  18.301  0.00  0.00    +0.000 A 
ATOM     16  C   UNL     1       7.762   4.523  17.003  0.00  0.00    +0.000 A 
ATOM     17  C   UNL     1       6.697   4.588  16.119  0.00  0.00    +0.000 A 
ATOM     18  O   UNL     1       5.542   4.820  16.830  0.00  0.00    +0.000 OA
BRANCH  17  19
ATOM     19  C   UNL     1       6.671   4.457  14.675  0.00  0.00    +0.000 C 
ATOM     20  O   UNL     1       6.116   3.566  14.048  0.00  0.00    +0.000 OA
BRANCH  19  21
ATOM     21  O   UNL     1       7.347   5.504  14.108  0.00  0.00    +0.000 OA
ATOM     22  C   UNL     1       7.880   5.234  12.813  0.00  0.00    +0.000 C 
ENDBRANCH  19  21
ENDBRANCH  17  19
ENDBRANCH  13  14
ENDBRANCH  12  13
ENDBRANCH   1  12
TORSDOF 9
ENDMDL
MODEL 6
REMARK VINA RESULT:      -6.0      2.993      7.348
REMARK  Name = 
REMARK  11 active torsions:
REMARK  status: ('A' for Active; 'I' for Inactive)
REMARK    1  A    between atoms: C_1  and  C_2
REMARK    2  A    between atoms: C_2  and  O_3
REMARK    3  A    between atoms: O_3  and  C_4
REMARK    4  A    between atoms: C_4  and  C_6
REMARK    5  A    between atoms: C_10  and  C_11
REMARK    6  A    between atoms: C_11  and  S_12
REMARK    7  A    between atoms: S_12  and  C_13
REMARK    8  A    between atoms: C_13  and  C_14
REMARK    9  A    between atoms: C_17  and  C_18
REMARK   10  A    between atoms: C_18  and  O_20
REMARK   11  A    between atoms: O_20  and  C_21
REMARK                            x       y       z     vdW  Elec       q    Type
REMARK                         _______ _______ _______ _____ _____    ______ ____
ROOT
ATOM      1  C   UNL     1       4.698   4.274  19.143  0.00  0.00    +0.000 C 
ENDROOT
BRANCH   1   6
ATOM      2  C   UNL     1       6.286   5.784  17.641  0.00  0.00    +0.000 A 
ATOM      3  C   UNL     1       7.582   6.308  17.933  0.00  0.00    +0.000 A 
ATOM      4  C   UNL     1       7.877   5.935  19.217  0.00  0.00    +0.000 A 
ATOM      5  O   UNL     1       6.862   5.211  19.745  0.00  0.00    +0.000 OA
ATOM      6  C   UNL     1       5.893   5.094  18.780  0.00  0.00    +0.000 A 
BRANCH   2   7
ATOM      7  C   UNL     1       5.545   5.873  16.398  0.00  0.00    +0.000 C 
ATOM      8  O   UNL     1       5.366   6.917  15.784  0.00  0.00    +0.000 OA
BRANCH   7   9
ATOM      9  O   UNL     1       5.002   4.669  16.058  0.00  0.00    +0.000 OA
BRANCH   9  11
ATOM     10  C   UNL     1       6.271   4.126  14.120  0.00  0.00    +0.000 C 
ATOM     11  C   UNL     1       5.932   3.711  15.541  0.00  0.00    +0.000 C 
ENDBRANCH   9  11
ENDBRANCH   7   9
ENDBRANCH   2   7
ENDBRANCH   1   6
BRANCH   1  12
ATOM     12  S   UNL     1       3.395   5.333  19.865  0.00  0.00    +0.000 S 
BRANCH  12  13
ATOM     13  C   UNL     1       2.571   5.907  18.337  0.00  0.00    +0.000 C 
BRANCH  13  14
ATOM     14  C   UNL     1       2.245   7.363  18.433  0.00  0.00    +0.000 A 
ATOM     15  C   UNL     1       2.446   8.437  17.590  0.00  0.00    +0.000 A 
ATOM     16  C   UNL     1       1.919   9.575  18.248  0.00  0.00    +0.000 A 
ATOM     17  C   UNL     1       1.405   9.139  19.458  0.00  0.00    +0.000 A 
ATOM     18  O   UNL     1       1.602   7.781  19.562  0.00  0.00    +0.000 OA
BRANCH  17  19
ATOM     19  C   UNL     1       0.754   9.882  20.521  0.00  0.00    +0.000 C 
ATOM     20  O   UNL     1      -0.158  10.683  20.377  0.00  0.00    +0.000 OA
BRANCH  19  21
ATOM     21  O   UNL     1       1.303   9.533  21.725  0.00  0.00    +0.000 OA
ATOM     22  C   UNL     1       0.357   9.342  22.776  0.00  0.00    +0.000 C 
ENDBRANCH  19  21
ENDBRANCH  17  19
ENDBRANCH  13  14
ENDBRANCH  12  13
ENDBRANCH   1  12
TORSDOF 9
ENDMDL
MODEL 7
REMARK VINA RESULT:      -5.9      2.288      6.252
REMARK  Name = 
REMARK  11 active torsions:
REMARK  status: ('A' for Active; 'I' for Inactive)
REMARK    1  A    between atoms: C_1  and  C_2
REMARK    2  A    between atoms: C_2  and  O_3
REMARK    3  A    between atoms: O_3  and  C_4
REMARK    4  A    between atoms: C_4  and  C_6
REMARK    5  A    between atoms: C_10  and  C_11
REMARK    6  A    between atoms: C_11  and  S_12
REMARK    7  A    between atoms: S_12  and  C_13
REMARK    8  A    between atoms: C_13  and  C_14
REMARK    9  A    between atoms: C_17  and  C_18
REMARK   10  A    between atoms: C_18  and  O_20
REMARK   11  A    between atoms: O_20  and  C_21
REMARK                            x       y       z     vdW  Elec       q    Type
REMARK                         _______ _______ _______ _____ _____    ______ ____
ROOT
ATOM      1  C   UNL     1       4.182   5.239  17.338  0.00  0.00    +0.000 C 
ENDROOT
BRANCH   1   6
ATOM      2  C   UNL     1       6.642   4.804  16.432  0.00  0.00    +0.000 A 
ATOM      3  C   UNL     1       7.080   4.499  15.107  0.00  0.00    +0.000 A 
ATOM      4  C   UNL     1       5.954   4.403  14.333  0.00  0.00    +0.000 A 
ATOM      5  O   UNL     1       4.846   4.632  15.077  0.00  0.00    +0.000 OA
ATOM      6  C   UNL     1       5.258   4.900  16.358  0.00  0.00    +0.000 A 
BRANCH   2   7
ATOM      7  C   UNL     1       7.453   5.043  17.609  0.00  0.00    +0.000 C 
ATOM      8  O   UNL     1       8.301   4.264  18.023  0.00  0.00    +0.000 OA
BRANCH   7   9
ATOM      9  O   UNL     1       7.086   6.197  18.237  0.00  0.00    +0.000 OA
BRANCH   9  11
ATOM     10  C   UNL     1       7.798   8.387  17.642  0.00  0.00    +0.000 C 
ATOM     11  C   UNL     1       8.143   7.140  18.438  0.00  0.00    +0.000 C 
ENDBRANCH   9  11
ENDBRANCH   7   9
ENDBRANCH   2   7
ENDBRANCH   1   6
BRANCH   1  12
ATOM     12  S   UNL     1       4.003   7.051  17.485  0.00  0.00    +0.000 S 
BRANCH  12  13
ATOM     13  C   UNL     1       2.355   7.145  18.269  0.00  0.00    +0.000 C 
BRANCH  13  14
ATOM     14  C   UNL     1       2.102   5.930  19.105  0.00  0.00    +0.000 A 
ATOM     15  C   UNL     1       2.144   5.689  20.463  0.00  0.00    +0.000 A 
ATOM     16  C   UNL     1       1.810   4.324  20.644  0.00  0.00    +0.000 A 
ATOM     17  C   UNL     1       1.564   3.799  19.386  0.00  0.00    +0.000 A 
ATOM     18  O   UNL     1       1.738   4.791  18.448  0.00  0.00    +0.000 OA
BRANCH  17  19
ATOM     19  C   UNL     1       1.187   2.455  18.990  0.00  0.00    +0.000 C 
ATOM     20  O   UNL     1       0.123   2.132  18.482  0.00  0.00    +0.000 OA
BRANCH  19  21
ATOM     21  O   UNL     1       2.219   1.595  19.251  0.00  0.00    +0.000 OA
ATOM     22  C   UNL     1       3.306   1.676  18.331  0.00  0.00    +0.000 C 
ENDBRANCH  19  21
ENDBRANCH  17  19
ENDBRANCH  13  14
ENDBRANCH  12  13
ENDBRANCH   1  12
TORSDOF 9
ENDMDL
MODEL 8
REMARK VINA RESULT:      -5.9      2.466      7.247
REMARK  Name = 
REMARK  11 active torsions:
REMARK  status: ('A' for Active; 'I' for Inactive)
REMARK    1  A    between atoms: C_1  and  C_2
REMARK    2  A    between atoms: C_2  and  O_3
REMARK    3  A    between atoms: O_3  and  C_4
REMARK    4  A    between atoms: C_4  and  C_6
REMARK    5  A    between atoms: C_10  and  C_11
REMARK    6  A    between atoms: C_11  and  S_12
REMARK    7  A    between atoms: S_12  and  C_13
REMARK    8  A    between atoms: C_13  and  C_14
REMARK    9  A    between atoms: C_17  and  C_18
REMARK   10  A    between atoms: C_18  and  O_20
REMARK   11  A    between atoms: O_20  and  C_21
REMARK                            x       y       z     vdW  Elec       q    Type
REMARK                         _______ _______ _______ _____ _____    ______ ____
ROOT
ATOM      1  C   UNL     1       5.059   3.662  18.334  0.00  0.00    +0.000 C 
ENDROOT
BRANCH   1   6
ATOM      2  C   UNL     1       6.382   5.683  17.228  0.00  0.00    +0.000 A 
ATOM      3  C   UNL     1       7.461   6.458  17.753  0.00  0.00    +0.000 A 
ATOM      4  C   UNL     1       7.687   6.005  19.027  0.00  0.00    +0.000 A 
ATOM      5  O   UNL     1       6.831   5.000  19.330  0.00  0.00    +0.000 OA
ATOM      6  C   UNL     1       6.044   4.781  18.228  0.00  0.00    +0.000 A 
BRANCH   2   7
ATOM      7  C   UNL     1       5.795   5.752  15.904  0.00  0.00    +0.000 C 
ATOM      8  O   UNL     1       5.241   6.746  15.455  0.00  0.00    +0.000 OA
BRANCH   7   9
ATOM      9  O   UNL     1       5.862   4.546  15.270  0.00  0.00    +0.000 OA
BRANCH   9  11
ATOM     10  C   UNL     1       6.054   3.662  13.070  0.00  0.00    +0.000 C 
ATOM     11  C   UNL     1       6.733   4.506  14.136  0.00  0.00    +0.000 C 
ENDBRANCH   9  11
ENDBRANCH   7   9
ENDBRANCH   2   7
ENDBRANCH   1   6
BRANCH   1  12
ATOM     12  S   UNL     1       4.055   3.840  19.850  0.00  0.00    +0.000 S 
BRANCH  12  13
ATOM     13  C   UNL     1       2.456   4.335  19.116  0.00  0.00    +0.000 C 
BRANCH  13  14
ATOM     14  C   UNL     1       2.340   5.826  19.068  0.00  0.00    +0.000 A 
ATOM     15  C   UNL     1       2.653   6.771  18.114  0.00  0.00    +0.000 A 
ATOM     16  C   UNL     1       2.317   8.032  18.665  0.00  0.00    +0.000 A 
ATOM     17  C   UNL     1       1.799   7.795  19.927  0.00  0.00    +0.000 A 
ATOM     18  O   UNL     1       1.809   6.440  20.166  0.00  0.00    +0.000 OA
BRANCH  17  19
ATOM     19  C   UNL     1       1.302   8.725  20.924  0.00  0.00    +0.000 C 
ATOM     20  O   UNL     1       1.523   8.670  22.125  0.00  0.00    +0.000 OA
BRANCH  19  21
ATOM     21  O   UNL     1       0.559   9.698  20.311  0.00  0.00    +0.000 OA
ATOM     22  C   UNL     1       0.770  11.014  20.820  0.00  0.00    +0.000 C 
ENDBRANCH  19  21
ENDBRANCH  17  19
ENDBRANCH  13  14
ENDBRANCH  12  13
ENDBRANCH   1  12
TORSDOF 9
ENDMDL
MODEL 9
REMARK VINA RESULT:      -5.9      1.449      1.991
REMARK  Name = 
REMARK  11 active torsions:
REMARK  status: ('A' for Active; 'I' for Inactive)
REMARK    1  A    between atoms: C_1  and  C_2
REMARK    2  A    between atoms: C_2  and  O_3
REMARK    3  A    between atoms: O_3  and  C_4
REMARK    4  A    between atoms: C_4  and  C_6
REMARK    5  A    between atoms: C_10  and  C_11
REMARK    6  A    between atoms: C_11  and  S_12
REMARK    7  A    between atoms: S_12  and  C_13
REMARK    8  A    between atoms: C_13  and  C_14
REMARK    9  A    between atoms: C_17  and  C_18
REMARK   10  A    between atoms: C_18  and  O_20
REMARK   11  A    between atoms: O_20  and  C_21
REMARK                            x       y       z     vdW  Elec       q    Type
REMARK                         _______ _______ _______ _____ _____    ______ ____
ROOT
ATOM      1  C   UNL     1       5.858   5.328  19.324  0.00  0.00    +0.000 C 
ENDROOT
BRANCH   1   6
ATOM      2  C   UNL     1       3.202   5.399  19.254  0.00  0.00    +0.000 A 
ATOM      3  C   UNL     1       2.337   6.268  18.522  0.00  0.00    +0.000 A 
ATOM      4  C   UNL     1       3.141   7.158  17.860  0.00  0.00    +0.000 A 
ATOM      5  O   UNL     1       4.445   6.903  18.121  0.00  0.00    +0.000 OA
ATOM      6  C   UNL     1       4.493   5.815  18.955  0.00  0.00    +0.000 A 
BRANCH   2   7
ATOM      7  C   UNL     1       2.840   4.266  20.081  0.00  0.00    +0.000 C 
ATOM      8  O   UNL     1       2.320   4.365  21.184  0.00  0.00    +0.000 OA
BRANCH   7   9
ATOM      9  O   UNL     1       3.234   3.091  19.511  0.00  0.00    +0.000 OA
BRANCH   9  11
ATOM     10  C   UNL     1       1.073   2.367  18.828  0.00  0.00    +0.000 C 
ATOM     11  C   UNL     1       2.481   2.693  18.361  0.00  0.00    +0.000 C 
ENDBRANCH   9  11
ENDBRANCH   7   9
ENDBRANCH   2   7
ENDBRANCH   1   6
BRANCH   1  12
ATOM     12  S   UNL     1       7.111   6.033  18.196  0.00  0.00    +0.000 S 
BRANCH  12  13
ATOM     13  C   UNL     1       7.535   4.544  17.224  0.00  0.00    +0.000 C 
BRANCH  13  14
ATOM     14  C   UNL     1       6.606   4.395  16.061  0.00  0.00    +0.000 A 
ATOM     15  C   UNL     1       5.236   4.487  15.924  0.00  0.00    +0.000 A 
ATOM     16  C   UNL     1       4.946   4.234  14.561  0.00  0.00    +0.000 A 
ATOM     17  C   UNL     1       6.156   4.014  13.925  0.00  0.00    +0.000 A 
ATOM     18  O   UNL     1       7.171   4.121  14.849  0.00  0.00    +0.000 OA
BRANCH  17  19
ATOM     19  C   UNL     1       6.442   3.710  12.536  0.00  0.00    +0.000 C 
ATOM     20  O   UNL     1       7.278   4.266  11.840  0.00  0.00    +0.000 OA
BRANCH  19  21
ATOM     21  O   UNL     1       5.641   2.680  12.120  0.00  0.00    +0.000 OA
ATOM     22  C   UNL     1       4.538   3.076  11.308  0.00  0.00    +0.000 C 
ENDBRANCH  19  21
ENDBRANCH  17  19
ENDBRANCH  13  14
ENDBRANCH  12  13
ENDBRANCH   1  12
TORSDOF 9
ENDMDL
