MODEL 1
REMARK VINA RESULT:      -6.0      0.000      0.000
REMARK  Name = 
REMARK  1 active torsions:
REMARK  status: ('A' for Active; 'I' for Inactive)
REMARK    1  A    between atoms: N_1  and  C_2
REMARK                            x       y       z     vdW  Elec       q    Type
REMARK                         _______ _______ _______ _____ _____    ______ ____
ROOT
ATOM      1  C   UNL     1       7.571   5.798  19.111  0.00  0.00    +0.000 A 
ATOM      2  C   UNL     1       8.076   6.959  18.510  0.00  0.00    +0.000 A 
ATOM      3  C   UNL     1       7.387   7.567  17.464  0.00  0.00    +0.000 A 
ATOM      4  C   UNL     1       6.175   7.035  17.035  0.00  0.00    +0.000 A 
ATOM      5  C   UNL     1       5.641   5.891  17.651  0.00  0.00    +0.000 A 
ATOM      6  C   UNL     1       4.418   5.346  17.241  0.00  0.00    +0.000 A 
ATOM      7  C   UNL     1       3.915   4.215  17.872  0.00  0.00    +0.000 A 
ATOM      8  C   UNL     1       4.657   3.664  18.897  0.00  0.00    +0.000 A 
ATOM      9  N   UNL     1       5.842   4.155  19.321  0.00  0.00    +0.000 NA
ATOM     10  C   UNL     1       6.331   5.262  18.711  0.00  0.00    +0.000 A 
ENDROOT
BRANCH   1  11
ATOM     11  N   UNL     1       8.224   5.291  20.266  0.00  0.00    +0.000 N 
ATOM     12  H   UNL     1       8.526   4.329  20.177  0.00  0.00    +0.000 HD
ATOM     13  H   UNL     1       7.635   5.464  21.084  0.00  0.00    +0.000 HD
ENDBRANCH   1  11
TORSDOF 1
ENDMDL
MODEL 2
REMARK VINA RESULT:      -5.8      1.533      4.231
REMARK  Name = 
REMARK  1 active torsions:
REMARK  status: ('A' for Active; 'I' for Inactive)
REMARK    1  A    between atoms: N_1  and  C_2
REMARK                            x       y       z     vdW  Elec       q    Type
REMARK                         _______ _______ _______ _____ _____    ______ ____
ROOT
ATOM      1  C   UNL     1       4.095   2.581  19.301  0.00  0.00    +0.000 A 
ATOM      2  C   UNL     1       2.872   2.015  18.916  0.00  0.00    +0.000 A 
ATOM      3  C   UNL     1       2.037   2.681  18.025  0.00  0.00    +0.000 A 
ATOM      4  C   UNL     1       2.433   3.902  17.489  0.00  0.00    +0.000 A 
ATOM      5  C   UNL     1       3.672   4.466  17.839  0.00  0.00    +0.000 A 
ATOM      6  C   UNL     1       4.093   5.689  17.303  0.00  0.00    +0.000 A 
ATOM      7  C   UNL     1       5.325   6.218  17.668  0.00  0.00    +0.000 A 
ATOM      8  C   UNL     1       6.097   5.504  18.563  0.00  0.00    +0.000 A 
ATOM      9  N   UNL     1       5.726   4.323  19.105  0.00  0.00    +0.000 NA
ATOM     10  C   UNL     1       4.528   3.802  18.746  0.00  0.00    +0.000 A 
ENDROOT
BRANCH   1  11
ATOM     11  N   UNL     1       4.983   1.809  20.095  0.00  0.00    +0.000 N 
ATOM     12  H   UNL     1       5.941   2.136  20.076  0.00  0.00    +0.000 HD
ATOM     13  H   UNL     1       4.880   0.822  19.846  0.00  0.00    +0.000 HD
ENDBRANCH   1  11
TORSDOF 1
ENDMDL
MODEL 3
REMARK VINA RESULT:      -5.7      3.268      4.607
REMARK  Name = 
REMARK  1 active torsions:
REMARK  status: ('A' for Active; 'I' for Inactive)
REMARK    1  A    between atoms: N_1  and  C_2
REMARK                            x       y       z     vdW  Elec       q    Type
REMARK                         _______ _______ _______ _____ _____    ______ ____
ROOT
ATOM      1  C   UNL     1       4.238   3.383  18.651  0.00  0.00    +0.000 A 
ATOM      2  C   UNL     1       3.949   3.816  17.350  0.00  0.00    +0.000 A 
ATOM      3  C   UNL     1       2.631   4.016  16.950  0.00  0.00    +0.000 A 
ATOM      4  C   UNL     1       1.597   3.815  17.859  0.00  0.00    +0.000 A 
ATOM      5  C   UNL     1       1.874   3.414  19.176  0.00  0.00    +0.000 A 
ATOM      6  C   UNL     1       0.848   3.215  20.109  0.00  0.00    +0.000 A 
ATOM      7  C   UNL     1       1.155   2.820  21.405  0.00  0.00    +0.000 A 
ATOM      8  C   UNL     1       2.485   2.635  21.726  0.00  0.00    +0.000 A 
ATOM      9  N   UNL     1       3.504   2.811  20.857  0.00  0.00    +0.000 NA
ATOM     10  C   UNL     1       3.207   3.203  19.594  0.00  0.00    +0.000 A 
ENDROOT
BRANCH   1  11
ATOM     11  N   UNL     1       5.595   3.330  19.065  0.00  0.00    +0.000 N 
ATOM     12  H   UNL     1       6.103   2.532  18.705  0.00  0.00    +0.000 HD
ATOM     13  H   UNL     1       5.636   3.419  20.083  0.00  0.00    +0.000 HD
ENDBRANCH   1  11
TORSDOF 1
ENDMDL
MODEL 4
REMARK VINA RESULT:      -5.6      2.082      3.262
REMARK  Name = 
REMARK  1 active torsions:
REMARK  status: ('A' for Active; 'I' for Inactive)
REMARK    1  A    between atoms: N_1  and  C_2
REMARK                            x       y       z     vdW  Elec       q    Type
REMARK                         _______ _______ _______ _____ _____    ______ ____
ROOT
ATOM      1  C   UNL     1       4.967   4.616  18.211  0.00  0.00    +0.000 A 
ATOM      2  C   UNL     1       4.900   6.000  17.995  0.00  0.00    +0.000 A 
ATOM      3  C   UNL     1       3.668   6.632  17.857  0.00  0.00    +0.000 A 
ATOM      4  C   UNL     1       2.496   5.890  17.964  0.00  0.00    +0.000 A 
ATOM      5  C   UNL     1       2.547   4.508  18.214  0.00  0.00    +0.000 A 
ATOM      6  C   UNL     1       1.379   3.745  18.336  0.00  0.00    +0.000 A 
ATOM      7  C   UNL     1       1.464   2.381  18.585  0.00  0.00    +0.000 A 
ATOM      8  C   UNL     1       2.721   1.823  18.704  0.00  0.00    +0.000 A 
ATOM      9  N   UNL     1       3.872   2.521  18.589  0.00  0.00    +0.000 NA
ATOM     10  C   UNL     1       3.792   3.853  18.353  0.00  0.00    +0.000 A 
ENDROOT
BRANCH   1  11
ATOM     11  N   UNL     1       6.230   4.032  18.491  0.00  0.00    +0.000 N 
ATOM     12  H   UNL     1       6.370   3.128  18.057  0.00  0.00    +0.000 HD
ATOM     13  H   UNL     1       6.379   4.030  19.503  0.00  0.00    +0.000 HD
ENDBRANCH   1  11
TORSDOF 1
ENDMDL
MODEL 5
REMARK VINA RESULT:      -5.6      1.175      3.552
REMARK  Name = 
REMARK  1 active torsions:
REMARK  status: ('A' for Active; 'I' for Inactive)
REMARK    1  A    between atoms: N_1  and  C_2
REMARK                            x       y       z     vdW  Elec       q    Type
REMARK                         _______ _______ _______ _____ _____    ______ ____
ROOT
ATOM      1  C   UNL     1       4.533   3.792  19.099  0.00  0.00    +0.000 A 
ATOM      2  C   UNL     1       3.151   3.930  18.911  0.00  0.00    +0.000 A 
ATOM      3  C   UNL     1       2.640   5.025  18.220  0.00  0.00    +0.000 A 
ATOM      4  C   UNL     1       3.509   5.971  17.686  0.00  0.00    +0.000 A 
ATOM      5  C   UNL     1       4.899   5.828  17.837  0.00  0.00    +0.000 A 
ATOM      6  C   UNL     1       5.791   6.763  17.299  0.00  0.00    +0.000 A 
ATOM      7  C   UNL     1       7.160   6.592  17.464  0.00  0.00    +0.000 A 
ATOM      8  C   UNL     1       7.592   5.485  18.167  0.00  0.00    +0.000 A 
ATOM      9  N   UNL     1       6.766   4.562  18.705  0.00  0.00    +0.000 NA
ATOM     10  C   UNL     1       5.431   4.723  18.540  0.00  0.00    +0.000 A 
ENDROOT
BRANCH   1  11
ATOM     11  N   UNL     1       5.025   2.594  19.679  0.00  0.00    +0.000 N 
ATOM     12  H   UNL     1       4.757   1.755  19.179  0.00  0.00    +0.000 HD
ATOM     13  H   UNL     1       4.777   2.578  20.671  0.00  0.00    +0.000 HD
ENDBRANCH   1  11
TORSDOF 1
ENDMDL
MODEL 6
REMARK VINA RESULT:      -5.6      4.316      5.033
REMARK  Name = 
REMARK  1 active torsions:
REMARK  status: ('A' for Active; 'I' for Inactive)
REMARK    1  A    between atoms: N_1  and  C_2
REMARK                            x       y       z     vdW  Elec       q    Type
REMARK                         _______ _______ _______ _____ _____    ______ ____
ROOT
ATOM      1  C   UNL     1       7.756   5.069  13.257  0.00  0.00    +0.000 A 
ATOM      2  C   UNL     1       7.298   4.392  12.119  0.00  0.00    +0.000 A 
ATOM      3  C   UNL     1       6.159   3.595  12.183  0.00  0.00    +0.000 A 
ATOM      4  C   UNL     1       5.453   3.497  13.378  0.00  0.00    +0.000 A 
ATOM      5  C   UNL     1       5.880   4.197  14.519  0.00  0.00    +0.000 A 
ATOM      6  C   UNL     1       5.178   4.120  15.728  0.00  0.00    +0.000 A 
ATOM      7  C   UNL     1       5.626   4.827  16.837  0.00  0.00    +0.000 A 
ATOM      8  C   UNL     1       6.768   5.590  16.699  0.00  0.00    +0.000 A 
ATOM      9  N   UNL     1       7.476   5.689  15.553  0.00  0.00    +0.000 NA
ATOM     10  C   UNL     1       7.038   5.006  14.468  0.00  0.00    +0.000 A 
ENDROOT
BRANCH   1  11
ATOM     11  N   UNL     1       8.833   5.984  13.118  0.00  0.00    +0.000 N 
ATOM     12  H   UNL     1       8.542   6.949  13.026  0.00  0.00    +0.000 HD
ATOM     13  H   UNL     1       9.446   5.664  12.365  0.00  0.00    +0.000 HD
ENDBRANCH   1  11
TORSDOF 1
ENDMDL
MODEL 7
REMARK VINA RESULT:      -5.6      2.434      3.780
REMARK  Name = 
REMARK  1 active torsions:
REMARK  status: ('A' for Active; 'I' for Inactive)
REMARK    1  A    between atoms: N_1  and  C_2
REMARK                            x       y       z     vdW  Elec       q    Type
REMARK                         _______ _______ _______ _____ _____    ______ ____
ROOT
ATOM      1  C   UNL     1       4.587   4.331  18.748  0.00  0.00    +0.000 A 
ATOM      2  C   UNL     1       4.529   5.471  17.936  0.00  0.00    +0.000 A 
ATOM      3  C   UNL     1       3.369   6.237  17.879  0.00  0.00    +0.000 A 
ATOM      4  C   UNL     1       2.271   5.885  18.658  0.00  0.00    +0.000 A 
ATOM      5  C   UNL     1       2.327   4.763  19.503  0.00  0.00    +0.000 A 
ATOM      6  C   UNL     1       1.237   4.398  20.302  0.00  0.00    +0.000 A 
ATOM      7  C   UNL     1       1.325   3.284  21.128  0.00  0.00    +0.000 A 
ATOM      8  C   UNL     1       2.505   2.569  21.126  0.00  0.00    +0.000 A 
ATOM      9  N   UNL     1       3.578   2.885  20.368  0.00  0.00    +0.000 NA
ATOM     10  C   UNL     1       3.497   3.975  19.566  0.00  0.00    +0.000 A 
ENDROOT
BRANCH   1  11
ATOM     11  N   UNL     1       5.830   3.660  18.891  0.00  0.00    +0.000 N 
ATOM     12  H   UNL     1       5.862   3.016  19.672  0.00  0.00    +0.000 HD
ATOM     13  H   UNL     1       6.583   4.351  18.896  0.00  0.00    +0.000 HD
ENDBRANCH   1  11
TORSDOF 1
ENDMDL
MODEL 8
REMARK VINA RESULT:      -5.6      2.514      4.699
REMARK  Name = 
REMARK  1 active torsions:
REMARK  status: ('A' for Active; 'I' for Inactive)
REMARK    1  A    between atoms: N_1  and  C_2
REMARK                            x       y       z     vdW  Elec       q    Type
REMARK                         _______ _______ _______ _____ _____    ______ ____
ROOT
ATOM      1  C   UNL     1       3.788   3.004  20.142  0.00  0.00    +0.000 A 
ATOM      2  C   UNL     1       2.758   2.642  21.020  0.00  0.00    +0.000 A 
ATOM      3  C   UNL     1       1.659   3.477  21.199  0.00  0.00    +0.000 A 
ATOM      4  C   UNL     1       1.568   4.663  20.478  0.00  0.00    +0.000 A 
ATOM      5  C   UNL     1       2.577   5.022  19.568  0.00  0.00    +0.000 A 
ATOM      6  C   UNL     1       2.501   6.207  18.825  0.00  0.00    +0.000 A 
ATOM      7  C   UNL     1       3.514   6.533  17.932  0.00  0.00    +0.000 A 
ATOM      8  C   UNL     1       4.576   5.659  17.813  0.00  0.00    +0.000 A 
ATOM      9  N   UNL     1       4.691   4.509  18.513  0.00  0.00    +0.000 NA
ATOM     10  C   UNL     1       3.701   4.186  19.380  0.00  0.00    +0.000 A 
ENDROOT
BRANCH   1  11
ATOM     11  N   UNL     1       4.818   2.064  19.876  0.00  0.00    +0.000 N 
ATOM     12  H   UNL     1       5.752   2.450  19.936  0.00  0.00    +0.000 HD
ATOM     13  H   UNL     1       4.622   1.597  18.988  0.00  0.00    +0.000 HD
ENDBRANCH   1  11
TORSDOF 1
ENDMDL
MODEL 9
REMARK VINA RESULT:      -5.5      0.963      3.444
REMARK  Name = 
REMARK  1 active torsions:
REMARK  status: ('A' for Active; 'I' for Inactive)
REMARK    1  A    between atoms: N_1  and  C_2
REMARK                            x       y       z     vdW  Elec       q    Type
REMARK                         _______ _______ _______ _____ _____    ______ ____
ROOT
ATOM      1  C   UNL     1       5.011   3.751  18.623  0.00  0.00    +0.000 A 
ATOM      2  C   UNL     1       4.134   3.522  17.553  0.00  0.00    +0.000 A 
ATOM      3  C   UNL     1       4.181   4.327  16.419  0.00  0.00    +0.000 A 
ATOM      4  C   UNL     1       5.126   5.345  16.334  0.00  0.00    +0.000 A 
ATOM      5  C   UNL     1       6.034   5.564  17.385  0.00  0.00    +0.000 A 
ATOM      6  C   UNL     1       6.998   6.577  17.315  0.00  0.00    +0.000 A 
ATOM      7  C   UNL     1       7.883   6.766  18.369  0.00  0.00    +0.000 A 
ATOM      8  C   UNL     1       7.771   5.933  19.464  0.00  0.00    +0.000 A 
ATOM      9  N   UNL     1       6.853   4.948  19.573  0.00  0.00    +0.000 NA
ATOM     10  C   UNL     1       5.994   4.757  18.544  0.00  0.00    +0.000 A 
ENDROOT
BRANCH   1  11
ATOM     11  N   UNL     1       5.031   2.822  19.697  0.00  0.00    +0.000 N 
ATOM     12  H   UNL     1       4.971   1.855  19.405  0.00  0.00    +0.000 HD
ATOM     13  H   UNL     1       4.321   3.091  20.382  0.00  0.00    +0.000 HD
ENDBRANCH   1  11
TORSDOF 1
ENDMDL
