MODEL 1
REMARK VINA RESULT:      -8.6      0.000      0.000
REMARK  Name = 
REMARK  7 active torsions:
REMARK  status: ('A' for Active; 'I' for Inactive)
REMARK    1  A    between atoms: C_1  and  C_2
REMARK    2  A    between atoms: C_7  and  C_9
REMARK    3  A    between atoms: C_9  and  C_10
REMARK    4  A    between atoms: C_9  and  N_17
REMARK    5  A    between atoms: C_10  and  C_11
REMARK    6  A    between atoms: C_21  and  S_22
REMARK    7  A    between atoms: S_22  and  C_25
REMARK                            x       y       z     vdW  Elec       q    Type
REMARK                         _______ _______ _______ _____ _____    ______ ____
ROOT
ATOM      1  C   UNL     1       3.452   6.053  18.434  0.00  0.00    +0.000 C 
ENDROOT
BRANCH   1   8
ATOM      2  C   UNL     1       7.468   4.003  12.356  0.00  0.00    +0.000 C 
ATOM      3  C   UNL     1       6.892   4.654  13.560  0.00  0.00    +0.000 A 
ATOM      4  N   UNL     1       7.550   5.475  14.350  0.00  0.00    +0.000 NA
ATOM      5  N   UNL     1       6.785   5.889  15.424  0.00  0.00    +0.000 NA
ATOM      6  C   UNL     1       5.587   5.361  15.403  0.00  0.00    +0.000 A 
ATOM      7  N   UNL     1       4.550   5.486  16.286  0.00  0.00    +0.000 N 
ATOM      8  C   UNL     1       4.716   5.987  17.557  0.00  0.00    +0.000 C 
ATOM      9  O   UNL     1       5.769   6.453  17.996  0.00  0.00    +0.000 OA
ATOM     10  S   UNL     1       5.270   4.357  14.056  0.00  0.00    +0.000 S 
ATOM     11  H   UNL     1       3.735   4.897  16.114  0.00  0.00    +0.000 HD
ENDBRANCH   1   8
BRANCH   1  12
ATOM     12  N   UNL     1       2.761   7.349  18.481  0.00  0.00    +0.000 N 
ATOM     13  N   UNL     1       2.820   8.171  17.403  0.00  0.00    +0.000 NA
ATOM     14  C   UNL     1       2.046   9.200  17.725  0.00  0.00    +0.000 A 
ATOM     15  C   UNL     1       1.514   9.097  19.026  0.00  0.00    +0.000 A 
ATOM     16  C   UNL     1       0.692   9.915  19.829  0.00  0.00    +0.000 A 
ATOM     17  C   UNL     1       0.366   9.493  21.120  0.00  0.00    +0.000 A 
ATOM     18  C   UNL     1       0.851   8.271  21.593  0.00  0.00    +0.000 A 
ATOM     19  C   UNL     1       1.653   7.435  20.796  0.00  0.00    +0.000 A 
ATOM     20  C   UNL     1       1.987   7.876  19.504  0.00  0.00    +0.000 A 
BRANCH  16  21
ATOM     21  S   UNL     1       0.152  11.453  19.139  0.00  0.00    +0.000 S 
ATOM     22  O   UNL     1      -0.636  12.095  20.176  0.00  0.00    +0.000 OA
ATOM     23  O   UNL     1       1.332  12.091  18.591  0.00  0.00    +0.000 OA
BRANCH  21  24
ATOM     24  C   UNL     1      -1.016  11.169  17.776  0.00  0.00    +0.000 C 
ATOM     25  C   UNL     1      -2.057  10.146  18.191  0.00  0.00    +0.000 C 
ATOM     26  C   UNL     1      -2.449  11.580  17.993  0.00  0.00    +0.000 C 
ENDBRANCH  21  24
ENDBRANCH  16  21
ENDBRANCH   1  12
BRANCH   1  27
ATOM     27  C   UNL     1       3.745   5.386  19.797  0.00  0.00    +0.000 C 
BRANCH  27  28
ATOM     28  C   UNL     1       3.137   3.999  20.114  0.00  0.00    +0.000 C 
ATOM     29  C   UNL     1       2.374   3.504  18.864  0.00  0.00    +0.000 C 
ATOM     30  C   UNL     1       1.515   2.273  19.126  0.00  0.00    +0.000 C 
ATOM     31  O   UNL     1       0.687   2.453  20.272  0.00  0.00    +0.000 OA
ATOM     32  C   UNL     1       1.461   2.670  21.446  0.00  0.00    +0.000 C 
ATOM     33  C   UNL     1       2.208   3.989  21.331  0.00  0.00    +0.000 C 
ENDBRANCH  27  28
ENDBRANCH   1  27
TORSDOF 6
ENDMDL
MODEL 2
REMARK VINA RESULT:      -8.5      0.986      1.182
REMARK  Name = 
REMARK  7 active torsions:
REMARK  status: ('A' for Active; 'I' for Inactive)
REMARK    1  A    between atoms: C_1  and  C_2
REMARK    2  A    between atoms: C_7  and  C_9
REMARK    3  A    between atoms: C_9  and  C_10
REMARK    4  A    between atoms: C_9  and  N_17
REMARK    5  A    between atoms: C_10  and  C_11
REMARK    6  A    between atoms: C_21  and  S_22
REMARK    7  A    between atoms: S_22  and  C_25
REMARK                            x       y       z     vdW  Elec       q    Type
REMARK                         _______ _______ _______ _____ _____    ______ ____
ROOT
ATOM      1  C   UNL     1       3.446   6.068  18.410  0.00  0.00    +0.000 C 
ENDROOT
BRANCH   1   8
ATOM      2  C   UNL     1       7.457   3.971  12.345  0.00  0.00    +0.000 C 
ATOM      3  C   UNL     1       6.882   4.631  13.545  0.00  0.00    +0.000 A 
ATOM      4  N   UNL     1       7.542   5.455  14.330  0.00  0.00    +0.000 NA
ATOM      5  N   UNL     1       6.778   5.878  15.401  0.00  0.00    +0.000 NA
ATOM      6  C   UNL     1       5.579   5.352  15.383  0.00  0.00    +0.000 A 
ATOM      7  N   UNL     1       4.542   5.485  16.265  0.00  0.00    +0.000 N 
ATOM      8  C   UNL     1       4.709   5.993  17.533  0.00  0.00    +0.000 C 
ATOM      9  O   UNL     1       5.763   6.461  17.969  0.00  0.00    +0.000 OA
ATOM     10  S   UNL     1       5.260   4.340  14.043  0.00  0.00    +0.000 S 
ATOM     11  H   UNL     1       3.726   4.897  16.097  0.00  0.00    +0.000 HD
ENDBRANCH   1   8
BRANCH   1  12
ATOM     12  N   UNL     1       2.765   7.370  18.460  0.00  0.00    +0.000 N 
ATOM     13  N   UNL     1       2.828   8.192  17.381  0.00  0.00    +0.000 NA
ATOM     14  C   UNL     1       2.063   9.227  17.706  0.00  0.00    +0.000 A 
ATOM     15  C   UNL     1       1.534   9.128  19.008  0.00  0.00    +0.000 A 
ATOM     16  C   UNL     1       0.721   9.951  19.815  0.00  0.00    +0.000 A 
ATOM     17  C   UNL     1       0.395   9.532  21.106  0.00  0.00    +0.000 A 
ATOM     18  C   UNL     1       0.872   8.305  21.577  0.00  0.00    +0.000 A 
ATOM     19  C   UNL     1       1.664   7.463  20.777  0.00  0.00    +0.000 A 
ATOM     20  C   UNL     1       1.998   7.903  19.485  0.00  0.00    +0.000 A 
BRANCH  16  21
ATOM     21  S   UNL     1       0.191  11.495  19.127  0.00  0.00    +0.000 S 
ATOM     22  O   UNL     1       1.406  12.208  18.778  0.00  0.00    +0.000 OA
ATOM     23  O   UNL     1      -0.804  11.174  18.123  0.00  0.00    +0.000 OA
BRANCH  21  24
ATOM     24  C   UNL     1      -0.605  12.522  20.397  0.00  0.00    +0.000 C 
ATOM     25  C   UNL     1      -1.023  13.854  19.798  0.00  0.00    +0.000 C 
ATOM     26  C   UNL     1      -2.063  12.854  20.207  0.00  0.00    +0.000 C 
ENDBRANCH  21  24
ENDBRANCH  16  21
ENDBRANCH   1  12
BRANCH   1  27
ATOM     27  C   UNL     1       3.732   5.395  19.771  0.00  0.00    +0.000 C 
BRANCH  27  28
ATOM     28  C   UNL     1       3.114   4.012  20.084  0.00  0.00    +0.000 C 
ATOM     29  C   UNL     1       2.326   3.538  18.841  0.00  0.00    +0.000 C 
ATOM     30  C   UNL     1       1.458   2.314  19.104  0.00  0.00    +0.000 C 
ATOM     31  O   UNL     1       0.650   2.490  20.264  0.00  0.00    +0.000 OA
ATOM     32  C   UNL     1       1.445   2.688  21.429  0.00  0.00    +0.000 C 
ATOM     33  C   UNL     1       2.204   4.000  21.315  0.00  0.00    +0.000 C 
ENDBRANCH  27  28
ENDBRANCH   1  27
TORSDOF 6
ENDMDL
MODEL 3
REMARK VINA RESULT:      -8.4      1.160      1.543
REMARK  Name = 
REMARK  7 active torsions:
REMARK  status: ('A' for Active; 'I' for Inactive)
REMARK    1  A    between atoms: C_1  and  C_2
REMARK    2  A    between atoms: C_7  and  C_9
REMARK    3  A    between atoms: C_9  and  C_10
REMARK    4  A    between atoms: C_9  and  N_17
REMARK    5  A    between atoms: C_10  and  C_11
REMARK    6  A    between atoms: C_21  and  S_22
REMARK    7  A    between atoms: S_22  and  C_25
REMARK                            x       y       z     vdW  Elec       q    Type
REMARK                         _______ _______ _______ _____ _____    ______ ____
ROOT
ATOM      1  C   UNL     1       3.412   6.094  18.416  0.00  0.00    +0.000 C 
ENDROOT
BRANCH   1   8
ATOM      2  C   UNL     1       7.450   3.944  12.387  0.00  0.00    +0.000 C 
ATOM      3  C   UNL     1       6.867   4.617  13.576  0.00  0.00    +0.000 A 
ATOM      4  N   UNL     1       7.516   5.464  14.346  0.00  0.00    +0.000 NA
ATOM      5  N   UNL     1       6.747   5.895  15.410  0.00  0.00    +0.000 NA
ATOM      6  C   UNL     1       5.554   5.354  15.402  0.00  0.00    +0.000 A 
ATOM      7  N   UNL     1       4.516   5.488  16.282  0.00  0.00    +0.000 N 
ATOM      8  C   UNL     1       4.677   6.021  17.540  0.00  0.00    +0.000 C 
ATOM      9  O   UNL     1       5.724   6.509  17.968  0.00  0.00    +0.000 OA
ATOM     10  S   UNL     1       5.249   4.314  14.079  0.00  0.00    +0.000 S 
ATOM     11  H   UNL     1       3.708   4.886  16.125  0.00  0.00    +0.000 HD
ENDBRANCH   1   8
BRANCH   1  12
ATOM     12  N   UNL     1       2.748   7.403  18.492  0.00  0.00    +0.000 N 
ATOM     13  N   UNL     1       2.833   8.250  17.435  0.00  0.00    +0.000 NA
ATOM     14  C   UNL     1       2.079   9.287  17.777  0.00  0.00    +0.000 A 
ATOM     15  C   UNL     1       1.535   9.164  19.071  0.00  0.00    +0.000 A 
ATOM     16  C   UNL     1       0.724   9.978  19.889  0.00  0.00    +0.000 A 
ATOM     17  C   UNL     1       0.380   9.531  21.166  0.00  0.00    +0.000 A 
ATOM     18  C   UNL     1       0.835   8.287  21.612  0.00  0.00    +0.000 A 
ATOM     19  C   UNL     1       1.625   7.454  20.799  0.00  0.00    +0.000 A 
ATOM     20  C   UNL     1       1.978   7.921  19.522  0.00  0.00    +0.000 A 
BRANCH  16  21
ATOM     21  S   UNL     1       0.222  11.545  19.234  0.00  0.00    +0.000 S 
ATOM     22  O   UNL     1      -0.591  11.243  18.071  0.00  0.00    +0.000 OA
ATOM     23  O   UNL     1      -0.315  12.299  20.349  0.00  0.00    +0.000 OA
BRANCH  21  24
ATOM     24  C   UNL     1       1.653  12.454  18.580  0.00  0.00    +0.000 C 
ATOM     25  C   UNL     1       1.379  13.947  18.618  0.00  0.00    +0.000 C 
ATOM     26  C   UNL     1       2.403  13.347  19.535  0.00  0.00    +0.000 C 
ENDBRANCH  21  24
ENDBRANCH  16  21
ENDBRANCH   1  12
BRANCH   1  27
ATOM     27  C   UNL     1       3.687   5.390  19.765  0.00  0.00    +0.000 C 
BRANCH  27  28
ATOM     28  C   UNL     1       3.047   4.011  20.050  0.00  0.00    +0.000 C 
ATOM     29  C   UNL     1       2.171   3.621  18.838  0.00  0.00    +0.000 C 
ATOM     30  C   UNL     1       1.283   2.410  19.097  0.00  0.00    +0.000 C 
ATOM     31  O   UNL     1       0.553   2.552  20.312  0.00  0.00    +0.000 OA
ATOM     32  C   UNL     1       1.422   2.670  21.433  0.00  0.00    +0.000 C 
ATOM     33  C   UNL     1       2.214   3.965  21.333  0.00  0.00    +0.000 C 
ENDBRANCH  27  28
ENDBRANCH   1  27
TORSDOF 6
ENDMDL
MODEL 4
REMARK VINA RESULT:      -8.2      4.105      7.197
REMARK  Name = 
REMARK  7 active torsions:
REMARK  status: ('A' for Active; 'I' for Inactive)
REMARK    1  A    between atoms: C_1  and  C_2
REMARK    2  A    between atoms: C_7  and  C_9
REMARK    3  A    between atoms: C_9  and  C_10
REMARK    4  A    between atoms: C_9  and  N_17
REMARK    5  A    between atoms: C_10  and  C_11
REMARK    6  A    between atoms: C_21  and  S_22
REMARK    7  A    between atoms: S_22  and  C_25
REMARK                            x       y       z     vdW  Elec       q    Type
REMARK                         _______ _______ _______ _____ _____    ______ ____
ROOT
ATOM      1  C   UNL     1       6.644   6.136  17.025  0.00  0.00    +0.000 C 
ENDROOT
BRANCH   1   8
ATOM      2  C   UNL     1       9.993  12.757  18.513  0.00  0.00    +0.000 C 
ATOM      3  C   UNL     1       9.389  11.401  18.538  0.00  0.00    +0.000 A 
ATOM      4  N   UNL     1       9.664  10.480  19.437  0.00  0.00    +0.000 NA
ATOM      5  N   UNL     1       8.999   9.294  19.188  0.00  0.00    +0.000 NA
ATOM      6  C   UNL     1       8.256   9.368  18.111  0.00  0.00    +0.000 A 
ATOM      7  N   UNL     1       7.477   8.420  17.509  0.00  0.00    +0.000 N 
ATOM      8  C   UNL     1       7.586   7.079  17.797  0.00  0.00    +0.000 C 
ATOM      9  O   UNL     1       8.311   6.606  18.674  0.00  0.00    +0.000 OA
ATOM     10  S   UNL     1       8.264  10.893  17.338  0.00  0.00    +0.000 S 
ATOM     11  H   UNL     1       7.061   8.676  16.613  0.00  0.00    +0.000 HD
ENDBRANCH   1   8
BRANCH   1  12
ATOM     12  N   UNL     1       5.732   5.319  17.839  0.00  0.00    +0.000 N 
ATOM     13  N   UNL     1       6.074   4.039  18.133  0.00  0.00    +0.000 NA
ATOM     14  C   UNL     1       5.103   3.609  18.930  0.00  0.00    +0.000 A 
ATOM     15  C   UNL     1       4.092   4.570  19.126  0.00  0.00    +0.000 A 
ATOM     16  C   UNL     1       2.870   4.596  19.830  0.00  0.00    +0.000 A 
ATOM     17  C   UNL     1       2.085   5.751  19.791  0.00  0.00    +0.000 A 
ATOM     18  C   UNL     1       2.523   6.862  19.064  0.00  0.00    +0.000 A 
ATOM     19  C   UNL     1       3.749   6.859  18.376  0.00  0.00    +0.000 A 
ATOM     20  C   UNL     1       4.523   5.686  18.410  0.00  0.00    +0.000 A 
BRANCH  16  21
ATOM     21  S   UNL     1       2.401   3.127  20.699  0.00  0.00    +0.000 S 
ATOM     22  O   UNL     1       3.627   2.596  21.266  0.00  0.00    +0.000 OA
ATOM     23  O   UNL     1       1.281   3.492  21.544  0.00  0.00    +0.000 OA
BRANCH  21  24
ATOM     24  C   UNL     1       1.833   1.849  19.538  0.00  0.00    +0.000 C 
ATOM     25  C   UNL     1       0.638   2.358  18.753  0.00  0.00    +0.000 C 
ATOM     26  C   UNL     1       1.954   2.147  18.066  0.00  0.00    +0.000 C 
ENDBRANCH  21  24
ENDBRANCH  16  21
ENDBRANCH   1  12
BRANCH   1  27
ATOM     27  C   UNL     1       7.452   5.384  15.944  0.00  0.00    +0.000 C 
BRANCH  27  28
ATOM     28  C   UNL     1       6.869   5.240  14.518  0.00  0.00    +0.000 C 
ATOM     29  C   UNL     1       6.073   3.916  14.449  0.00  0.00    +0.000 C 
ATOM     30  C   UNL     1       5.666   3.528  13.033  0.00  0.00    +0.000 C 
ATOM     31  O   UNL     1       6.775   3.579  12.141  0.00  0.00    +0.000 OA
ATOM     32  C   UNL     1       7.324   4.890  12.064  0.00  0.00    +0.000 C 
ATOM     33  C   UNL     1       7.923   5.274  13.408  0.00  0.00    +0.000 C 
ENDBRANCH  27  28
ENDBRANCH   1  27
TORSDOF 6
ENDMDL
MODEL 5
REMARK VINA RESULT:      -8.2      3.224      8.512
REMARK  Name = 
REMARK  7 active torsions:
REMARK  status: ('A' for Active; 'I' for Inactive)
REMARK    1  A    between atoms: C_1  and  C_2
REMARK    2  A    between atoms: C_7  and  C_9
REMARK    3  A    between atoms: C_9  and  C_10
REMARK    4  A    between atoms: C_9  and  N_17
REMARK    5  A    between atoms: C_10  and  C_11
REMARK    6  A    between atoms: C_21  and  S_22
REMARK    7  A    between atoms: S_22  and  C_25
REMARK                            x       y       z     vdW  Elec       q    Type
REMARK                         _______ _______ _______ _____ _____    ______ ____
ROOT
ATOM      1  C   UNL     1       0.677   9.549  19.197  0.00  0.00    +0.000 C 
ENDROOT
BRANCH   1   8
ATOM      2  C   UNL     1       3.668  16.325  20.748  0.00  0.00    +0.000 C 
ATOM      3  C   UNL     1       2.927  15.038  20.728  0.00  0.00    +0.000 A 
ATOM      4  N   UNL     1       2.449  14.437  21.797  0.00  0.00    +0.000 NA
ATOM      5  N   UNL     1       1.852  13.229  21.492  0.00  0.00    +0.000 NA
ATOM      6  C   UNL     1       1.908  12.966  20.210  0.00  0.00    +0.000 A 
ATOM      7  N   UNL     1       1.471  11.875  19.511  0.00  0.00    +0.000 N 
ATOM      8  C   UNL     1       1.142  10.687  20.123  0.00  0.00    +0.000 C 
ATOM      9  O   UNL     1       1.115  10.509  21.343  0.00  0.00    +0.000 OA
ATOM     10  S   UNL     1       2.647  14.182  19.262  0.00  0.00    +0.000 S 
ATOM     11  H   UNL     1       1.714  11.844  18.521  0.00  0.00    +0.000 HD
ENDBRANCH   1   8
BRANCH   1  12
ATOM     12  N   UNL     1       1.686   8.535  18.855  0.00  0.00    +0.000 N 
ATOM     13  N   UNL     1       2.519   8.757  17.807  0.00  0.00    +0.000 NA
ATOM     14  C   UNL     1       3.344   7.717  17.811  0.00  0.00    +0.000 A 
ATOM     15  C   UNL     1       3.036   6.780  18.816  0.00  0.00    +0.000 A 
ATOM     16  C   UNL     1       3.566   5.532  19.206  0.00  0.00    +0.000 A 
ATOM     17  C   UNL     1       2.982   4.848  20.274  0.00  0.00    +0.000 A 
ATOM     18  C   UNL     1       1.891   5.409  20.943  0.00  0.00    +0.000 A 
ATOM     19  C   UNL     1       1.366   6.662  20.581  0.00  0.00    +0.000 A 
ATOM     20  C   UNL     1       1.952   7.334  19.495  0.00  0.00    +0.000 A 
BRANCH  16  21
ATOM     21  S   UNL     1       4.935   4.903  18.275  0.00  0.00    +0.000 S 
ATOM     22  O   UNL     1       5.419   3.753  19.016  0.00  0.00    +0.000 OA
ATOM     23  O   UNL     1       4.473   4.774  16.907  0.00  0.00    +0.000 OA
BRANCH  21  24
ATOM     24  C   UNL     1       6.316   6.084  18.290  0.00  0.00    +0.000 C 
ATOM     25  C   UNL     1       7.634   5.340  18.170  0.00  0.00    +0.000 C 
ATOM     26  C   UNL     1       7.147   6.195  17.038  0.00  0.00    +0.000 C 
ENDBRANCH  21  24
ENDBRANCH  16  21
ENDBRANCH   1  12
BRANCH   1  27
ATOM     27  C   UNL     1      -0.115  10.149  18.013  0.00  0.00    +0.000 C 
BRANCH  27  28
ATOM     28  C   UNL     1      -1.657  10.241  18.095  0.00  0.00    +0.000 C 
ATOM     29  C   UNL     1      -2.232  10.074  16.670  0.00  0.00    +0.000 C 
ATOM     30  C   UNL     1      -3.717  10.401  16.573  0.00  0.00    +0.000 C 
ATOM     31  O   UNL     1      -4.010  11.662  17.167  0.00  0.00    +0.000 OA
ATOM     32  C   UNL     1      -3.676  11.678  18.551  0.00  0.00    +0.000 C 
ATOM     33  C   UNL     1      -2.171  11.543  18.716  0.00  0.00    +0.000 C 
ENDBRANCH  27  28
ENDBRANCH   1  27
TORSDOF 6
ENDMDL
MODEL 6
REMARK VINA RESULT:      -8.1      0.829      1.054
REMARK  Name = 
REMARK  7 active torsions:
REMARK  status: ('A' for Active; 'I' for Inactive)
REMARK    1  A    between atoms: C_1  and  C_2
REMARK    2  A    between atoms: C_7  and  C_9
REMARK    3  A    between atoms: C_9  and  C_10
REMARK    4  A    between atoms: C_9  and  N_17
REMARK    5  A    between atoms: C_10  and  C_11
REMARK    6  A    between atoms: C_21  and  S_22
REMARK    7  A    between atoms: S_22  and  C_25
REMARK                            x       y       z     vdW  Elec       q    Type
REMARK                         _______ _______ _______ _____ _____    ______ ____
ROOT
ATOM      1  C   UNL     1       3.210   6.267  18.493  0.00  0.00    +0.000 C 
ENDROOT
BRANCH   1   8
ATOM      2  C   UNL     1       7.509   4.040  12.677  0.00  0.00    +0.000 C 
ATOM      3  C   UNL     1       6.885   4.719  13.841  0.00  0.00    +0.000 A 
ATOM      4  N   UNL     1       7.522   5.523  14.665  0.00  0.00    +0.000 NA
ATOM      5  N   UNL     1       6.709   5.971  15.689  0.00  0.00    +0.000 NA
ATOM      6  C   UNL     1       5.496   5.483  15.599  0.00  0.00    +0.000 A 
ATOM      7  N   UNL     1       4.414   5.648  16.417  0.00  0.00    +0.000 N 
ATOM      8  C   UNL     1       4.521   6.153  17.693  0.00  0.00    +0.000 C 
ATOM      9  O   UNL     1       5.561   6.587  18.192  0.00  0.00    +0.000 OA
ATOM     10  S   UNL     1       5.227   4.479  14.241  0.00  0.00    +0.000 S 
ATOM     11  H   UNL     1       3.591   5.086  16.200  0.00  0.00    +0.000 HD
ENDBRANCH   1   8
BRANCH   1  12
ATOM     12  N   UNL     1       2.596   7.603  18.548  0.00  0.00    +0.000 N 
ATOM     13  N   UNL     1       2.732   8.437  17.486  0.00  0.00    +0.000 NA
ATOM     14  C   UNL     1       2.013   9.506  17.809  0.00  0.00    +0.000 A 
ATOM     15  C   UNL     1       1.444   9.413  19.094  0.00  0.00    +0.000 A 
ATOM     16  C   UNL     1       0.652  10.265  19.893  0.00  0.00    +0.000 A 
ATOM     17  C   UNL     1       0.270   9.843  21.168  0.00  0.00    +0.000 A 
ATOM     18  C   UNL     1       0.669   8.585  21.630  0.00  0.00    +0.000 A 
ATOM     19  C   UNL     1       1.438   7.715  20.836  0.00  0.00    +0.000 A 
ATOM     20  C   UNL     1       1.830   8.158  19.561  0.00  0.00    +0.000 A 
BRANCH  16  21
ATOM     21  S   UNL     1       0.223  11.845  19.219  0.00  0.00    +0.000 S 
ATOM     22  O   UNL     1      -0.312  12.614  20.328  0.00  0.00    +0.000 OA
ATOM     23  O   UNL     1       1.384  12.303  18.481  0.00  0.00    +0.000 OA
BRANCH  21  24
ATOM     24  C   UNL     1      -1.159  11.689  18.050  0.00  0.00    +0.000 C 
ATOM     25  C   UNL     1      -1.650  10.253  18.017  0.00  0.00    +0.000 C 
ATOM     26  C   UNL     1      -2.508  11.328  18.615  0.00  0.00    +0.000 C 
ENDBRANCH  21  24
ENDBRANCH  16  21
ENDBRANCH   1  12
BRANCH   1  27
ATOM     27  C   UNL     1       3.374   5.536  19.845  0.00  0.00    +0.000 C 
BRANCH  27  28
ATOM     28  C   UNL     1       3.012   4.036  19.949  0.00  0.00    +0.000 C 
ATOM     29  C   UNL     1       4.279   3.207  19.638  0.00  0.00    +0.000 C 
ATOM     30  C   UNL     1       4.001   1.720  19.453  0.00  0.00    +0.000 C 
ATOM     31  O   UNL     1       2.932   1.502  18.537  0.00  0.00    +0.000 OA
ATOM     32  C   UNL     1       1.721   2.092  18.997  0.00  0.00    +0.000 C 
ATOM     33  C   UNL     1       1.868   3.605  19.028  0.00  0.00    +0.000 C 
ENDBRANCH  27  28
ENDBRANCH   1  27
TORSDOF 6
ENDMDL
MODEL 7
REMARK VINA RESULT:      -8.0      3.062      8.486
REMARK  Name = 
REMARK  7 active torsions:
REMARK  status: ('A' for Active; 'I' for Inactive)
REMARK    1  A    between atoms: C_1  and  C_2
REMARK    2  A    between atoms: C_7  and  C_9
REMARK    3  A    between atoms: C_9  and  C_10
REMARK    4  A    between atoms: C_9  and  N_17
REMARK    5  A    between atoms: C_10  and  C_11
REMARK    6  A    between atoms: C_21  and  S_22
REMARK    7  A    between atoms: S_22  and  C_25
REMARK                            x       y       z     vdW  Elec       q    Type
REMARK                         _______ _______ _______ _____ _____    ______ ____
ROOT
ATOM      1  C   UNL     1       0.598   9.421  19.015  0.00  0.00    +0.000 C 
ENDROOT
BRANCH   1   8
ATOM      2  C   UNL     1       3.605  16.045  21.104  0.00  0.00    +0.000 C 
ATOM      3  C   UNL     1       2.806  14.803  20.939  0.00  0.00    +0.000 A 
ATOM      4  N   UNL     1       2.074  14.257  21.886  0.00  0.00    +0.000 NA
ATOM      5  N   UNL     1       1.482  13.079  21.472  0.00  0.00    +0.000 NA
ATOM      6  C   UNL     1       1.795  12.783  20.235  0.00  0.00    +0.000 A 
ATOM      7  N   UNL     1       1.451  11.704  19.470  0.00  0.00    +0.000 N 
ATOM      8  C   UNL     1       0.925  10.552  20.009  0.00  0.00    +0.000 C 
ATOM      9  O   UNL     1       0.626  10.404  21.195  0.00  0.00    +0.000 OA
ATOM     10  S   UNL     1       2.794  13.931  19.455  0.00  0.00    +0.000 S 
ATOM     11  H   UNL     1       1.897  11.635  18.555  0.00  0.00    +0.000 HD
ENDBRANCH   1   8
BRANCH   1  12
ATOM     12  N   UNL     1       1.706   8.518  18.671  0.00  0.00    +0.000 N 
ATOM     13  N   UNL     1       2.519   8.833  17.631  0.00  0.00    +0.000 NA
ATOM     14  C   UNL     1       3.445   7.881  17.632  0.00  0.00    +0.000 A 
ATOM     15  C   UNL     1       3.227   6.908  18.627  0.00  0.00    +0.000 A 
ATOM     16  C   UNL     1       3.877   5.716  19.009  0.00  0.00    +0.000 A 
ATOM     17  C   UNL     1       3.359   4.966  20.066  0.00  0.00    +0.000 A 
ATOM     18  C   UNL     1       2.212   5.407  20.732  0.00  0.00    +0.000 A 
ATOM     19  C   UNL     1       1.566   6.605  20.378  0.00  0.00    +0.000 A 
ATOM     20  C   UNL     1       2.088   7.344  19.302  0.00  0.00    +0.000 A 
BRANCH  16  21
ATOM     21  S   UNL     1       5.308   5.238  18.082  0.00  0.00    +0.000 S 
ATOM     22  O   UNL     1       6.140   6.425  18.001  0.00  0.00    +0.000 OA
ATOM     23  O   UNL     1       5.800   4.018  18.692  0.00  0.00    +0.000 OA
BRANCH  21  24
ATOM     24  C   UNL     1       4.862   4.863  16.361  0.00  0.00    +0.000 C 
ATOM     25  C   UNL     1       6.021   5.201  15.440  0.00  0.00    +0.000 C 
ATOM     26  C   UNL     1       5.632   3.770  15.667  0.00  0.00    +0.000 C 
ENDBRANCH  21  24
ENDBRANCH  16  21
ENDBRANCH   1  12
BRANCH   1  27
ATOM     27  C   UNL     1      -0.200  10.004  17.827  0.00  0.00    +0.000 C 
BRANCH  27  28
ATOM     28  C   UNL     1      -1.735  10.155  17.941  0.00  0.00    +0.000 C 
ATOM     29  C   UNL     1      -2.339  10.076  16.519  0.00  0.00    +0.000 C 
ATOM     30  C   UNL     1      -3.811  10.467  16.463  0.00  0.00    +0.000 C 
ATOM     31  O   UNL     1      -4.042  11.711  17.118  0.00  0.00    +0.000 OA
ATOM     32  C   UNL     1      -3.686  11.651  18.494  0.00  0.00    +0.000 C 
ATOM     33  C   UNL     1      -2.185  11.447  18.627  0.00  0.00    +0.000 C 
ENDBRANCH  27  28
ENDBRANCH   1  27
TORSDOF 6
ENDMDL
MODEL 8
REMARK VINA RESULT:      -7.8      1.806      2.302
REMARK  Name = 
REMARK  7 active torsions:
REMARK  status: ('A' for Active; 'I' for Inactive)
REMARK    1  A    between atoms: C_1  and  C_2
REMARK    2  A    between atoms: C_7  and  C_9
REMARK    3  A    between atoms: C_9  and  C_10
REMARK    4  A    between atoms: C_9  and  N_17
REMARK    5  A    between atoms: C_10  and  C_11
REMARK    6  A    between atoms: C_21  and  S_22
REMARK    7  A    between atoms: S_22  and  C_25
REMARK                            x       y       z     vdW  Elec       q    Type
REMARK                         _______ _______ _______ _____ _____    ______ ____
ROOT
ATOM      1  C   UNL     1       2.278   6.648  19.118  0.00  0.00    +0.000 C 
ENDROOT
BRANCH   1   8
ATOM      2  C   UNL     1       7.654   4.779  14.130  0.00  0.00    +0.000 C 
ATOM      3  C   UNL     1       6.853   5.217  15.302  0.00  0.00    +0.000 A 
ATOM      4  N   UNL     1       7.294   5.237  16.541  0.00  0.00    +0.000 NA
ATOM      5  N   UNL     1       6.320   5.637  17.435  0.00  0.00    +0.000 NA
ATOM      6  C   UNL     1       5.185   5.898  16.836  0.00  0.00    +0.000 A 
ATOM      7  N   UNL     1       3.981   6.286  17.354  0.00  0.00    +0.000 N 
ATOM      8  C   UNL     1       3.681   6.178  18.693  0.00  0.00    +0.000 C 
ATOM      9  O   UNL     1       4.476   5.818  19.563  0.00  0.00    +0.000 OA
ATOM     10  S   UNL     1       5.217   5.725  15.135  0.00  0.00    +0.000 S 
ATOM     11  H   UNL     1       3.200   6.336  16.699  0.00  0.00    +0.000 HD
ENDBRANCH   1   8
BRANCH   1  12
ATOM     12  N   UNL     1       1.995   8.082  18.956  0.00  0.00    +0.000 N 
ATOM     13  N   UNL     1       2.326   8.694  17.791  0.00  0.00    +0.000 NA
ATOM     14  C   UNL     1       1.878   9.936  17.929  0.00  0.00    +0.000 A 
ATOM     15  C   UNL     1       1.300  10.171  19.192  0.00  0.00    +0.000 A 
ATOM     16  C   UNL     1       0.729  11.293  19.829  0.00  0.00    +0.000 A 
ATOM     17  C   UNL     1       0.255  11.166  21.136  0.00  0.00    +0.000 A 
ATOM     18  C   UNL     1       0.346   9.933  21.790  0.00  0.00    +0.000 A 
ATOM     19  C   UNL     1       0.891   8.800  21.159  0.00  0.00    +0.000 A 
ATOM     20  C   UNL     1       1.379   8.945  19.849  0.00  0.00    +0.000 A 
BRANCH  16  21
ATOM     21  S   UNL     1       0.686  12.811  18.919  0.00  0.00    +0.000 S 
ATOM     22  O   UNL     1       2.023  12.987  18.383  0.00  0.00    +0.000 OA
ATOM     23  O   UNL     1      -0.468  12.729  18.044  0.00  0.00    +0.000 OA
BRANCH  21  24
ATOM     24  C   UNL     1       0.442  14.222  20.037  0.00  0.00    +0.000 C 
ATOM     25  C   UNL     1       0.402  15.513  19.240  0.00  0.00    +0.000 C 
ATOM     26  C   UNL     1      -0.842  15.000  19.903  0.00  0.00    +0.000 C 
ENDBRANCH  21  24
ENDBRANCH  16  21
ENDBRANCH   1  12
BRANCH   1  27
ATOM     27  C   UNL     1       1.932   6.036  20.494  0.00  0.00    +0.000 C 
BRANCH  27  28
ATOM     28  C   UNL     1       1.318   4.618  20.565  0.00  0.00    +0.000 C 
ATOM     29  C   UNL     1       2.181   3.760  21.519  0.00  0.00    +0.000 C 
ATOM     30  C   UNL     1       1.837   2.276  21.478  0.00  0.00    +0.000 C 
ATOM     31  O   UNL     1       1.801   1.788  20.140  0.00  0.00    +0.000 OA
ATOM     32  C   UNL     1       0.813   2.460  19.366  0.00  0.00    +0.000 C 
ATOM     33  C   UNL     1       1.194   3.923  19.207  0.00  0.00    +0.000 C 
ENDBRANCH  27  28
ENDBRANCH   1  27
TORSDOF 6
ENDMDL
MODEL 9
REMARK VINA RESULT:      -7.8      3.167      8.258
REMARK  Name = 
REMARK  7 active torsions:
REMARK  status: ('A' for Active; 'I' for Inactive)
REMARK    1  A    between atoms: C_1  and  C_2
REMARK    2  A    between atoms: C_7  and  C_9
REMARK    3  A    between atoms: C_9  and  C_10
REMARK    4  A    between atoms: C_9  and  N_17
REMARK    5  A    between atoms: C_10  and  C_11
REMARK    6  A    between atoms: C_21  and  S_22
REMARK    7  A    between atoms: S_22  and  C_25
REMARK                            x       y       z     vdW  Elec       q    Type
REMARK                         _______ _______ _______ _____ _____    ______ ____
ROOT
ATOM      1  C   UNL     1       0.694   9.675  19.128  0.00  0.00    +0.000 C 
ENDROOT
BRANCH   1   8
ATOM      2  C   UNL     1       4.323  16.303  19.540  0.00  0.00    +0.000 C 
ATOM      3  C   UNL     1       3.453  15.113  19.724  0.00  0.00    +0.000 A 
ATOM      4  N   UNL     1       2.885  14.774  20.860  0.00  0.00    +0.000 NA
ATOM      5  N   UNL     1       2.175  13.593  20.756  0.00  0.00    +0.000 NA
ATOM      6  C   UNL     1       2.242  13.088  19.549  0.00  0.00    +0.000 A 
ATOM      7  N   UNL     1       1.715  11.931  19.045  0.00  0.00    +0.000 N 
ATOM      8  C   UNL     1       1.247  10.918  19.849  0.00  0.00    +0.000 C 
ATOM      9  O   UNL     1       1.165  10.977  21.078  0.00  0.00    +0.000 OA
ATOM     10  S   UNL     1       3.130  14.025  18.429  0.00  0.00    +0.000 S 
ATOM     11  H   UNL     1       1.982  11.690  18.090  0.00  0.00    +0.000 HD
ENDBRANCH   1   8
BRANCH   1  12
ATOM     12  N   UNL     1       1.671   8.628  18.795  0.00  0.00    +0.000 N 
ATOM     13  N   UNL     1       2.463   8.784  17.704  0.00  0.00    +0.000 NA
ATOM     14  C   UNL     1       3.270   7.731  17.725  0.00  0.00    +0.000 A 
ATOM     15  C   UNL     1       2.990   6.849  18.787  0.00  0.00    +0.000 A 
ATOM     16  C   UNL     1       3.516   5.611  19.215  0.00  0.00    +0.000 A 
ATOM     17  C   UNL     1       2.966   4.990  20.338  0.00  0.00    +0.000 A 
ATOM     18  C   UNL     1       1.913   5.602  21.023  0.00  0.00    +0.000 A 
ATOM     19  C   UNL     1       1.394   6.846  20.623  0.00  0.00    +0.000 A 
ATOM     20  C   UNL     1       1.944   7.454  19.482  0.00  0.00    +0.000 A 
BRANCH  16  21
ATOM     21  S   UNL     1       4.834   4.914  18.260  0.00  0.00    +0.000 S 
ATOM     22  O   UNL     1       5.372   6.009  17.474  0.00  0.00    +0.000 OA
ATOM     23  O   UNL     1       5.668   4.180  19.191  0.00  0.00    +0.000 OA
BRANCH  21  24
ATOM     24  C   UNL     1       4.187   3.735  17.038  0.00  0.00    +0.000 C 
ATOM     25  C   UNL     1       3.665   2.495  17.742  0.00  0.00    +0.000 C 
ATOM     26  C   UNL     1       2.709   3.440  17.075  0.00  0.00    +0.000 C 
ENDBRANCH  21  24
ENDBRANCH  16  21
ENDBRANCH   1  12
BRANCH   1  27
ATOM     27  C   UNL     1      -0.240  10.125  17.982  0.00  0.00    +0.000 C 
BRANCH  27  28
ATOM     28  C   UNL     1      -1.752  10.301  18.255  0.00  0.00    +0.000 C 
ATOM     29  C   UNL     1      -2.517  10.064  16.932  0.00  0.00    +0.000 C 
ATOM     30  C   UNL     1      -3.987  10.459  17.002  0.00  0.00    +0.000 C 
ATOM     31  O   UNL     1      -4.147  11.771  17.532  0.00  0.00    +0.000 OA
ATOM     32  C   UNL     1      -3.634  11.866  18.856  0.00  0.00    +0.000 C 
ATOM     33  C   UNL     1      -2.127  11.667  18.836  0.00  0.00    +0.000 C 
ENDBRANCH  27  28
ENDBRANCH   1  27
TORSDOF 6
ENDMDL
