MODEL 1
REMARK VINA RESULT:      -7.9      0.000      0.000
REMARK  Name = 
REMARK  7 active torsions:
REMARK  status: ('A' for Active; 'I' for Inactive)
REMARK    1  A    between atoms: C_1  and  C_2
REMARK    2  A    between atoms: C_2  and  N_3
REMARK    3  A    between atoms: C_2  and  C_4
REMARK    4  A    between atoms: N_7  and  C_8
REMARK    5  A    between atoms: C_17  and  C_18
REMARK    6  A    between atoms: C_18  and  O_20
REMARK    7  A    between atoms: N_22  and  C_23
REMARK                            x       y       z     vdW  Elec       q    Type
REMARK                         _______ _______ _______ _____ _____    ______ ____
ROOT
ATOM      1  C   UNL     1       1.450   8.781  19.404  0.00  0.00    +0.000 A 
ATOM      2  C   UNL     1       1.738   7.465  19.832  0.00  0.00    +0.000 A 
ATOM      3  C   UNL     1       2.681   6.641  19.189  0.00  0.00    +0.000 A 
ATOM      4  C   UNL     1       3.338   7.155  18.060  0.00  0.00    +0.000 A 
ATOM      5  C   UNL     1       3.033   8.417  17.560  0.00  0.00    +0.000 A 
ATOM      6  C   UNL     1       2.100   9.205  18.227  0.00  0.00    +0.000 A 
ATOM      7  F   UNL     1       1.836  10.409  17.696  0.00  0.00    +0.000 F 
ATOM      8  C   UNL     1       4.401   6.362  17.409  0.00  0.00    +0.000 A 
ATOM      9  O   UNL     1       4.967   6.762  16.390  0.00  0.00    +0.000 OA
ATOM     10  C   UNL     1       4.812   5.092  18.032  0.00  0.00    +0.000 A 
ATOM     11  C   UNL     1       4.101   4.677  19.091  0.00  0.00    +0.000 A 
ATOM     12  N   UNL     1       3.010   5.329  19.647  0.00  0.00    +0.000 N 
ENDROOT
BRANCH   1  16
ATOM     13  C   UNL     1      -0.161  11.613  21.190  0.00  0.00    +0.000 C 
ATOM     14  C   UNL     1      -0.828  11.468  19.817  0.00  0.00    +0.000 C 
ATOM     15  C   UNL     1      -0.718   9.977  19.517  0.00  0.00    +0.000 C 
ATOM     16  N   UNL     1       0.573   9.601  20.102  0.00  0.00    +0.000 N 
ATOM     17  C   UNL     1       1.004  10.609  21.080  0.00  0.00    +0.000 C 
BRANCH  13  19
ATOM     18  C   UNL     1      -0.804  10.148  23.208  0.00  0.00    +0.000 C 
ATOM     19  C   UNL     1      -1.152  11.363  22.346  0.00  0.00    +0.000 C 
BRANCH  19  20
ATOM     20  N   UNL     1      -1.153  12.548  23.218  0.00  0.00    +0.000 NA
ATOM     21  H   UNL     1      -1.991  13.103  23.050  0.00  0.00    +0.000 HD
ATOM     22  H   UNL     1      -0.362  13.150  22.992  0.00  0.00    +0.000 HD
ENDBRANCH  19  20
ENDBRANCH  13  19
ENDBRANCH   1  16
BRANCH  12  23
ATOM     23  C   UNL     1       2.404   4.746  20.864  0.00  0.00    +0.000 C 
ATOM     24  C   UNL     1       1.167   3.879  20.833  0.00  0.00    +0.000 C 
ATOM     25  C   UNL     1       2.493   3.263  21.142  0.00  0.00    +0.000 C 
ENDBRANCH  12  23
BRANCH  10  26
ATOM     26  C   UNL     1       5.956   4.290  17.549  0.00  0.00    +0.000 C 
ATOM     27  O   UNL     1       7.045   4.272  18.110  0.00  0.00    +0.000 OA
BRANCH  26  28
ATOM     28  O   UNL     1       5.718   3.592  16.420  0.00  0.00    +0.000 OA
ATOM     29  H   UNL     1       5.854   2.616  16.508  0.00  0.00    +0.000 HD
ENDBRANCH  26  28
ENDBRANCH  10  26
TORSDOF 6
ENDMDL
MODEL 2
REMARK VINA RESULT:      -7.7      1.194      1.547
REMARK  Name = 
REMARK  7 active torsions:
REMARK  status: ('A' for Active; 'I' for Inactive)
REMARK    1  A    between atoms: C_1  and  C_2
REMARK    2  A    between atoms: C_2  and  N_3
REMARK    3  A    between atoms: C_2  and  C_4
REMARK    4  A    between atoms: N_7  and  C_8
REMARK    5  A    between atoms: C_17  and  C_18
REMARK    6  A    between atoms: C_18  and  O_20
REMARK    7  A    between atoms: N_22  and  C_23
REMARK                            x       y       z     vdW  Elec       q    Type
REMARK                         _______ _______ _______ _____ _____    ______ ____
ROOT
ATOM      1  C   UNL     1       2.071   8.209  19.267  0.00  0.00    +0.000 A 
ATOM      2  C   UNL     1       2.461   6.871  19.503  0.00  0.00    +0.000 A 
ATOM      3  C   UNL     1       3.330   6.166  18.649  0.00  0.00    +0.000 A 
ATOM      4  C   UNL     1       3.803   6.827  17.504  0.00  0.00    +0.000 A 
ATOM      5  C   UNL     1       3.388   8.118  17.193  0.00  0.00    +0.000 A 
ATOM      6  C   UNL     1       2.533   8.785  18.065  0.00  0.00    +0.000 A 
ATOM      7  F   UNL     1       2.156  10.024  17.712  0.00  0.00    +0.000 F 
ATOM      8  C   UNL     1       4.788   6.159  16.629  0.00  0.00    +0.000 A 
ATOM      9  O   UNL     1       5.190   6.691  15.592  0.00  0.00    +0.000 OA
ATOM     10  C   UNL     1       5.326   4.853  17.045  0.00  0.00    +0.000 A 
ATOM     11  C   UNL     1       4.787   4.295  18.140  0.00  0.00    +0.000 A 
ATOM     12  N   UNL     1       3.766   4.831  18.910  0.00  0.00    +0.000 N 
ENDROOT
BRANCH   1  16
ATOM     13  C   UNL     1      -0.751   9.877  21.015  0.00  0.00    +0.000 C 
ATOM     14  C   UNL     1      -0.412   8.586  21.771  0.00  0.00    +0.000 C 
ATOM     15  C   UNL     1       1.082   8.409  21.531  0.00  0.00    +0.000 C 
ATOM     16  N   UNL     1       1.276   8.908  20.166  0.00  0.00    +0.000 N 
ATOM     17  C   UNL     1       0.142   9.753  19.765  0.00  0.00    +0.000 C 
BRANCH  13  19
ATOM     18  C   UNL     1      -1.352  12.343  21.450  0.00  0.00    +0.000 C 
ATOM     19  C   UNL     1      -0.519  11.134  21.880  0.00  0.00    +0.000 C 
BRANCH  19  20
ATOM     20  N   UNL     1      -0.877  10.811  23.270  0.00  0.00    +0.000 NA
ATOM     21  H   UNL     1      -1.355  11.602  23.699  0.00  0.00    +0.000 HD
ATOM     22  H   UNL     1      -0.034  10.654  23.821  0.00  0.00    +0.000 HD
ENDBRANCH  19  20
ENDBRANCH  13  19
ENDBRANCH   1  16
BRANCH  12  23
ATOM     23  C   UNL     1       3.359   4.095  20.126  0.00  0.00    +0.000 C 
ATOM     24  C   UNL     1       1.934   3.670  20.393  0.00  0.00    +0.000 C 
ATOM     25  C   UNL     1       2.961   2.639  20.057  0.00  0.00    +0.000 C 
ENDBRANCH  12  23
BRANCH  10  26
ATOM     26  C   UNL     1       6.417   4.163  16.323  0.00  0.00    +0.000 C 
ATOM     27  O   UNL     1       7.585   4.529  16.367  0.00  0.00    +0.000 OA
BRANCH  26  28
ATOM     28  O   UNL     1       6.023   3.103  15.587  0.00  0.00    +0.000 OA
ATOM     29  H   UNL     1       6.748   2.674  15.071  0.00  0.00    +0.000 HD
ENDBRANCH  26  28
ENDBRANCH  10  26
TORSDOF 6
ENDMDL
MODEL 3
REMARK VINA RESULT:      -7.3      0.756      1.483
REMARK  Name = 
REMARK  7 active torsions:
REMARK  status: ('A' for Active; 'I' for Inactive)
REMARK    1  A    between atoms: C_1  and  C_2
REMARK    2  A    between atoms: C_2  and  N_3
REMARK    3  A    between atoms: C_2  and  C_4
REMARK    4  A    between atoms: N_7  and  C_8
REMARK    5  A    between atoms: C_17  and  C_18
REMARK    6  A    between atoms: C_18  and  O_20
REMARK    7  A    between atoms: N_22  and  C_23
REMARK                            x       y       z     vdW  Elec       q    Type
REMARK                         _______ _______ _______ _____ _____    ______ ____
ROOT
ATOM      1  C   UNL     1       1.625   8.642  19.910  0.00  0.00    +0.000 A 
ATOM      2  C   UNL     1       1.902   7.283  20.184  0.00  0.00    +0.000 A 
ATOM      3  C   UNL     1       2.685   6.476  19.337  0.00  0.00    +0.000 A 
ATOM      4  C   UNL     1       3.185   7.054  18.160  0.00  0.00    +0.000 A 
ATOM      5  C   UNL     1       2.877   8.366  17.813  0.00  0.00    +0.000 A 
ATOM      6  C   UNL     1       2.106   9.135  18.679  0.00  0.00    +0.000 A 
ATOM      7  F   UNL     1       1.830  10.390  18.291  0.00  0.00    +0.000 F 
ATOM      8  C   UNL     1       4.086   6.274  17.287  0.00  0.00    +0.000 A 
ATOM      9  O   UNL     1       4.507   6.734  16.224  0.00  0.00    +0.000 OA
ATOM     10  C   UNL     1       4.517   4.939  17.736  0.00  0.00    +0.000 A 
ATOM     11  C   UNL     1       3.958   4.467  18.861  0.00  0.00    +0.000 A 
ATOM     12  N   UNL     1       3.007   5.117  19.634  0.00  0.00    +0.000 N 
ENDROOT
BRANCH   1  16
ATOM     13  C   UNL     1      -1.035  10.312  21.894  0.00  0.00    +0.000 C 
ATOM     14  C   UNL     1      -0.304   9.321  22.808  0.00  0.00    +0.000 C 
ATOM     15  C   UNL     1       1.113   9.291  22.247  0.00  0.00    +0.000 C 
ATOM     16  N   UNL     1       0.916   9.437  20.801  0.00  0.00    +0.000 N 
ATOM     17  C   UNL     1      -0.416   9.987  20.519  0.00  0.00    +0.000 C 
BRANCH  13  19
ATOM     18  C   UNL     1      -0.683  12.777  21.234  0.00  0.00    +0.000 C 
ATOM     19  C   UNL     1      -0.873  11.771  22.371  0.00  0.00    +0.000 C 
BRANCH  19  20
ATOM     20  N   UNL     1      -2.086  12.152  23.111  0.00  0.00    +0.000 NA
ATOM     21  H   UNL     1      -2.898  11.683  22.715  0.00  0.00    +0.000 HD
ATOM     22  H   UNL     1      -2.257  13.152  23.013  0.00  0.00    +0.000 HD
ENDBRANCH  19  20
ENDBRANCH  13  19
ENDBRANCH   1  16
BRANCH  12  23
ATOM     23  C   UNL     1       2.567   4.460  20.884  0.00  0.00    +0.000 C 
ATOM     24  C   UNL     1       1.307   3.632  20.979  0.00  0.00    +0.000 C 
ATOM     25  C   UNL     1       2.640   2.958  21.040  0.00  0.00    +0.000 C 
ENDBRANCH  12  23
BRANCH  10  26
ATOM     26  C   UNL     1       5.525   4.131  17.016  0.00  0.00    +0.000 C 
ATOM     27  O   UNL     1       5.278   3.518  15.984  0.00  0.00    +0.000 OA
BRANCH  26  28
ATOM     28  O   UNL     1       6.741   4.100  17.597  0.00  0.00    +0.000 OA
ATOM     29  H   UNL     1       7.347   3.406  17.237  0.00  0.00    +0.000 HD
ENDBRANCH  26  28
ENDBRANCH  10  26
TORSDOF 6
ENDMDL
MODEL 4
REMARK VINA RESULT:      -7.3      2.582      3.787
REMARK  Name = 
REMARK  7 active torsions:
REMARK  status: ('A' for Active; 'I' for Inactive)
REMARK    1  A    between atoms: C_1  and  C_2
REMARK    2  A    between atoms: C_2  and  N_3
REMARK    3  A    between atoms: C_2  and  C_4
REMARK    4  A    between atoms: N_7  and  C_8
REMARK    5  A    between atoms: C_17  and  C_18
REMARK    6  A    between atoms: C_18  and  O_20
REMARK    7  A    between atoms: N_22  and  C_23
REMARK                            x       y       z     vdW  Elec       q    Type
REMARK                         _______ _______ _______ _____ _____    ______ ____
ROOT
ATOM      1  C   UNL     1       1.811   7.887  19.506  0.00  0.00    +0.000 A 
ATOM      2  C   UNL     1       2.933   7.323  18.856  0.00  0.00    +0.000 A 
ATOM      3  C   UNL     1       3.407   6.027  19.135  0.00  0.00    +0.000 A 
ATOM      4  C   UNL     1       2.740   5.285  20.123  0.00  0.00    +0.000 A 
ATOM      5  C   UNL     1       1.679   5.827  20.841  0.00  0.00    +0.000 A 
ATOM      6  C   UNL     1       1.234   7.108  20.531  0.00  0.00    +0.000 A 
ATOM      7  F   UNL     1       0.214   7.587  21.260  0.00  0.00    +0.000 F 
ATOM      8  C   UNL     1       3.145   3.888  20.385  0.00  0.00    +0.000 A 
ATOM      9  O   UNL     1       2.613   3.222  21.275  0.00  0.00    +0.000 OA
ATOM     10  C   UNL     1       4.174   3.281  19.523  0.00  0.00    +0.000 A 
ATOM     11  C   UNL     1       4.768   4.085  18.628  0.00  0.00    +0.000 A 
ATOM     12  N   UNL     1       4.508   5.435  18.446  0.00  0.00    +0.000 N 
ENDROOT
BRANCH   1  16
ATOM     13  C   UNL     1       0.948  11.498  19.388  0.00  0.00    +0.000 C 
ATOM     14  C   UNL     1       2.001  11.220  18.309  0.00  0.00    +0.000 C 
ATOM     15  C   UNL     1       1.729   9.776  17.904  0.00  0.00    +0.000 C 
ATOM     16  N   UNL     1       1.316   9.136  19.157  0.00  0.00    +0.000 N 
ATOM     17  C   UNL     1       0.899  10.150  20.135  0.00  0.00    +0.000 C 
BRANCH  13  19
ATOM     18  C   UNL     1      -1.446  12.339  19.831  0.00  0.00    +0.000 C 
ATOM     19  C   UNL     1      -0.390  11.977  18.785  0.00  0.00    +0.000 C 
BRANCH  19  20
ATOM     20  N   UNL     1      -0.129  13.176  17.974  0.00  0.00    +0.000 NA
ATOM     21  H   UNL     1       0.710  13.041  17.412  0.00  0.00    +0.000 HD
ATOM     22  H   UNL     1       0.059  13.974  18.580  0.00  0.00    +0.000 HD
ENDBRANCH  19  20
ENDBRANCH  13  19
ENDBRANCH   1  16
BRANCH  12  23
ATOM     23  C   UNL     1       5.219   6.133  17.353  0.00  0.00    +0.000 C 
ATOM     24  C   UNL     1       6.425   5.553  16.653  0.00  0.00    +0.000 C 
ATOM     25  C   UNL     1       5.122   5.644  15.926  0.00  0.00    +0.000 C 
ENDBRANCH  12  23
BRANCH  10  26
ATOM     26  C   UNL     1       4.552   1.854  19.602  0.00  0.00    +0.000 C 
ATOM     27  O   UNL     1       5.235   1.392  20.508  0.00  0.00    +0.000 OA
BRANCH  26  28
ATOM     28  O   UNL     1       4.106   1.095  18.580  0.00  0.00    +0.000 OA
ATOM     29  H   UNL     1       3.348   1.488  18.081  0.00  0.00    +0.000 HD
ENDBRANCH  26  28
ENDBRANCH  10  26
TORSDOF 6
ENDMDL
MODEL 5
REMARK VINA RESULT:      -7.3      2.413      3.875
REMARK  Name = 
REMARK  7 active torsions:
REMARK  status: ('A' for Active; 'I' for Inactive)
REMARK    1  A    between atoms: C_1  and  C_2
REMARK    2  A    between atoms: C_2  and  N_3
REMARK    3  A    between atoms: C_2  and  C_4
REMARK    4  A    between atoms: N_7  and  C_8
REMARK    5  A    between atoms: C_17  and  C_18
REMARK    6  A    between atoms: C_18  and  O_20
REMARK    7  A    between atoms: N_22  and  C_23
REMARK                            x       y       z     vdW  Elec       q    Type
REMARK                         _______ _______ _______ _____ _____    ______ ____
ROOT
ATOM      1  C   UNL     1       1.544   8.249  19.851  0.00  0.00    +0.000 A 
ATOM      2  C   UNL     1       2.548   7.733  19.000  0.00  0.00    +0.000 A 
ATOM      3  C   UNL     1       3.011   6.406  19.081  0.00  0.00    +0.000 A 
ATOM      4  C   UNL     1       2.458   5.579  20.071  0.00  0.00    +0.000 A 
ATOM      5  C   UNL     1       1.521   6.065  20.978  0.00  0.00    +0.000 A 
ATOM      6  C   UNL     1       1.083   7.381  20.862  0.00  0.00    +0.000 A 
ATOM      7  F   UNL     1       0.186   7.801  21.768  0.00  0.00    +0.000 F 
ATOM      8  C   UNL     1       2.847   4.155  20.135  0.00  0.00    +0.000 A 
ATOM      9  O   UNL     1       2.417   3.411  21.018  0.00  0.00    +0.000 OA
ATOM     10  C   UNL     1       3.730   3.620  19.084  0.00  0.00    +0.000 A 
ATOM     11  C   UNL     1       4.225   4.500  18.201  0.00  0.00    +0.000 A 
ATOM     12  N   UNL     1       3.990   5.867  18.193  0.00  0.00    +0.000 N 
ENDROOT
BRANCH   1  16
ATOM     13  C   UNL     1      -0.492  11.229  18.967  0.00  0.00    +0.000 C 
ATOM     14  C   UNL     1      -0.662  10.957  20.466  0.00  0.00    +0.000 C 
ATOM     15  C   UNL     1       0.666  10.330  20.873  0.00  0.00    +0.000 C 
ATOM     16  N   UNL     1       1.048   9.538  19.699  0.00  0.00    +0.000 N 
ATOM     17  C   UNL     1       0.311   9.993  18.513  0.00  0.00    +0.000 C 
BRANCH  13  19
ATOM     18  C   UNL     1       1.603  12.491  18.157  0.00  0.00    +0.000 C 
ATOM     19  C   UNL     1       0.174  12.594  18.695  0.00  0.00    +0.000 C 
BRANCH  19  20
ATOM     20  N   UNL     1      -0.632  13.311  17.695  0.00  0.00    +0.000 NA
ATOM     21  H   UNL     1      -0.530  12.869  16.783  0.00  0.00    +0.000 HD
ATOM     22  H   UNL     1      -0.292  14.266  17.589  0.00  0.00    +0.000 HD
ENDBRANCH  19  20
ENDBRANCH  13  19
ENDBRANCH   1  16
BRANCH  12  23
ATOM     23  C   UNL     1       4.571   6.661  17.087  0.00  0.00    +0.000 C 
ATOM     24  C   UNL     1       6.057   6.753  16.833  0.00  0.00    +0.000 C 
ATOM     25  C   UNL     1       5.192   5.983  15.888  0.00  0.00    +0.000 C 
ENDBRANCH  12  23
BRANCH  10  26
ATOM     26  C   UNL     1       4.067   2.185  18.967  0.00  0.00    +0.000 C 
ATOM     27  O   UNL     1       3.580   1.450  18.116  0.00  0.00    +0.000 OA
BRANCH  26  28
ATOM     28  O   UNL     1       4.940   1.735  19.891  0.00  0.00    +0.000 OA
ATOM     29  H   UNL     1       5.121   0.764  19.842  0.00  0.00    +0.000 HD
ENDBRANCH  26  28
ENDBRANCH  10  26
TORSDOF 6
ENDMDL
MODEL 6
REMARK VINA RESULT:      -7.1      3.372      7.428
REMARK  Name = 
REMARK  7 active torsions:
REMARK  status: ('A' for Active; 'I' for Inactive)
REMARK    1  A    between atoms: C_1  and  C_2
REMARK    2  A    between atoms: C_2  and  N_3
REMARK    3  A    between atoms: C_2  and  C_4
REMARK    4  A    between atoms: N_7  and  C_8
REMARK    5  A    between atoms: C_17  and  C_18
REMARK    6  A    between atoms: C_18  and  O_20
REMARK    7  A    between atoms: N_22  and  C_23
REMARK                            x       y       z     vdW  Elec       q    Type
REMARK                         _______ _______ _______ _____ _____    ______ ____
ROOT
ATOM      1  C   UNL     1       2.201   7.442  19.053  0.00  0.00    +0.000 A 
ATOM      2  C   UNL     1       1.420   8.109  20.025  0.00  0.00    +0.000 A 
ATOM      3  C   UNL     1       1.079   9.471  19.928  0.00  0.00    +0.000 A 
ATOM      4  C   UNL     1       1.565  10.191  18.825  0.00  0.00    +0.000 A 
ATOM      5  C   UNL     1       2.398   9.595  17.883  0.00  0.00    +0.000 A 
ATOM      6  C   UNL     1       2.707   8.244  18.009  0.00  0.00    +0.000 A 
ATOM      7  F   UNL     1       3.522   7.722  17.079  0.00  0.00    +0.000 F 
ATOM      8  C   UNL     1       1.158  11.599  18.634  0.00  0.00    +0.000 A 
ATOM      9  O   UNL     1       1.600  12.275  17.703  0.00  0.00    +0.000 OA
ATOM     10  C   UNL     1       0.165  12.175  19.558  0.00  0.00    +0.000 A 
ATOM     11  C   UNL     1      -0.213  11.412  20.595  0.00  0.00    +0.000 A 
ATOM     12  N   UNL     1       0.250  10.137  20.881  0.00  0.00    +0.000 N 
ENDROOT
BRANCH   1  16
ATOM     13  C   UNL     1       2.797   3.855  18.291  0.00  0.00    +0.000 C 
ATOM     14  C   UNL     1       4.135   4.491  18.689  0.00  0.00    +0.000 C 
ATOM     15  C   UNL     1       3.735   5.593  19.663  0.00  0.00    +0.000 C 
ATOM     16  N   UNL     1       2.458   6.080  19.131  0.00  0.00    +0.000 N 
ATOM     17  C   UNL     1       1.873   5.087  18.220  0.00  0.00    +0.000 C 
BRANCH  13  19
ATOM     18  C   UNL     1       1.027   3.028  19.969  0.00  0.00    +0.000 C 
ATOM     19  C   UNL     1       2.363   2.750  19.278  0.00  0.00    +0.000 C 
BRANCH  19  20
ATOM     20  N   UNL     1       2.231   1.490  18.530  0.00  0.00    +0.000 NA
ATOM     21  H   UNL     1       1.288   1.406  18.153  0.00  0.00    +0.000 HD
ATOM     22  H   UNL     1       2.359   0.697  19.157  0.00  0.00    +0.000 HD
ENDBRANCH  19  20
ENDBRANCH  13  19
ENDBRANCH   1  16
BRANCH  12  23
ATOM     23  C   UNL     1      -0.347   9.428  22.034  0.00  0.00    +0.000 C 
ATOM     24  C   UNL     1       0.306   9.375  23.396  0.00  0.00    +0.000 C 
ATOM     25  C   UNL     1      -0.930  10.193  23.200  0.00  0.00    +0.000 C 
ENDBRANCH  12  23
BRANCH  10  26
ATOM     26  C   UNL     1      -0.420  13.521  19.377  0.00  0.00    +0.000 C 
ATOM     27  O   UNL     1      -0.568  14.315  20.298  0.00  0.00    +0.000 OA
BRANCH  26  28
ATOM     28  O   UNL     1      -0.803  13.803  18.115  0.00  0.00    +0.000 OA
ATOM     29  H   UNL     1      -1.046  14.750  17.966  0.00  0.00    +0.000 HD
ENDBRANCH  26  28
ENDBRANCH  10  26
TORSDOF 6
ENDMDL
MODEL 7
REMARK VINA RESULT:      -6.8      4.069      8.177
REMARK  Name = 
REMARK  7 active torsions:
REMARK  status: ('A' for Active; 'I' for Inactive)
REMARK    1  A    between atoms: C_1  and  C_2
REMARK    2  A    between atoms: C_2  and  N_3
REMARK    3  A    between atoms: C_2  and  C_4
REMARK    4  A    between atoms: N_7  and  C_8
REMARK    5  A    between atoms: C_17  and  C_18
REMARK    6  A    between atoms: C_18  and  O_20
REMARK    7  A    between atoms: N_22  and  C_23
REMARK                            x       y       z     vdW  Elec       q    Type
REMARK                         _______ _______ _______ _____ _____    ______ ____
ROOT
ATOM      1  C   UNL     1       2.182   7.207  19.527  0.00  0.00    +0.000 A 
ATOM      2  C   UNL     1       1.796   8.519  19.166  0.00  0.00    +0.000 A 
ATOM      3  C   UNL     1       1.013   9.341  19.998  0.00  0.00    +0.000 A 
ATOM      4  C   UNL     1       0.585   8.812  21.226  0.00  0.00    +0.000 A 
ATOM      5  C   UNL     1       0.879   7.501  21.590  0.00  0.00    +0.000 A 
ATOM      6  C   UNL     1       1.661   6.721  20.744  0.00  0.00    +0.000 A 
ATOM      7  F   UNL     1       1.906   5.462  21.138  0.00  0.00    +0.000 F 
ATOM      8  C   UNL     1      -0.161   9.669  22.171  0.00  0.00    +0.000 A 
ATOM      9  O   UNL     1      -0.592   9.225  23.237  0.00  0.00    +0.000 OA
ATOM     10  C   UNL     1      -0.342  11.092  21.837  0.00  0.00    +0.000 A 
ATOM     11  C   UNL     1       0.080  11.490  20.627  0.00  0.00    +0.000 A 
ATOM     12  N   UNL     1       0.662  10.683  19.660  0.00  0.00    +0.000 N 
ENDROOT
BRANCH   1  16
ATOM     13  C   UNL     1       4.744   4.844  18.240  0.00  0.00    +0.000 C 
ATOM     14  C   UNL     1       3.359   4.240  17.982  0.00  0.00    +0.000 C 
ATOM     15  C   UNL     1       2.463   5.458  17.793  0.00  0.00    +0.000 C 
ATOM     16  N   UNL     1       3.020   6.445  18.723  0.00  0.00    +0.000 N 
ATOM     17  C   UNL     1       4.394   6.079  19.095  0.00  0.00    +0.000 C 
BRANCH  13  19
ATOM     18  C   UNL     1       6.206   6.494  16.907  0.00  0.00    +0.000 C 
ATOM     19  C   UNL     1       5.505   5.134  16.929  0.00  0.00    +0.000 C 
BRANCH  19  20
ATOM     20  N   UNL     1       6.532   4.095  16.752  0.00  0.00    +0.000 NA
ATOM     21  H   UNL     1       6.698   3.615  17.635  0.00  0.00    +0.000 HD
ATOM     22  H   UNL     1       7.419   4.521  16.487  0.00  0.00    +0.000 HD
ENDBRANCH  19  20
ENDBRANCH  13  19
ENDBRANCH   1  16
BRANCH  12  23
ATOM     23  C   UNL     1       1.129  11.327  18.413  0.00  0.00    +0.000 C 
ATOM     24  C   UNL     1       1.152  12.825  18.220  0.00  0.00    +0.000 C 
ATOM     25  C   UNL     1       2.439  12.079  18.371  0.00  0.00    +0.000 C 
ENDBRANCH  12  23
BRANCH  10  26
ATOM     26  C   UNL     1      -0.944  12.069  22.769  0.00  0.00    +0.000 C 
ATOM     27  O   UNL     1      -0.375  13.095  23.123  0.00  0.00    +0.000 OA
BRANCH  26  28
ATOM     28  O   UNL     1      -2.169  11.733  23.223  0.00  0.00    +0.000 OA
ATOM     29  H   UNL     1      -2.228  11.645  24.206  0.00  0.00    +0.000 HD
ENDBRANCH  26  28
ENDBRANCH  10  26
TORSDOF 6
ENDMDL
MODEL 8
REMARK VINA RESULT:      -6.8      3.128      7.323
REMARK  Name = 
REMARK  7 active torsions:
REMARK  status: ('A' for Active; 'I' for Inactive)
REMARK    1  A    between atoms: C_1  and  C_2
REMARK    2  A    between atoms: C_2  and  N_3
REMARK    3  A    between atoms: C_2  and  C_4
REMARK    4  A    between atoms: N_7  and  C_8
REMARK    5  A    between atoms: C_17  and  C_18
REMARK    6  A    between atoms: C_18  and  O_20
REMARK    7  A    between atoms: N_22  and  C_23
REMARK                            x       y       z     vdW  Elec       q    Type
REMARK                         _______ _______ _______ _____ _____    ______ ____
ROOT
ATOM      1  C   UNL     1       2.391   6.435  19.095  0.00  0.00    +0.000 A 
ATOM      2  C   UNL     1       1.717   7.253  20.031  0.00  0.00    +0.000 A 
ATOM      3  C   UNL     1       1.521   8.634  19.837  0.00  0.00    +0.000 A 
ATOM      4  C   UNL     1       2.046   9.212  18.670  0.00  0.00    +0.000 A 
ATOM      5  C   UNL     1       2.779   8.460  17.758  0.00  0.00    +0.000 A 
ATOM      6  C   UNL     1       2.946   7.097  17.981  0.00  0.00    +0.000 A 
ATOM      7  F   UNL     1       3.670   6.421  17.075  0.00  0.00    +0.000 F 
ATOM      8  C   UNL     1       1.786  10.638  18.381  0.00  0.00    +0.000 A 
ATOM      9  O   UNL     1       2.268  11.190  17.390  0.00  0.00    +0.000 OA
ATOM     10  C   UNL     1       0.890  11.386  19.280  0.00  0.00    +0.000 A 
ATOM     11  C   UNL     1       0.466  10.748  20.382  0.00  0.00    +0.000 A 
ATOM     12  N   UNL     1       0.799   9.455  20.755  0.00  0.00    +0.000 N 
ENDROOT
BRANCH   1  16
ATOM     13  C   UNL     1       3.551   3.011  19.952  0.00  0.00    +0.000 C 
ATOM     14  C   UNL     1       2.451   3.408  20.944  0.00  0.00    +0.000 C 
ATOM     15  C   UNL     1       1.559   4.345  20.137  0.00  0.00    +0.000 C 
ATOM     16  N   UNL     1       2.502   5.062  19.272  0.00  0.00    +0.000 N 
ATOM     17  C   UNL     1       3.772   4.329  19.183  0.00  0.00    +0.000 C 
BRANCH  13  19
ATOM     18  C   UNL     1       2.596   2.168  17.712  0.00  0.00    +0.000 C 
ATOM     19  C   UNL     1       3.145   1.795  19.091  0.00  0.00    +0.000 C 
BRANCH  19  20
ATOM     20  N   UNL     1       4.335   0.954  18.889  0.00  0.00    +0.000 NA
ATOM     21  H   UNL     1       5.173   1.534  18.872  0.00  0.00    +0.000 HD
ATOM     22  H   UNL     1       4.288   0.493  17.982  0.00  0.00    +0.000 HD
ENDBRANCH  19  20
ENDBRANCH  13  19
ENDBRANCH   1  16
BRANCH  12  23
ATOM     23  C   UNL     1       0.166   8.903  21.973  0.00  0.00    +0.000 C 
ATOM     24  C   UNL     1       0.589   9.294  23.370  0.00  0.00    +0.000 C 
ATOM     25  C   UNL     1      -0.729   9.759  22.839  0.00  0.00    +0.000 C 
ENDBRANCH  12  23
BRANCH  10  26
ATOM     26  C   UNL     1       0.448  12.770  19.010  0.00  0.00    +0.000 C 
ATOM     27  O   UNL     1       0.604  13.690  19.805  0.00  0.00    +0.000 OA
BRANCH  26  28
ATOM     28  O   UNL     1      -0.166  12.943  17.822  0.00  0.00    +0.000 OA
ATOM     29  H   UNL     1       0.367  13.443  17.156  0.00  0.00    +0.000 HD
ENDBRANCH  26  28
ENDBRANCH  10  26
TORSDOF 6
ENDMDL
