MODEL 1
REMARK VINA RESULT:      -7.9      0.000      0.000
REMARK  Name = 
REMARK  9 active torsions:
REMARK  status: ('A' for Active; 'I' for Inactive)
REMARK    1  A    between atoms: C_1  and  C_2
REMARK    2  A    between atoms: C_2  and  O_3
REMARK    3  A    between atoms: O_3  and  C_4
REMARK    4  A    between atoms: C_4  and  C_6
REMARK    5  A    between atoms: C_7  and  N_8
REMARK    6  A    between atoms: C_9  and  C_11
REMARK    7  A    between atoms: C_26  and  C_27
REMARK    8  A    between atoms: C_28  and  C_29
REMARK    9  A    between atoms: C_29  and  C_30
REMARK                            x       y       z     vdW  Elec       q    Type
REMARK                         _______ _______ _______ _____ _____    ______ ____
ROOT
ATOM      1  N   UNL     1       2.903   7.098  19.133  0.00  0.00    +0.000 N 
ATOM      2  C   UNL     1       2.586   6.330  18.028  0.00  0.00    +0.000 C 
ATOM      3  O   UNL     1       1.503   6.368  17.439  0.00  0.00    +0.000 OA
ATOM      4  H   UNL     1       3.881   7.325  19.278  0.00  0.00    +0.000 HD
ENDROOT
BRANCH   2   5
ATOM      5  C   UNL     1       3.705   5.375  17.562  0.00  0.00    +0.000 C 
ATOM      6  C   UNL     1       3.487   4.002  18.162  0.00  0.00    +0.000 A 
ATOM      7  C   UNL     1       2.321   3.275  17.877  0.00  0.00    +0.000 A 
ATOM      8  C   UNL     1       2.062   2.071  18.531  0.00  0.00    +0.000 A 
ATOM      9  C   UNL     1       2.966   1.577  19.467  0.00  0.00    +0.000 A 
ATOM     10  C   UNL     1       4.151   2.268  19.716  0.00  0.00    +0.000 A 
ATOM     11  C   UNL     1       4.416   3.469  19.056  0.00  0.00    +0.000 A 
ATOM     12  O   UNL     1       5.614   4.066  19.351  0.00  0.00    +0.000 OA
ATOM     13  C   UNL     1       5.967   5.203  18.669  0.00  0.00    +0.000 A 
ATOM     14  C   UNL     1       7.276   5.650  18.876  0.00  0.00    +0.000 A 
ATOM     15  C   UNL     1       7.726   6.811  18.252  0.00  0.00    +0.000 A 
ATOM     16  C   UNL     1       6.867   7.528  17.424  0.00  0.00    +0.000 A 
ATOM     17  C   UNL     1       5.560   7.077  17.208  0.00  0.00    +0.000 A 
ATOM     18  C   UNL     1       5.099   5.904  17.827  0.00  0.00    +0.000 A 
ENDBRANCH   2   5
BRANCH   1  20
ATOM     19  C   UNL     1       1.500   9.210  19.365  0.00  0.00    +0.000 A 
ATOM     20  C   UNL     1       1.984   7.957  19.696  0.00  0.00    +0.000 A 
ATOM     21  S   UNL     1       1.258   7.297  21.076  0.00  0.00    +0.000 S 
ATOM     22  C   UNL     1       0.396   8.736  21.395  0.00  0.00    +0.000 A 
ATOM     23  C   UNL     1      -0.436   8.828  22.632  0.00  0.00    +0.000 C 
ATOM     24  C   UNL     1       0.551   9.673  20.381  0.00  0.00    +0.000 A 
BRANCH  19  25
ATOM     25  C   UNL     1       1.764   9.918  18.110  0.00  0.00    +0.000 C 
ATOM     26  O   UNL     1       2.352   9.415  17.157  0.00  0.00    +0.000 OA
BRANCH  25  27
ATOM     27  O   UNL     1       1.496  11.256  18.213  0.00  0.00    +0.000 OA
BRANCH  27  29
ATOM     28  C   UNL     1       2.155  13.548  18.301  0.00  0.00    +0.000 C 
ATOM     29  C   UNL     1       2.620  12.126  18.041  0.00  0.00    +0.000 C 
ENDBRANCH  27  29
ENDBRANCH  25  27
ENDBRANCH  19  25
BRANCH  24  30
ATOM     30  C   UNL     1      -0.239  10.962  20.290  0.00  0.00    +0.000 C 
ATOM     31  C   UNL     1       0.237  12.046  21.244  0.00  0.00    +0.000 C 
ENDBRANCH  24  30
ENDBRANCH   1  20
TORSDOF 6
ENDMDL
MODEL 2
REMARK VINA RESULT:      -7.7      1.402      1.762
REMARK  Name = 
REMARK  9 active torsions:
REMARK  status: ('A' for Active; 'I' for Inactive)
REMARK    1  A    between atoms: C_1  and  C_2
REMARK    2  A    between atoms: C_2  and  O_3
REMARK    3  A    between atoms: O_3  and  C_4
REMARK    4  A    between atoms: C_4  and  C_6
REMARK    5  A    between atoms: C_7  and  N_8
REMARK    6  A    between atoms: C_9  and  C_11
REMARK    7  A    between atoms: C_26  and  C_27
REMARK    8  A    between atoms: C_28  and  C_29
REMARK    9  A    between atoms: C_29  and  C_30
REMARK                            x       y       z     vdW  Elec       q    Type
REMARK                         _______ _______ _______ _____ _____    ______ ____
ROOT
ATOM      1  N   UNL     1       1.850   7.767  18.834  0.00  0.00    +0.000 N 
ATOM      2  C   UNL     1       2.612   6.682  19.226  0.00  0.00    +0.000 C 
ATOM      3  O   UNL     1       2.878   6.402  20.396  0.00  0.00    +0.000 OA
ATOM      4  H   UNL     1       1.340   7.688  17.961  0.00  0.00    +0.000 HD
ENDROOT
BRANCH   2   5
ATOM      5  C   UNL     1       3.143   5.813  18.065  0.00  0.00    +0.000 C 
ATOM      6  C   UNL     1       2.703   4.377  18.260  0.00  0.00    +0.000 A 
ATOM      7  C   UNL     1       1.340   4.047  18.296  0.00  0.00    +0.000 A 
ATOM      8  C   UNL     1       0.937   2.748  18.604  0.00  0.00    +0.000 A 
ATOM      9  C   UNL     1       1.887   1.767  18.872  0.00  0.00    +0.000 A 
ATOM     10  C   UNL     1       3.243   2.076  18.786  0.00  0.00    +0.000 A 
ATOM     11  C   UNL     1       3.650   3.374  18.470  0.00  0.00    +0.000 A 
ATOM     12  O   UNL     1       5.003   3.578  18.390  0.00  0.00    +0.000 OA
ATOM     13  C   UNL     1       5.460   4.811  17.997  0.00  0.00    +0.000 A 
ATOM     14  C   UNL     1       6.833   4.896  17.751  0.00  0.00    +0.000 A 
ATOM     15  C   UNL     1       7.402   6.110  17.374  0.00  0.00    +0.000 A 
ATOM     16  C   UNL     1       6.599   7.241  17.246  0.00  0.00    +0.000 A 
ATOM     17  C   UNL     1       5.222   7.155  17.482  0.00  0.00    +0.000 A 
ATOM     18  C   UNL     1       4.638   5.934  17.856  0.00  0.00    +0.000 A 
ENDBRANCH   2   5
BRANCH   1  20
ATOM     19  C   UNL     1       1.099  10.024  19.742  0.00  0.00    +0.000 A 
ATOM     20  C   UNL     1       1.355   8.664  19.755  0.00  0.00    +0.000 A 
ATOM     21  S   UNL     1       0.926   7.912  21.209  0.00  0.00    +0.000 S 
ATOM     22  C   UNL     1       0.547   9.402  21.950  0.00  0.00    +0.000 A 
ATOM     23  C   UNL     1       0.151   9.422  23.390  0.00  0.00    +0.000 C 
ATOM     24  C   UNL     1       0.615  10.462  21.054  0.00  0.00    +0.000 A 
BRANCH  19  25
ATOM     25  C   UNL     1       1.146  10.885  18.558  0.00  0.00    +0.000 C 
ATOM     26  O   UNL     1       2.183  11.362  18.106  0.00  0.00    +0.000 OA
BRANCH  25  27
ATOM     27  O   UNL     1      -0.103  11.282  18.166  0.00  0.00    +0.000 OA
BRANCH  27  29
ATOM     28  C   UNL     1      -2.249  10.850  17.215  0.00  0.00    +0.000 C 
ATOM     29  C   UNL     1      -1.011  10.226  17.835  0.00  0.00    +0.000 C 
ENDBRANCH  27  29
ENDBRANCH  25  27
ENDBRANCH  19  25
BRANCH  24  30
ATOM     30  C   UNL     1       0.152  11.869  21.368  0.00  0.00    +0.000 C 
ATOM     31  C   UNL     1      -1.353  12.061  21.268  0.00  0.00    +0.000 C 
ENDBRANCH  24  30
ENDBRANCH   1  20
TORSDOF 6
ENDMDL
MODEL 3
REMARK VINA RESULT:      -7.6      1.720      3.131
REMARK  Name = 
REMARK  9 active torsions:
REMARK  status: ('A' for Active; 'I' for Inactive)
REMARK    1  A    between atoms: C_1  and  C_2
REMARK    2  A    between atoms: C_2  and  O_3
REMARK    3  A    between atoms: O_3  and  C_4
REMARK    4  A    between atoms: C_4  and  C_6
REMARK    5  A    between atoms: C_7  and  N_8
REMARK    6  A    between atoms: C_9  and  C_11
REMARK    7  A    between atoms: C_26  and  C_27
REMARK    8  A    between atoms: C_28  and  C_29
REMARK    9  A    between atoms: C_29  and  C_30
REMARK                            x       y       z     vdW  Elec       q    Type
REMARK                         _______ _______ _______ _____ _____    ______ ____
ROOT
ATOM      1  N   UNL     1       3.173   7.521  18.300  0.00  0.00    +0.000 N 
ATOM      2  C   UNL     1       2.818   6.336  17.684  0.00  0.00    +0.000 C 
ATOM      3  O   UNL     1       1.658   5.981  17.465  0.00  0.00    +0.000 OA
ATOM      4  H   UNL     1       4.075   7.919  18.061  0.00  0.00    +0.000 HD
ENDROOT
BRANCH   2   5
ATOM      5  C   UNL     1       4.007   5.436  17.282  0.00  0.00    +0.000 C 
ATOM      6  C   UNL     1       3.786   4.032  17.803  0.00  0.00    +0.000 A 
ATOM      7  C   UNL     1       2.675   3.283  17.387  0.00  0.00    +0.000 A 
ATOM      8  C   UNL     1       2.402   2.044  17.965  0.00  0.00    +0.000 A 
ATOM      9  C   UNL     1       3.237   1.538  18.958  0.00  0.00    +0.000 A 
ATOM     10  C   UNL     1       4.371   2.254  19.339  0.00  0.00    +0.000 A 
ATOM     11  C   UNL     1       4.650   3.491  18.755  0.00  0.00    +0.000 A 
ATOM     12  O   UNL     1       5.796   4.112  19.180  0.00  0.00    +0.000 OA
ATOM     13  C   UNL     1       6.168   5.288  18.579  0.00  0.00    +0.000 A 
ATOM     14  C   UNL     1       7.437   5.766  18.919  0.00  0.00    +0.000 A 
ATOM     15  C   UNL     1       7.899   6.966  18.386  0.00  0.00    +0.000 A 
ATOM     16  C   UNL     1       7.091   7.692  17.514  0.00  0.00    +0.000 A 
ATOM     17  C   UNL     1       5.825   7.210  17.163  0.00  0.00    +0.000 A 
ATOM     18  C   UNL     1       5.353   5.997  17.691  0.00  0.00    +0.000 A 
ENDBRANCH   2   5
BRANCH   1  20
ATOM     19  C   UNL     1       1.385   8.429  19.869  0.00  0.00    +0.000 A 
ATOM     20  C   UNL     1       2.217   8.400  18.764  0.00  0.00    +0.000 A 
ATOM     21  S   UNL     1       2.074   9.766  17.776  0.00  0.00    +0.000 S 
ATOM     22  C   UNL     1       0.762  10.371  18.685  0.00  0.00    +0.000 A 
ATOM     23  C   UNL     1       0.075  11.618  18.232  0.00  0.00    +0.000 C 
ATOM     24  C   UNL     1       0.517   9.609  19.821  0.00  0.00    +0.000 A 
BRANCH  19  25
ATOM     25  C   UNL     1       1.456   7.512  21.010  0.00  0.00    +0.000 C 
ATOM     26  O   UNL     1       1.921   7.821  22.103  0.00  0.00    +0.000 OA
BRANCH  25  27
ATOM     27  O   UNL     1       1.167   6.225  20.648  0.00  0.00    +0.000 OA
BRANCH  27  29
ATOM     28  C   UNL     1       1.488   3.892  21.037  0.00  0.00    +0.000 C 
ATOM     29  C   UNL     1       2.163   5.252  20.981  0.00  0.00    +0.000 C 
ENDBRANCH  27  29
ENDBRANCH  25  27
ENDBRANCH  19  25
BRANCH  24  30
ATOM     30  C   UNL     1      -0.452  10.003  20.915  0.00  0.00    +0.000 C 
ATOM     31  C   UNL     1       0.106  11.019  21.898  0.00  0.00    +0.000 C 
ENDBRANCH  24  30
ENDBRANCH   1  20
TORSDOF 6
ENDMDL
MODEL 4
REMARK VINA RESULT:      -7.6      1.100      1.462
REMARK  Name = 
REMARK  9 active torsions:
REMARK  status: ('A' for Active; 'I' for Inactive)
REMARK    1  A    between atoms: C_1  and  C_2
REMARK    2  A    between atoms: C_2  and  O_3
REMARK    3  A    between atoms: O_3  and  C_4
REMARK    4  A    between atoms: C_4  and  C_6
REMARK    5  A    between atoms: C_7  and  N_8
REMARK    6  A    between atoms: C_9  and  C_11
REMARK    7  A    between atoms: C_26  and  C_27
REMARK    8  A    between atoms: C_28  and  C_29
REMARK    9  A    between atoms: C_29  and  C_30
REMARK                            x       y       z     vdW  Elec       q    Type
REMARK                         _______ _______ _______ _____ _____    ______ ____
ROOT
ATOM      1  N   UNL     1       2.492   7.285  19.439  0.00  0.00    +0.000 N 
ATOM      2  C   UNL     1       2.178   6.779  18.192  0.00  0.00    +0.000 C 
ATOM      3  O   UNL     1       1.231   7.160  17.501  0.00  0.00    +0.000 OA
ATOM      4  H   UNL     1       3.463   7.244  19.729  0.00  0.00    +0.000 HD
ENDROOT
BRANCH   2   5
ATOM      5  C   UNL     1       3.112   5.652  17.698  0.00  0.00    +0.000 C 
ATOM      6  C   UNL     1       2.716   4.341  18.343  0.00  0.00    +0.000 A 
ATOM      7  C   UNL     1       1.439   3.799  18.132  0.00  0.00    +0.000 A 
ATOM      8  C   UNL     1       1.031   2.661  18.828  0.00  0.00    +0.000 A 
ATOM      9  C   UNL     1       1.894   2.051  19.733  0.00  0.00    +0.000 A 
ATOM     10  C   UNL     1       3.182   2.553  19.908  0.00  0.00    +0.000 A 
ATOM     11  C   UNL     1       3.595   3.687  19.206  0.00  0.00    +0.000 A 
ATOM     12  O   UNL     1       4.885   4.096  19.429  0.00  0.00    +0.000 OA
ATOM     13  C   UNL     1       5.374   5.153  18.702  0.00  0.00    +0.000 A 
ATOM     14  C   UNL     1       6.744   5.394  18.835  0.00  0.00    +0.000 A 
ATOM     15  C   UNL     1       7.336   6.460  18.161  0.00  0.00    +0.000 A 
ATOM     16  C   UNL     1       6.556   7.287  17.356  0.00  0.00    +0.000 A 
ATOM     17  C   UNL     1       5.186   7.040  17.213  0.00  0.00    +0.000 A 
ATOM     18  C   UNL     1       4.582   5.964  17.883  0.00  0.00    +0.000 A 
ENDBRANCH   2   5
BRANCH   1  20
ATOM     19  C   UNL     1       1.255   9.501  19.644  0.00  0.00    +0.000 A 
ATOM     20  C   UNL     1       1.714   8.256  20.034  0.00  0.00    +0.000 A 
ATOM     21  S   UNL     1       1.167   7.784  21.565  0.00  0.00    +0.000 S 
ATOM     22  C   UNL     1       0.442   9.303  21.849  0.00  0.00    +0.000 A 
ATOM     23  C   UNL     1      -0.190   9.572  23.176  0.00  0.00    +0.000 C 
ATOM     24  C   UNL     1       0.494  10.125  20.730  0.00  0.00    +0.000 A 
BRANCH  19  25
ATOM     25  C   UNL     1       1.368  10.065  18.296  0.00  0.00    +0.000 C 
ATOM     26  O   UNL     1       2.433  10.193  17.700  0.00  0.00    +0.000 OA
BRANCH  25  27
ATOM     27  O   UNL     1       0.197  10.640  17.885  0.00  0.00    +0.000 OA
BRANCH  27  29
ATOM     28  C   UNL     1      -2.159  10.492  17.534  0.00  0.00    +0.000 C 
ATOM     29  C   UNL     1      -0.847   9.728  17.528  0.00  0.00    +0.000 C 
ENDBRANCH  27  29
ENDBRANCH  25  27
ENDBRANCH  19  25
BRANCH  24  30
ATOM     30  C   UNL     1      -0.228  11.450  20.617  0.00  0.00    +0.000 C 
ATOM     31  C   UNL     1       0.641  12.657  20.932  0.00  0.00    +0.000 C 
ENDBRANCH  24  30
ENDBRANCH   1  20
TORSDOF 6
ENDMDL
MODEL 5
REMARK VINA RESULT:      -7.5      1.155      1.333
REMARK  Name = 
REMARK  9 active torsions:
REMARK  status: ('A' for Active; 'I' for Inactive)
REMARK    1  A    between atoms: C_1  and  C_2
REMARK    2  A    between atoms: C_2  and  O_3
REMARK    3  A    between atoms: O_3  and  C_4
REMARK    4  A    between atoms: C_4  and  C_6
REMARK    5  A    between atoms: C_7  and  N_8
REMARK    6  A    between atoms: C_9  and  C_11
REMARK    7  A    between atoms: C_26  and  C_27
REMARK    8  A    between atoms: C_28  and  C_29
REMARK    9  A    between atoms: C_29  and  C_30
REMARK                            x       y       z     vdW  Elec       q    Type
REMARK                         _______ _______ _______ _____ _____    ______ ____
ROOT
ATOM      1  N   UNL     1       1.823   7.810  18.859  0.00  0.00    +0.000 N 
ATOM      2  C   UNL     1       2.589   6.722  19.235  0.00  0.00    +0.000 C 
ATOM      3  O   UNL     1       2.850   6.420  20.402  0.00  0.00    +0.000 OA
ATOM      4  H   UNL     1       1.319   7.744  17.982  0.00  0.00    +0.000 HD
ENDROOT
BRANCH   2   5
ATOM      5  C   UNL     1       3.133   5.879  18.061  0.00  0.00    +0.000 C 
ATOM      6  C   UNL     1       2.712   4.435  18.230  0.00  0.00    +0.000 A 
ATOM      7  C   UNL     1       1.353   4.087  18.258  0.00  0.00    +0.000 A 
ATOM      8  C   UNL     1       0.966   2.778  18.544  0.00  0.00    +0.000 A 
ATOM      9  C   UNL     1       1.929   1.805  18.797  0.00  0.00    +0.000 A 
ATOM     10  C   UNL     1       3.281   2.133  18.719  0.00  0.00    +0.000 A 
ATOM     11  C   UNL     1       3.671   3.441  18.425  0.00  0.00    +0.000 A 
ATOM     12  O   UNL     1       5.022   3.664  18.352  0.00  0.00    +0.000 OA
ATOM     13  C   UNL     1       5.463   4.909  17.981  0.00  0.00    +0.000 A 
ATOM     14  C   UNL     1       6.835   5.016  17.738  0.00  0.00    +0.000 A 
ATOM     15  C   UNL     1       7.389   6.244  17.383  0.00  0.00    +0.000 A 
ATOM     16  C   UNL     1       6.572   7.366  17.273  0.00  0.00    +0.000 A 
ATOM     17  C   UNL     1       5.196   7.258  17.505  0.00  0.00    +0.000 A 
ATOM     18  C   UNL     1       4.627   6.023  17.857  0.00  0.00    +0.000 A 
ENDBRANCH   2   5
BRANCH   1  20
ATOM     19  C   UNL     1       1.016  10.036  19.795  0.00  0.00    +0.000 A 
ATOM     20  C   UNL     1       1.316   8.685  19.795  0.00  0.00    +0.000 A 
ATOM     21  S   UNL     1       0.936   7.911  21.252  0.00  0.00    +0.000 S 
ATOM     22  C   UNL     1       0.524   9.384  22.008  0.00  0.00    +0.000 A 
ATOM     23  C   UNL     1       0.152   9.382  23.455  0.00  0.00    +0.000 C 
ATOM     24  C   UNL     1       0.542  10.451  21.118  0.00  0.00    +0.000 A 
BRANCH  19  25
ATOM     25  C   UNL     1       1.016  10.906  18.616  0.00  0.00    +0.000 C 
ATOM     26  O   UNL     1       0.007  11.179  17.974  0.00  0.00    +0.000 OA
BRANCH  25  27
ATOM     27  O   UNL     1       2.286  11.178  18.184  0.00  0.00    +0.000 OA
BRANCH  27  29
ATOM     28  C   UNL     1       2.557  13.300  19.242  0.00  0.00    +0.000 C 
ATOM     29  C   UNL     1       2.564  12.557  17.917  0.00  0.00    +0.000 C 
ENDBRANCH  27  29
ENDBRANCH  25  27
ENDBRANCH  19  25
BRANCH  24  30
ATOM     30  C   UNL     1       0.040  11.841  21.449  0.00  0.00    +0.000 C 
ATOM     31  C   UNL     1      -1.448  12.034  21.207  0.00  0.00    +0.000 C 
ENDBRANCH  24  30
ENDBRANCH   1  20
TORSDOF 6
ENDMDL
MODEL 6
REMARK VINA RESULT:      -7.4      2.137      4.281
REMARK  Name = 
REMARK  9 active torsions:
REMARK  status: ('A' for Active; 'I' for Inactive)
REMARK    1  A    between atoms: C_1  and  C_2
REMARK    2  A    between atoms: C_2  and  O_3
REMARK    3  A    between atoms: O_3  and  C_4
REMARK    4  A    between atoms: C_4  and  C_6
REMARK    5  A    between atoms: C_7  and  N_8
REMARK    6  A    between atoms: C_9  and  C_11
REMARK    7  A    between atoms: C_26  and  C_27
REMARK    8  A    between atoms: C_28  and  C_29
REMARK    9  A    between atoms: C_29  and  C_30
REMARK                            x       y       z     vdW  Elec       q    Type
REMARK                         _______ _______ _______ _____ _____    ______ ____
ROOT
ATOM      1  N   UNL     1       2.078   8.227  19.410  0.00  0.00    +0.000 N 
ATOM      2  C   UNL     1       2.216   7.115  18.600  0.00  0.00    +0.000 C 
ATOM      3  O   UNL     1       1.493   6.860  17.634  0.00  0.00    +0.000 OA
ATOM      4  H   UNL     1       2.912   8.576  19.869  0.00  0.00    +0.000 HD
ENDROOT
BRANCH   2   5
ATOM      5  C   UNL     1       3.366   6.165  18.997  0.00  0.00    +0.000 C 
ATOM      6  C   UNL     1       4.221   5.863  17.784  0.00  0.00    +0.000 A 
ATOM      7  C   UNL     1       4.890   6.895  17.108  0.00  0.00    +0.000 A 
ATOM      8  C   UNL     1       5.570   6.635  15.919  0.00  0.00    +0.000 A 
ATOM      9  C   UNL     1       5.594   5.344  15.397  0.00  0.00    +0.000 A 
ATOM     10  C   UNL     1       4.976   4.306  16.091  0.00  0.00    +0.000 A 
ATOM     11  C   UNL     1       4.302   4.563  17.286  0.00  0.00    +0.000 A 
ATOM     12  O   UNL     1       3.742   3.476  17.907  0.00  0.00    +0.000 OA
ATOM     13  C   UNL     1       3.142   3.654  19.129  0.00  0.00    +0.000 A 
ATOM     14  C   UNL     1       2.764   2.483  19.792  0.00  0.00    +0.000 A 
ATOM     15  C   UNL     1       2.123   2.554  21.026  0.00  0.00    +0.000 A 
ATOM     16  C   UNL     1       1.856   3.796  21.596  0.00  0.00    +0.000 A 
ATOM     17  C   UNL     1       2.242   4.969  20.939  0.00  0.00    +0.000 A 
ATOM     18  C   UNL     1       2.896   4.908  19.697  0.00  0.00    +0.000 A 
ENDBRANCH   2   5
BRANCH   1  20
ATOM     19  C   UNL     1       0.501  10.145  19.975  0.00  0.00    +0.000 A 
ATOM     20  C   UNL     1       1.060   9.135  19.212  0.00  0.00    +0.000 A 
ATOM     21  S   UNL     1       0.382   9.005  17.666  0.00  0.00    +0.000 S 
ATOM     22  C   UNL     1      -0.812  10.173  18.016  0.00  0.00    +0.000 A 
ATOM     23  C   UNL     1      -1.861  10.472  16.995  0.00  0.00    +0.000 C 
ATOM     24  C   UNL     1      -0.616  10.764  19.258  0.00  0.00    +0.000 A 
BRANCH  19  25
ATOM     25  C   UNL     1       1.033  10.641  21.247  0.00  0.00    +0.000 C 
ATOM     26  O   UNL     1       1.599  11.723  21.371  0.00  0.00    +0.000 OA
BRANCH  25  27
ATOM     27  O   UNL     1       1.037   9.671  22.212  0.00  0.00    +0.000 OA
BRANCH  27  29
ATOM     28  C   UNL     1      -0.990  10.433  23.213  0.00  0.00    +0.000 C 
ATOM     29  C   UNL     1      -0.253   9.231  22.650  0.00  0.00    +0.000 C 
ENDBRANCH  27  29
ENDBRANCH  25  27
ENDBRANCH  19  25
BRANCH  24  30
ATOM     30  C   UNL     1      -1.396  11.961  19.760  0.00  0.00    +0.000 C 
ATOM     31  C   UNL     1      -0.816  13.299  19.332  0.00  0.00    +0.000 C 
ENDBRANCH  24  30
ENDBRANCH   1  20
TORSDOF 6
ENDMDL
MODEL 7
REMARK VINA RESULT:      -7.4      2.040      3.102
REMARK  Name = 
REMARK  9 active torsions:
REMARK  status: ('A' for Active; 'I' for Inactive)
REMARK    1  A    between atoms: C_1  and  C_2
REMARK    2  A    between atoms: C_2  and  O_3
REMARK    3  A    between atoms: O_3  and  C_4
REMARK    4  A    between atoms: C_4  and  C_6
REMARK    5  A    between atoms: C_7  and  N_8
REMARK    6  A    between atoms: C_9  and  C_11
REMARK    7  A    between atoms: C_26  and  C_27
REMARK    8  A    between atoms: C_28  and  C_29
REMARK    9  A    between atoms: C_29  and  C_30
REMARK                            x       y       z     vdW  Elec       q    Type
REMARK                         _______ _______ _______ _____ _____    ______ ____
ROOT
ATOM      1  N   UNL     1       1.811   7.955  18.089  0.00  0.00    +0.000 N 
ATOM      2  C   UNL     1       2.563   7.064  18.829  0.00  0.00    +0.000 C 
ATOM      3  O   UNL     1       3.036   7.304  19.943  0.00  0.00    +0.000 OA
ATOM      4  H   UNL     1       1.135   7.569  17.439  0.00  0.00    +0.000 HD
ENDROOT
BRANCH   2   5
ATOM      5  C   UNL     1       2.800   5.698  18.150  0.00  0.00    +0.000 C 
ATOM      6  C   UNL     1       2.491   4.581  19.124  0.00  0.00    +0.000 A 
ATOM      7  C   UNL     1       1.203   4.440  19.663  0.00  0.00    +0.000 A 
ATOM      8  C   UNL     1       0.954   3.494  20.657  0.00  0.00    +0.000 A 
ATOM      9  C   UNL     1       1.983   2.677  21.117  0.00  0.00    +0.000 A 
ATOM     10  C   UNL     1       3.251   2.777  20.549  0.00  0.00    +0.000 A 
ATOM     11  C   UNL     1       3.501   3.717  19.548  0.00  0.00    +0.000 A 
ATOM     12  O   UNL     1       4.773   3.728  19.037  0.00  0.00    +0.000 OA
ATOM     13  C   UNL     1       5.054   4.571  17.991  0.00  0.00    +0.000 A 
ATOM     14  C   UNL     1       6.305   4.396  17.393  0.00  0.00    +0.000 A 
ATOM     15  C   UNL     1       6.699   5.219  16.341  0.00  0.00    +0.000 A 
ATOM     16  C   UNL     1       5.844   6.220  15.888  0.00  0.00    +0.000 A 
ATOM     17  C   UNL     1       4.586   6.390  16.478  0.00  0.00    +0.000 A 
ATOM     18  C   UNL     1       4.177   5.560  17.535  0.00  0.00    +0.000 A 
ENDBRANCH   2   5
BRANCH   1  20
ATOM     19  C   UNL     1       0.711   9.778  19.485  0.00  0.00    +0.000 A 
ATOM     20  C   UNL     1       1.564   9.233  18.543  0.00  0.00    +0.000 A 
ATOM     21  S   UNL     1       2.572  10.376  17.806  0.00  0.00    +0.000 S 
ATOM     22  C   UNL     1       1.784  11.675  18.584  0.00  0.00    +0.000 A 
ATOM     23  C   UNL     1       2.189  13.075  18.257  0.00  0.00    +0.000 C 
ATOM     24  C   UNL     1       0.844  11.237  19.509  0.00  0.00    +0.000 A 
BRANCH  19  25
ATOM     25  C   UNL     1      -0.099   9.015  20.439  0.00  0.00    +0.000 C 
ATOM     26  O   UNL     1      -1.319   9.120  20.531  0.00  0.00    +0.000 OA
BRANCH  25  27
ATOM     27  O   UNL     1       0.676   8.364  21.359  0.00  0.00    +0.000 OA
BRANCH  27  29
ATOM     28  C   UNL     1       0.088   9.488  23.381  0.00  0.00    +0.000 C 
ATOM     29  C   UNL     1       1.211   9.182  22.405  0.00  0.00    +0.000 C 
ENDBRANCH  27  29
ENDBRANCH  25  27
ENDBRANCH  19  25
BRANCH  24  30
ATOM     30  C   UNL     1       0.126  12.146  20.484  0.00  0.00    +0.000 C 
ATOM     31  C   UNL     1      -1.204  12.674  19.973  0.00  0.00    +0.000 C 
ENDBRANCH  24  30
ENDBRANCH   1  20
TORSDOF 6
ENDMDL
MODEL 8
REMARK VINA RESULT:      -7.2      1.619      3.615
REMARK  Name = 
REMARK  9 active torsions:
REMARK  status: ('A' for Active; 'I' for Inactive)
REMARK    1  A    between atoms: C_1  and  C_2
REMARK    2  A    between atoms: C_2  and  O_3
REMARK    3  A    between atoms: O_3  and  C_4
REMARK    4  A    between atoms: C_4  and  C_6
REMARK    5  A    between atoms: C_7  and  N_8
REMARK    6  A    between atoms: C_9  and  C_11
REMARK    7  A    between atoms: C_26  and  C_27
REMARK    8  A    between atoms: C_28  and  C_29
REMARK    9  A    between atoms: C_29  and  C_30
REMARK                            x       y       z     vdW  Elec       q    Type
REMARK                         _______ _______ _______ _____ _____    ______ ____
ROOT
ATOM      1  N   UNL     1       2.345   7.938  20.390  0.00  0.00    +0.000 N 
ATOM      2  C   UNL     1       2.287   6.998  19.378  0.00  0.00    +0.000 C 
ATOM      3  O   UNL     1       1.461   7.007  18.462  0.00  0.00    +0.000 OA
ATOM      4  H   UNL     1       3.249   8.109  20.816  0.00  0.00    +0.000 HD
ENDROOT
BRANCH   2   5
ATOM      5  C   UNL     1       3.352   5.883  19.470  0.00  0.00    +0.000 C 
ATOM      6  C   UNL     1       4.096   5.777  18.156  0.00  0.00    +0.000 A 
ATOM      7  C   UNL     1       4.829   6.866  17.660  0.00  0.00    +0.000 A 
ATOM      8  C   UNL     1       5.405   6.811  16.392  0.00  0.00    +0.000 A 
ATOM      9  C   UNL     1       5.260   5.669  15.609  0.00  0.00    +0.000 A 
ATOM     10  C   UNL     1       4.577   4.565  16.116  0.00  0.00    +0.000 A 
ATOM     11  C   UNL     1       4.008   4.615  17.389  0.00  0.00    +0.000 A 
ATOM     12  O   UNL     1       3.373   3.475  17.810  0.00  0.00    +0.000 OA
ATOM     13  C   UNL     1       2.869   3.435  19.086  0.00  0.00    +0.000 A 
ATOM     14  C   UNL     1       2.409   2.187  19.515  0.00  0.00    +0.000 A 
ATOM     15  C   UNL     1       1.854   2.045  20.785  0.00  0.00    +0.000 A 
ATOM     16  C   UNL     1       1.755   3.151  21.624  0.00  0.00    +0.000 A 
ATOM     17  C   UNL     1       2.225   4.400  21.200  0.00  0.00    +0.000 A 
ATOM     18  C   UNL     1       2.793   4.552  19.924  0.00  0.00    +0.000 A 
ENDBRANCH   2   5
BRANCH   1  20
ATOM     19  C   UNL     1       1.093  10.031  19.659  0.00  0.00    +0.000 A 
ATOM     20  C   UNL     1       1.424   8.960  20.470  0.00  0.00    +0.000 A 
ATOM     21  S   UNL     1       0.457   8.840  21.854  0.00  0.00    +0.000 S 
ATOM     22  C   UNL     1      -0.326  10.319  21.521  0.00  0.00    +0.000 A 
ATOM     23  C   UNL     1      -1.318  10.856  22.500  0.00  0.00    +0.000 C 
ATOM     24  C   UNL     1       0.046  10.841  20.288  0.00  0.00    +0.000 A 
BRANCH  19  25
ATOM     25  C   UNL     1       1.590  10.251  18.298  0.00  0.00    +0.000 C 
ATOM     26  O   UNL     1       1.251   9.574  17.332  0.00  0.00    +0.000 OA
BRANCH  25  27
ATOM     27  O   UNL     1       2.639  11.130  18.275  0.00  0.00    +0.000 OA
BRANCH  27  29
ATOM     28  C   UNL     1       2.777  13.424  18.918  0.00  0.00    +0.000 C 
ATOM     29  C   UNL     1       2.323  12.456  17.839  0.00  0.00    +0.000 C 
ENDBRANCH  27  29
ENDBRANCH  25  27
ENDBRANCH  19  25
BRANCH  24  30
ATOM     30  C   UNL     1      -0.618  12.036  19.637  0.00  0.00    +0.000 C 
ATOM     31  C   UNL     1      -1.834  11.684  18.795  0.00  0.00    +0.000 C 
ENDBRANCH  24  30
ENDBRANCH   1  20
TORSDOF 6
ENDMDL
MODEL 9
REMARK VINA RESULT:      -7.2      2.993      8.573
REMARK  Name = 
REMARK  9 active torsions:
REMARK  status: ('A' for Active; 'I' for Inactive)
REMARK    1  A    between atoms: C_1  and  C_2
REMARK    2  A    between atoms: C_2  and  O_3
REMARK    3  A    between atoms: O_3  and  C_4
REMARK    4  A    between atoms: C_4  and  C_6
REMARK    5  A    between atoms: C_7  and  N_8
REMARK    6  A    between atoms: C_9  and  C_11
REMARK    7  A    between atoms: C_26  and  C_27
REMARK    8  A    between atoms: C_28  and  C_29
REMARK    9  A    between atoms: C_29  and  C_30
REMARK                            x       y       z     vdW  Elec       q    Type
REMARK                         _______ _______ _______ _____ _____    ______ ____
ROOT
ATOM      1  N   UNL     1       0.987  10.561  19.364  0.00  0.00    +0.000 N 
ATOM      2  C   UNL     1      -0.153  10.897  18.658  0.00  0.00    +0.000 C 
ATOM      3  O   UNL     1      -0.876  10.088  18.072  0.00  0.00    +0.000 OA
ATOM      4  H   UNL     1       1.258  11.168  20.130  0.00  0.00    +0.000 HD
ENDROOT
BRANCH   2   5
ATOM      5  C   UNL     1      -0.476  12.407  18.633  0.00  0.00    +0.000 C 
ATOM      6  C   UNL     1       0.788  13.204  18.877  0.00  0.00    +0.000 A 
ATOM      7  C   UNL     1       1.876  13.105  17.996  0.00  0.00    +0.000 A 
ATOM      8  C   UNL     1       3.083  13.737  18.291  0.00  0.00    +0.000 A 
ATOM      9  C   UNL     1       3.215  14.478  19.463  0.00  0.00    +0.000 A 
ATOM     10  C   UNL     1       2.122  14.623  20.316  0.00  0.00    +0.000 A 
ATOM     11  C   UNL     1       0.910  13.998  20.018  0.00  0.00    +0.000 A 
ATOM     12  O   UNL     1      -0.112  14.214  20.905  0.00  0.00    +0.000 OA
ATOM     13  C   UNL     1      -1.351  13.696  20.619  0.00  0.00    +0.000 A 
ATOM     14  C   UNL     1      -2.388  14.112  21.460  0.00  0.00    +0.000 A 
ATOM     15  C   UNL     1      -3.679  13.624  21.273  0.00  0.00    +0.000 A 
ATOM     16  C   UNL     1      -3.933  12.717  20.247  0.00  0.00    +0.000 A 
ATOM     17  C   UNL     1      -2.899  12.308  19.398  0.00  0.00    +0.000 A 
ATOM     18  C   UNL     1      -1.595  12.800  19.575  0.00  0.00    +0.000 A 
ENDBRANCH   2   5
BRANCH   1  20
ATOM     19  C   UNL     1       1.319   8.240  20.357  0.00  0.00    +0.000 A 
ATOM     20  C   UNL     1       1.432   9.258  19.427  0.00  0.00    +0.000 A 
ATOM     21  S   UNL     1       2.259   8.799  18.023  0.00  0.00    +0.000 S 
ATOM     22  C   UNL     1       2.662   7.274  18.676  0.00  0.00    +0.000 A 
ATOM     23  C   UNL     1       3.533   6.350  17.889  0.00  0.00    +0.000 C 
ATOM     24  C   UNL     1       2.054   7.055  19.907  0.00  0.00    +0.000 A 
BRANCH  19  25
ATOM     25  C   UNL     1       0.466   8.269  21.549  0.00  0.00    +0.000 C 
ATOM     26  O   UNL     1      -0.617   7.696  21.623  0.00  0.00    +0.000 OA
BRANCH  25  27
ATOM     27  O   UNL     1       0.899   9.191  22.463  0.00  0.00    +0.000 OA
BRANCH  27  29
ATOM     28  C   UNL     1      -0.765  10.865  22.816  0.00  0.00    +0.000 C 
ATOM     29  C   UNL     1      -0.086   9.639  23.401  0.00  0.00    +0.000 C 
ENDBRANCH  27  29
ENDBRANCH  25  27
ENDBRANCH  19  25
BRANCH  24  30
ATOM     30  C   UNL     1       2.068   5.729  20.636  0.00  0.00    +0.000 C 
ATOM     31  C   UNL     1       1.061   4.722  20.106  0.00  0.00    +0.000 C 
ENDBRANCH  24  30
ENDBRANCH   1  20
TORSDOF 6
ENDMDL
