MODEL 1
REMARK VINA RESULT:      -6.3      0.000      0.000
REMARK  Name = 
REMARK  7 active torsions:
REMARK  status: ('A' for Active; 'I' for Inactive)
REMARK    1  A    between atoms: C_1  and  C_2
REMARK    2  A    between atoms: C_4  and  C_5
REMARK    3  A    between atoms: C_5  and  N_6
REMARK    4  A    between atoms: C_14  and  C_15
REMARK    5  A    between atoms: C_15  and  O_16
REMARK    6  A    between atoms: O_16  and  C_17
REMARK    7  A    between atoms: C_17  and  C_18
REMARK                            x       y       z     vdW  Elec       q    Type
REMARK                         _______ _______ _______ _____ _____    ______ ____
ROOT
ATOM      1  N   UNL     1       1.482   7.300  20.428  0.00  0.00    +0.000 NA
ATOM      2  C   UNL     1       2.423   7.511  19.327  0.00  0.00    +0.000 C 
ATOM      3  C   UNL     1       3.612   6.549  19.251  0.00  0.00    +0.000 C 
ATOM      4  C   UNL     1       3.208   5.060  19.382  0.00  0.00    +0.000 C 
ATOM      5  C   UNL     1       2.307   4.917  20.627  0.00  0.00    +0.000 C 
ATOM      6  C   UNL     1       1.131   5.894  20.615  0.00  0.00    +0.000 C 
ATOM      7  C   UNL     1       4.462   4.177  19.516  0.00  0.00    +0.000 C 
ATOM      8  O   UNL     1       4.408   3.172  18.497  0.00  0.00    +0.000 OA
ATOM      9  C   UNL     1       3.592   3.659  17.425  0.00  0.00    +0.000 C 
ATOM     10  C   UNL     1       2.528   4.508  18.114  0.00  0.00    +0.000 C 
ENDROOT
BRANCH   1  11
ATOM     11  C   UNL     1       1.803   8.022  21.674  0.00  0.00    +0.000 C 
BRANCH  11  15
ATOM     12  C   UNL     1      -1.329  11.986  21.200  0.00  0.00    +0.000 C 
ATOM     13  C   UNL     1      -0.605  10.780  21.639  0.00  0.00    +0.000 A 
ATOM     14  C   UNL     1      -0.151   9.654  20.999  0.00  0.00    +0.000 A 
ATOM     15  C   UNL     1       0.757   9.077  21.927  0.00  0.00    +0.000 A 
ATOM     16  N   UNL     1       0.674   9.686  23.119  0.00  0.00    +0.000 NA
ATOM     17  O   UNL     1      -0.178  10.762  22.930  0.00  0.00    +0.000 OA
ENDBRANCH  11  15
ENDBRANCH   1  11
BRANCH   9  18
ATOM     18  C   UNL     1       4.425   4.446  16.398  0.00  0.00    +0.000 C 
BRANCH  18  19
ATOM     19  O   UNL     1       5.757   3.933  16.372  0.00  0.00    +0.000 OA
BRANCH  19  20
ATOM     20  C   UNL     1       6.714   4.966  16.179  0.00  0.00    +0.000 C 
BRANCH  20  21
ATOM     21  C   UNL     1       6.562   5.959  17.285  0.00  0.00    +0.000 C 
ATOM     22  C   UNL     1       7.576   6.025  18.399  0.00  0.00    +0.000 C 
ATOM     23  C   UNL     1       7.499   7.136  17.391  0.00  0.00    +0.000 C 
ENDBRANCH  20  21
ENDBRANCH  19  20
ENDBRANCH  18  19
ENDBRANCH   9  18
TORSDOF 6
ENDMDL
MODEL 2
REMARK VINA RESULT:      -6.1      4.239      6.676
REMARK  Name = 
REMARK  7 active torsions:
REMARK  status: ('A' for Active; 'I' for Inactive)
REMARK    1  A    between atoms: C_1  and  C_2
REMARK    2  A    between atoms: C_4  and  C_5
REMARK    3  A    between atoms: C_5  and  N_6
REMARK    4  A    between atoms: C_14  and  C_15
REMARK    5  A    between atoms: C_15  and  O_16
REMARK    6  A    between atoms: O_16  and  C_17
REMARK    7  A    between atoms: C_17  and  C_18
REMARK                            x       y       z     vdW  Elec       q    Type
REMARK                         _______ _______ _______ _____ _____    ______ ____
ROOT
ATOM      1  N   UNL     1       6.871   7.225  18.164  0.00  0.00    +0.000 NA
ATOM      2  C   UNL     1       5.488   7.226  17.683  0.00  0.00    +0.000 C 
ATOM      3  C   UNL     1       5.088   6.077  16.753  0.00  0.00    +0.000 C 
ATOM      4  C   UNL     1       5.510   4.684  17.279  0.00  0.00    +0.000 C 
ATOM      5  C   UNL     1       7.005   4.750  17.659  0.00  0.00    +0.000 C 
ATOM      6  C   UNL     1       7.318   5.906  18.609  0.00  0.00    +0.000 C 
ATOM      7  C   UNL     1       5.273   3.612  16.199  0.00  0.00    +0.000 C 
ATOM      8  O   UNL     1       4.454   2.583  16.767  0.00  0.00    +0.000 OA
ATOM      9  C   UNL     1       3.705   3.150  17.850  0.00  0.00    +0.000 C 
ATOM     10  C   UNL     1       4.640   4.194  18.452  0.00  0.00    +0.000 C 
ENDROOT
BRANCH   1  11
ATOM     11  C   UNL     1       7.833   7.940  17.305  0.00  0.00    +0.000 C 
BRANCH  11  15
ATOM     12  C   UNL     1       9.825  12.485  18.367  0.00  0.00    +0.000 C 
ATOM     13  C   UNL     1       9.162  11.169  18.407  0.00  0.00    +0.000 A 
ATOM     14  C   UNL     1       8.278  10.521  17.580  0.00  0.00    +0.000 A 
ATOM     15  C   UNL     1       8.326   9.171  18.020  0.00  0.00    +0.000 A 
ATOM     16  N   UNL     1       9.008   9.068  19.171  0.00  0.00    +0.000 NA
ATOM     17  O   UNL     1       9.538  10.326  19.406  0.00  0.00    +0.000 OA
ENDBRANCH  11  15
ENDBRANCH   1  11
BRANCH   9  18
ATOM     18  C   UNL     1       2.370   3.738  17.362  0.00  0.00    +0.000 C 
BRANCH  18  19
ATOM     19  O   UNL     1       1.587   4.142  18.485  0.00  0.00    +0.000 OA
BRANCH  19  20
ATOM     20  C   UNL     1       1.066   3.024  19.191  0.00  0.00    +0.000 C 
BRANCH  20  21
ATOM     21  C   UNL     1       1.057   3.351  20.649  0.00  0.00    +0.000 C 
ATOM     22  C   UNL     1       2.079   2.739  21.575  0.00  0.00    +0.000 C 
ATOM     23  C   UNL     1       2.147   4.204  21.248  0.00  0.00    +0.000 C 
ENDBRANCH  20  21
ENDBRANCH  19  20
ENDBRANCH  18  19
ENDBRANCH   9  18
TORSDOF 6
ENDMDL
MODEL 3
REMARK VINA RESULT:      -6.1      2.572      3.426
REMARK  Name = 
REMARK  7 active torsions:
REMARK  status: ('A' for Active; 'I' for Inactive)
REMARK    1  A    between atoms: C_1  and  C_2
REMARK    2  A    between atoms: C_4  and  C_5
REMARK    3  A    between atoms: C_5  and  N_6
REMARK    4  A    between atoms: C_14  and  C_15
REMARK    5  A    between atoms: C_15  and  O_16
REMARK    6  A    between atoms: O_16  and  C_17
REMARK    7  A    between atoms: C_17  and  C_18
REMARK                            x       y       z     vdW  Elec       q    Type
REMARK                         _______ _______ _______ _____ _____    ______ ____
ROOT
ATOM      1  N   UNL     1       2.063   7.305  18.721  0.00  0.00    +0.000 NA
ATOM      2  C   UNL     1       2.822   7.558  17.495  0.00  0.00    +0.000 C 
ATOM      3  C   UNL     1       4.303   7.171  17.517  0.00  0.00    +0.000 C 
ATOM      4  C   UNL     1       4.560   5.747  18.066  0.00  0.00    +0.000 C 
ATOM      5  C   UNL     1       3.810   5.610  19.409  0.00  0.00    +0.000 C 
ATOM      6  C   UNL     1       2.334   5.989  19.297  0.00  0.00    +0.000 C 
ATOM      7  C   UNL     1       6.069   5.514  18.262  0.00  0.00    +0.000 C 
ATOM      8  O   UNL     1       6.433   4.330  17.543  0.00  0.00    +0.000 OA
ATOM      9  C   UNL     1       5.479   4.130  16.492  0.00  0.00    +0.000 C 
ATOM     10  C   UNL     1       4.164   4.638  17.071  0.00  0.00    +0.000 C 
ENDROOT
BRANCH   1  11
ATOM     11  C   UNL     1       2.062   8.412  19.697  0.00  0.00    +0.000 C 
BRANCH  11  15
ATOM     12  C   UNL     1      -1.219  12.019  18.292  0.00  0.00    +0.000 C 
ATOM     13  C   UNL     1      -0.560  10.816  18.831  0.00  0.00    +0.000 A 
ATOM     14  C   UNL     1       0.410   9.967  18.359  0.00  0.00    +0.000 A 
ATOM     15  C   UNL     1       0.820   9.243  19.511  0.00  0.00    +0.000 A 
ATOM     16  N   UNL     1      -0.007   9.479  20.542  0.00  0.00    +0.000 NA
ATOM     17  O   UNL     1      -0.868  10.474  20.111  0.00  0.00    +0.000 OA
ENDBRANCH  11  15
ENDBRANCH   1  11
BRANCH   9  18
ATOM     18  C   UNL     1       5.900   4.862  15.205  0.00  0.00    +0.000 C 
BRANCH  18  19
ATOM     19  O   UNL     1       6.713   3.999  14.410  0.00  0.00    +0.000 OA
BRANCH  19  20
ATOM     20  C   UNL     1       6.411   4.120  13.027  0.00  0.00    +0.000 C 
BRANCH  20  21
ATOM     21  C   UNL     1       5.348   3.125  12.689  0.00  0.00    +0.000 C 
ATOM     22  C   UNL     1       4.476   3.322  11.474  0.00  0.00    +0.000 C 
ATOM     23  C   UNL     1       5.498   2.221  11.491  0.00  0.00    +0.000 C 
ENDBRANCH  20  21
ENDBRANCH  19  20
ENDBRANCH  18  19
ENDBRANCH   9  18
TORSDOF 6
ENDMDL
MODEL 4
REMARK VINA RESULT:      -6.1      2.380      3.350
REMARK  Name = 
REMARK  7 active torsions:
REMARK  status: ('A' for Active; 'I' for Inactive)
REMARK    1  A    between atoms: C_1  and  C_2
REMARK    2  A    between atoms: C_4  and  C_5
REMARK    3  A    between atoms: C_5  and  N_6
REMARK    4  A    between atoms: C_14  and  C_15
REMARK    5  A    between atoms: C_15  and  O_16
REMARK    6  A    between atoms: O_16  and  C_17
REMARK    7  A    between atoms: C_17  and  C_18
REMARK                            x       y       z     vdW  Elec       q    Type
REMARK                         _______ _______ _______ _____ _____    ______ ____
ROOT
ATOM      1  N   UNL     1       2.266   6.198  19.384  0.00  0.00    +0.000 NA
ATOM      2  C   UNL     1       2.812   6.875  18.207  0.00  0.00    +0.000 C 
ATOM      3  C   UNL     1       4.317   6.721  17.968  0.00  0.00    +0.000 C 
ATOM      4  C   UNL     1       4.808   5.256  18.066  0.00  0.00    +0.000 C 
ATOM      5  C   UNL     1       4.274   4.660  19.386  0.00  0.00    +0.000 C 
ATOM      6  C   UNL     1       2.762   4.832  19.537  0.00  0.00    +0.000 C 
ATOM      7  C   UNL     1       6.347   5.206  18.033  0.00  0.00    +0.000 C 
ATOM      8  O   UNL     1       6.740   4.322  16.977  0.00  0.00    +0.000 OA
ATOM      9  C   UNL     1       5.679   4.267  16.015  0.00  0.00    +0.000 C 
ATOM     10  C   UNL     1       4.407   4.404  16.846  0.00  0.00    +0.000 C 
ENDROOT
BRANCH   1  11
ATOM     11  C   UNL     1       2.274   6.994  20.626  0.00  0.00    +0.000 C 
BRANCH  11  15
ATOM     12  C   UNL     1       0.000  11.477  19.929  0.00  0.00    +0.000 C 
ATOM     13  C   UNL     1       0.323  10.058  20.162  0.00  0.00    +0.000 A 
ATOM     14  C   UNL     1       1.217   9.179  19.603  0.00  0.00    +0.000 A 
ATOM     15  C   UNL     1       1.252   8.097  20.522  0.00  0.00    +0.000 A 
ATOM     16  N   UNL     1       0.279   8.217  21.438  0.00  0.00    +0.000 NA
ATOM     17  O   UNL     1      -0.297   9.456  21.212  0.00  0.00    +0.000 OA
ENDBRANCH  11  15
ENDBRANCH   1  11
BRANCH   9  18
ATOM     18  C   UNL     1       5.830   5.368  14.950  0.00  0.00    +0.000 C 
BRANCH  18  19
ATOM     19  O   UNL     1       6.549   4.851  13.830  0.00  0.00    +0.000 OA
BRANCH  19  20
ATOM     20  C   UNL     1       6.184   3.508  13.545  0.00  0.00    +0.000 C 
BRANCH  20  21
ATOM     21  C   UNL     1       5.866   3.407  12.089  0.00  0.00    +0.000 C 
ATOM     22  C   UNL     1       5.450   2.087  11.487  0.00  0.00    +0.000 C 
ATOM     23  C   UNL     1       4.446   3.196  11.628  0.00  0.00    +0.000 C 
ENDBRANCH  20  21
ENDBRANCH  19  20
ENDBRANCH  18  19
ENDBRANCH   9  18
TORSDOF 6
ENDMDL
MODEL 5
REMARK VINA RESULT:      -6.0      3.238      8.174
REMARK  Name = 
REMARK  7 active torsions:
REMARK  status: ('A' for Active; 'I' for Inactive)
REMARK    1  A    between atoms: C_1  and  C_2
REMARK    2  A    between atoms: C_4  and  C_5
REMARK    3  A    between atoms: C_5  and  N_6
REMARK    4  A    between atoms: C_14  and  C_15
REMARK    5  A    between atoms: C_15  and  O_16
REMARK    6  A    between atoms: O_16  and  C_17
REMARK    7  A    between atoms: C_17  and  C_18
REMARK                            x       y       z     vdW  Elec       q    Type
REMARK                         _______ _______ _______ _____ _____    ______ ____
ROOT
ATOM      1  N   UNL     1       6.849   5.646  17.797  0.00  0.00    +0.000 NA
ATOM      2  C   UNL     1       6.006   6.542  17.004  0.00  0.00    +0.000 C 
ATOM      3  C   UNL     1       4.525   6.171  16.899  0.00  0.00    +0.000 C 
ATOM      4  C   UNL     1       3.876   5.834  18.263  0.00  0.00    +0.000 C 
ATOM      5  C   UNL     1       4.778   4.805  18.979  0.00  0.00    +0.000 C 
ATOM      6  C   UNL     1       6.234   5.261  19.066  0.00  0.00    +0.000 C 
ATOM      7  C   UNL     1       2.461   5.263  18.056  0.00  0.00    +0.000 C 
ATOM      8  O   UNL     1       1.548   6.048  18.831  0.00  0.00    +0.000 OA
ATOM      9  C   UNL     1       2.125   7.344  19.032  0.00  0.00    +0.000 C 
ATOM     10  C   UNL     1       3.624   7.080  19.133  0.00  0.00    +0.000 C 
ENDROOT
BRANCH   1  11
ATOM     11  C   UNL     1       7.457   4.531  17.048  0.00  0.00    +0.000 C 
BRANCH  11  15
ATOM     12  C   UNL     1       6.037   3.422  12.304  0.00  0.00    +0.000 C 
ATOM     13  C   UNL     1       6.404   4.081  13.570  0.00  0.00    +0.000 A 
ATOM     14  C   UNL     1       6.115   3.840  14.890  0.00  0.00    +0.000 A 
ATOM     15  C   UNL     1       7.063   4.627  15.597  0.00  0.00    +0.000 A 
ATOM     16  N   UNL     1       7.714   5.452  14.764  0.00  0.00    +0.000 NA
ATOM     17  O   UNL     1       7.302   5.100  13.490  0.00  0.00    +0.000 OA
ENDBRANCH  11  15
ENDBRANCH   1  11
BRANCH   9  18
ATOM     18  C   UNL     1       1.754   8.308  17.890  0.00  0.00    +0.000 C 
BRANCH  18  19
ATOM     19  O   UNL     1       1.734   9.647  18.384  0.00  0.00    +0.000 OA
BRANCH  19  20
ATOM     20  C   UNL     1       0.578   9.899  19.172  0.00  0.00    +0.000 C 
BRANCH  20  21
ATOM     21  C   UNL     1      -0.399  10.664  18.340  0.00  0.00    +0.000 C 
ATOM     22  C   UNL     1      -1.723  10.049  17.957  0.00  0.00    +0.000 C 
ATOM     23  C   UNL     1      -1.681  11.180  18.945  0.00  0.00    +0.000 C 
ENDBRANCH  20  21
ENDBRANCH  19  20
ENDBRANCH  18  19
ENDBRANCH   9  18
TORSDOF 6
ENDMDL
MODEL 6
REMARK VINA RESULT:      -6.0      3.132      7.923
REMARK  Name = 
REMARK  7 active torsions:
REMARK  status: ('A' for Active; 'I' for Inactive)
REMARK    1  A    between atoms: C_1  and  C_2
REMARK    2  A    between atoms: C_4  and  C_5
REMARK    3  A    between atoms: C_5  and  N_6
REMARK    4  A    between atoms: C_14  and  C_15
REMARK    5  A    between atoms: C_15  and  O_16
REMARK    6  A    between atoms: O_16  and  C_17
REMARK    7  A    between atoms: C_17  and  C_18
REMARK                            x       y       z     vdW  Elec       q    Type
REMARK                         _______ _______ _______ _____ _____    ______ ____
ROOT
ATOM      1  N   UNL     1       5.292   4.217  17.493  0.00  0.00    +0.000 NA
ATOM      2  C   UNL     1       4.320   5.311  17.474  0.00  0.00    +0.000 C 
ATOM      3  C   UNL     1       2.874   4.946  17.819  0.00  0.00    +0.000 C 
ATOM      4  C   UNL     1       2.745   4.088  19.102  0.00  0.00    +0.000 C 
ATOM      5  C   UNL     1       3.727   2.903  18.984  0.00  0.00    +0.000 C 
ATOM      6  C   UNL     1       5.153   3.352  18.664  0.00  0.00    +0.000 C 
ATOM      7  C   UNL     1       1.300   3.581  19.261  0.00  0.00    +0.000 C 
ATOM      8  O   UNL     1       0.832   3.973  20.557  0.00  0.00    +0.000 OA
ATOM      9  C   UNL     1       1.583   5.118  20.980  0.00  0.00    +0.000 C 
ATOM     10  C   UNL     1       2.973   4.898  20.393  0.00  0.00    +0.000 C 
ENDROOT
BRANCH   1  11
ATOM     11  C   UNL     1       5.451   3.497  16.216  0.00  0.00    +0.000 C 
BRANCH  11  15
ATOM     12  C   UNL     1       7.826   5.261  12.093  0.00  0.00    +0.000 C 
ATOM     13  C   UNL     1       7.211   5.074  13.419  0.00  0.00    +0.000 A 
ATOM     14  C   UNL     1       6.039   4.509  13.857  0.00  0.00    +0.000 A 
ATOM     15  C   UNL     1       6.238   4.349  15.254  0.00  0.00    +0.000 A 
ATOM     16  N   UNL     1       7.350   4.984  15.654  0.00  0.00    +0.000 NA
ATOM     17  O   UNL     1       7.963   5.432  14.495  0.00  0.00    +0.000 OA
ENDBRANCH  11  15
ENDBRANCH   1  11
BRANCH   9  18
ATOM     18  C   UNL     1       0.924   6.426  20.509  0.00  0.00    +0.000 C 
BRANCH  18  19
ATOM     19  O   UNL     1       1.934   7.393  20.223  0.00  0.00    +0.000 OA
BRANCH  19  20
ATOM     20  C   UNL     1       1.478   8.717  20.462  0.00  0.00    +0.000 C 
BRANCH  20  21
ATOM     21  C   UNL     1       0.377   8.659  21.471  0.00  0.00    +0.000 C 
ATOM     22  C   UNL     1       0.521   9.360  22.799  0.00  0.00    +0.000 C 
ATOM     23  C   UNL     1      -0.446   9.885  21.776  0.00  0.00    +0.000 C 
ENDBRANCH  20  21
ENDBRANCH  19  20
ENDBRANCH  18  19
ENDBRANCH   9  18
TORSDOF 6
ENDMDL
MODEL 7
REMARK VINA RESULT:      -6.0      2.298      4.061
REMARK  Name = 
REMARK  7 active torsions:
REMARK  status: ('A' for Active; 'I' for Inactive)
REMARK    1  A    between atoms: C_1  and  C_2
REMARK    2  A    between atoms: C_4  and  C_5
REMARK    3  A    between atoms: C_5  and  N_6
REMARK    4  A    between atoms: C_14  and  C_15
REMARK    5  A    between atoms: C_15  and  O_16
REMARK    6  A    between atoms: O_16  and  C_17
REMARK    7  A    between atoms: C_17  and  C_18
REMARK                            x       y       z     vdW  Elec       q    Type
REMARK                         _______ _______ _______ _____ _____    ______ ____
ROOT
ATOM      1  N   UNL     1       2.521   8.365  18.396  0.00  0.00    +0.000 NA
ATOM      2  C   UNL     1       2.204   7.145  19.141  0.00  0.00    +0.000 C 
ATOM      3  C   UNL     1       2.434   5.820  18.410  0.00  0.00    +0.000 C 
ATOM      4  C   UNL     1       3.819   5.727  17.724  0.00  0.00    +0.000 C 
ATOM      5  C   UNL     1       4.019   7.004  16.879  0.00  0.00    +0.000 C 
ATOM      6  C   UNL     1       3.796   8.283  17.686  0.00  0.00    +0.000 C 
ATOM      7  C   UNL     1       3.891   4.472  16.835  0.00  0.00    +0.000 C 
ATOM      8  O   UNL     1       5.038   3.712  17.233  0.00  0.00    +0.000 OA
ATOM      9  C   UNL     1       5.347   4.040  18.594  0.00  0.00    +0.000 C 
ATOM     10  C   UNL     1       4.972   5.513  18.723  0.00  0.00    +0.000 C 
ENDROOT
BRANCH   1  11
ATOM     11  C   UNL     1       1.411   8.919  17.599  0.00  0.00    +0.000 C 
BRANCH  11  15
ATOM     12  C   UNL     1      -1.995  12.310  19.226  0.00  0.00    +0.000 C 
ATOM     13  C   UNL     1      -0.938  11.291  19.103  0.00  0.00    +0.000 A 
ATOM     14  C   UNL     1      -0.791  10.156  18.346  0.00  0.00    +0.000 A 
ATOM     15  C   UNL     1       0.591   9.848  18.457  0.00  0.00    +0.000 A 
ATOM     16  N   UNL     1       1.175  10.606  19.397  0.00  0.00    +0.000 NA
ATOM     17  O   UNL     1       0.211  11.517  19.795  0.00  0.00    +0.000 OA
ENDBRANCH  11  15
ENDBRANCH   1  11
BRANCH   9  18
ATOM     18  C   UNL     1       4.588   3.131  19.576  0.00  0.00    +0.000 C 
BRANCH  18  19
ATOM     19  O   UNL     1       3.864   2.140  18.847  0.00  0.00    +0.000 OA
BRANCH  19  20
ATOM     20  C   UNL     1       2.527   2.018  19.312  0.00  0.00    +0.000 C 
BRANCH  20  21
ATOM     21  C   UNL     1       2.351   2.933  20.480  0.00  0.00    +0.000 C 
ATOM     22  C   UNL     1       1.033   3.631  20.712  0.00  0.00    +0.000 C 
ATOM     23  C   UNL     1       1.473   2.534  21.640  0.00  0.00    +0.000 C 
ENDBRANCH  20  21
ENDBRANCH  19  20
ENDBRANCH  18  19
ENDBRANCH   9  18
TORSDOF 6
ENDMDL
MODEL 8
REMARK VINA RESULT:      -6.0      2.955      7.796
REMARK  Name = 
REMARK  7 active torsions:
REMARK  status: ('A' for Active; 'I' for Inactive)
REMARK    1  A    between atoms: C_1  and  C_2
REMARK    2  A    between atoms: C_4  and  C_5
REMARK    3  A    between atoms: C_5  and  N_6
REMARK    4  A    between atoms: C_14  and  C_15
REMARK    5  A    between atoms: C_15  and  O_16
REMARK    6  A    between atoms: O_16  and  C_17
REMARK    7  A    between atoms: C_17  and  C_18
REMARK                            x       y       z     vdW  Elec       q    Type
REMARK                         _______ _______ _______ _____ _____    ______ ____
ROOT
ATOM      1  N   UNL     1       6.967   5.343  18.262  0.00  0.00    +0.000 NA
ATOM      2  C   UNL     1       6.193   6.415  17.634  0.00  0.00    +0.000 C 
ATOM      3  C   UNL     1       4.757   6.071  17.228  0.00  0.00    +0.000 C 
ATOM      4  C   UNL     1       3.953   5.364  18.346  0.00  0.00    +0.000 C 
ATOM      5  C   UNL     1       4.802   4.186  18.872  0.00  0.00    +0.000 C 
ATOM      6  C   UNL     1       6.211   4.616  19.280  0.00  0.00    +0.000 C 
ATOM      7  C   UNL     1       2.606   4.858  17.797  0.00  0.00    +0.000 C 
ATOM      8  O   UNL     1       1.563   5.389  18.623  0.00  0.00    +0.000 OA
ATOM      9  C   UNL     1       2.047   6.585  19.247  0.00  0.00    +0.000 C 
ATOM     10  C   UNL     1       3.530   6.319  19.479  0.00  0.00    +0.000 C 
ENDROOT
BRANCH   1  11
ATOM     11  C   UNL     1       7.720   4.485  17.328  0.00  0.00    +0.000 C 
BRANCH  11  15
ATOM     12  C   UNL     1       5.803   3.515  12.731  0.00  0.00    +0.000 C 
ATOM     13  C   UNL     1       6.279   4.135  13.981  0.00  0.00    +0.000 A 
ATOM     14  C   UNL     1       6.170   3.808  15.309  0.00  0.00    +0.000 A 
ATOM     15  C   UNL     1       7.146   4.624  15.943  0.00  0.00    +0.000 A 
ATOM     16  N   UNL     1       7.634   5.535  15.087  0.00  0.00    +0.000 NA
ATOM     17  O   UNL     1       7.093   5.218  13.853  0.00  0.00    +0.000 OA
ENDBRANCH  11  15
ENDBRANCH   1  11
BRANCH   9  18
ATOM     18  C   UNL     1       1.781   7.822  18.372  0.00  0.00    +0.000 C 
BRANCH  18  19
ATOM     19  O   UNL     1       1.899   9.003  19.166  0.00  0.00    +0.000 OA
BRANCH  19  20
ATOM     20  C   UNL     1       0.649   9.661  19.319  0.00  0.00    +0.000 C 
BRANCH  20  21
ATOM     21  C   UNL     1       0.358   9.782  20.780  0.00  0.00    +0.000 C 
ATOM     22  C   UNL     1      -0.186   8.605  21.551  0.00  0.00    +0.000 C 
ATOM     23  C   UNL     1       1.221   9.073  21.793  0.00  0.00    +0.000 C 
ENDBRANCH  20  21
ENDBRANCH  19  20
ENDBRANCH  18  19
ENDBRANCH   9  18
TORSDOF 6
ENDMDL
MODEL 9
REMARK VINA RESULT:      -6.0      3.206      5.183
REMARK  Name = 
REMARK  7 active torsions:
REMARK  status: ('A' for Active; 'I' for Inactive)
REMARK    1  A    between atoms: C_1  and  C_2
REMARK    2  A    between atoms: C_4  and  C_5
REMARK    3  A    between atoms: C_5  and  N_6
REMARK    4  A    between atoms: C_14  and  C_15
REMARK    5  A    between atoms: C_15  and  O_16
REMARK    6  A    between atoms: O_16  and  C_17
REMARK    7  A    between atoms: C_17  and  C_18
REMARK                            x       y       z     vdW  Elec       q    Type
REMARK                         _______ _______ _______ _____ _____    ______ ____
ROOT
ATOM      1  N   UNL     1       3.465   1.951  18.870  0.00  0.00    +0.000 NA
ATOM      2  C   UNL     1       3.423   2.173  17.424  0.00  0.00    +0.000 C 
ATOM      3  C   UNL     1       3.444   3.630  16.955  0.00  0.00    +0.000 C 
ATOM      4  C   UNL     1       4.548   4.479  17.633  0.00  0.00    +0.000 C 
ATOM      5  C   UNL     1       4.445   4.265  19.159  0.00  0.00    +0.000 C 
ATOM      6  C   UNL     1       4.456   2.786  19.545  0.00  0.00    +0.000 C 
ATOM      7  C   UNL     1       4.369   5.967  17.281  0.00  0.00    +0.000 C 
ATOM      8  O   UNL     1       5.600   6.443  16.725  0.00  0.00    +0.000 OA
ATOM      9  C   UNL     1       6.309   5.325  16.177  0.00  0.00    +0.000 C 
ATOM     10  C   UNL     1       5.960   4.164  17.102  0.00  0.00    +0.000 C 
ENDROOT
BRANCH   1  11
ATOM     11  C   UNL     1       2.149   1.904  19.535  0.00  0.00    +0.000 C 
BRANCH  11  15
ATOM     12  C   UNL     1       1.653   6.835  20.624  0.00  0.00    +0.000 C 
ATOM     13  C   UNL     1       1.659   5.362  20.635  0.00  0.00    +0.000 A 
ATOM     14  C   UNL     1       1.326   4.400  19.714  0.00  0.00    +0.000 A 
ATOM     15  C   UNL     1       1.897   3.210  20.242  0.00  0.00    +0.000 A 
ATOM     16  N   UNL     1       2.332   3.406  21.496  0.00  0.00    +0.000 NA
ATOM     17  O   UNL     1       2.188   4.762  21.735  0.00  0.00    +0.000 OA
ENDBRANCH  11  15
ENDBRANCH   1  11
BRANCH   9  18
ATOM     18  C   UNL     1       5.916   5.074  14.711  0.00  0.00    +0.000 C 
BRANCH  18  19
ATOM     19  O   UNL     1       7.015   4.484  14.017  0.00  0.00    +0.000 OA
BRANCH  19  20
ATOM     20  C   UNL     1       6.698   4.223  12.656  0.00  0.00    +0.000 C 
BRANCH  20  21
ATOM     21  C   UNL     1       5.566   3.249  12.616  0.00  0.00    +0.000 C 
ATOM     22  C   UNL     1       4.518   3.338  11.534  0.00  0.00    +0.000 C 
ATOM     23  C   UNL     1       5.497   2.199  11.536  0.00  0.00    +0.000 C 
ENDBRANCH  20  21
ENDBRANCH  19  20
ENDBRANCH  18  19
ENDBRANCH   9  18
TORSDOF 6
ENDMDL
