MODEL 1
REMARK VINA RESULT:      -8.3      0.000      0.000
REMARK  Name = 
REMARK  6 active torsions:
REMARK  status: ('A' for Active; 'I' for Inactive)
REMARK    1  A    between atoms: C_1  and  C_2
REMARK    2  A    between atoms: C_3  and  C_4
REMARK    3  A    between atoms: C_7  and  O_8
REMARK    4  A    between atoms: O_8  and  C_9
REMARK    5  A    between atoms: C_9  and  C_10
REMARK    6  A    between atoms: C_10  and  N_11
REMARK                            x       y       z     vdW  Elec       q    Type
REMARK                         _______ _______ _______ _____ _____    ______ ____
ROOT
ATOM      1  C   UNL     1       0.599   7.590  21.126  0.00  0.00    +0.000 C 
ATOM      2  C   UNL     1       1.439   7.809  19.893  0.00  0.00    +0.000 A 
ATOM      3  C   UNL     1       1.397   8.998  19.238  0.00  0.00    +0.000 A 
ATOM      4  C   UNL     1       2.201   9.280  18.025  0.00  0.00    +0.000 A 
ATOM      5  O   UNL     1       2.188  10.368  17.458  0.00  0.00    +0.000 OA
ATOM      6  O   UNL     1       2.979   8.250  17.559  0.00  0.00    +0.000 OA
ATOM      7  C   UNL     1       3.052   7.011  18.214  0.00  0.00    +0.000 A 
ATOM      8  C   UNL     1       3.913   6.119  17.581  0.00  0.00    +0.000 A 
ATOM      9  C   UNL     1       4.086   4.859  18.117  0.00  0.00    +0.000 A 
ATOM     10  C   UNL     1       3.419   4.482  19.284  0.00  0.00    +0.000 A 
ATOM     11  C   UNL     1       3.656   3.181  19.760  0.00  0.00    +0.000 A 
ATOM     12  C   UNL     1       3.051   2.714  20.918  0.00  0.00    +0.000 A 
ATOM     13  C   UNL     1       2.209   3.554  21.618  0.00  0.00    +0.000 A 
ATOM     14  C   UNL     1       1.970   4.854  21.150  0.00  0.00    +0.000 A 
ATOM     15  C   UNL     1       2.537   5.385  19.958  0.00  0.00    +0.000 A 
ATOM     16  C   UNL     1       2.332   6.709  19.387  0.00  0.00    +0.000 A 
ENDROOT
BRANCH   3  17
ATOM     17  C   UNL     1       0.610  10.128  19.768  0.00  0.00    +0.000 A 
ATOM     18  C   UNL     1      -0.649  10.359  19.219  0.00  0.00    +0.000 A 
ATOM     19  C   UNL     1      -1.411  11.435  19.656  0.00  0.00    +0.000 A 
ATOM     20  C   UNL     1      -0.937  12.302  20.650  0.00  0.00    +0.000 A 
ATOM     21  C   UNL     1       0.319  12.061  21.213  0.00  0.00    +0.000 A 
ATOM     22  C   UNL     1       1.093  10.978  20.774  0.00  0.00    +0.000 A 
BRANCH  20  23
ATOM     23  O   UNL     1      -1.631  13.401  21.120  0.00  0.00    +0.000 OA
BRANCH  23  24
ATOM     24  C   UNL     1      -3.027  13.135  21.288  0.00  0.00    +0.000 C 
BRANCH  24  25
ATOM     25  C   UNL     1      -3.413  12.628  22.681  0.00  0.00    +0.000 C 
BRANCH  25  26
ATOM     26  N   UNL     1      -4.868  12.340  22.761  0.00  0.00    +0.000 NA
ATOM     27  C   UNL     1      -5.531  13.074  23.854  0.00  0.00    +0.000 C 
ATOM     28  C   UNL     1      -7.021  12.744  23.948  0.00  0.00    +0.000 C 
ATOM     29  C   UNL     1      -7.724  13.009  22.628  0.00  0.00    +0.000 C 
ATOM     30  C   UNL     1      -7.007  12.280  21.499  0.00  0.00    +0.000 C 
ATOM     31  C   UNL     1      -5.513  12.619  21.471  0.00  0.00    +0.000 C 
ENDBRANCH  25  26
ENDBRANCH  24  25
ENDBRANCH  23  24
ENDBRANCH  20  23
ENDBRANCH   3  17
TORSDOF 5
ENDMDL
MODEL 2
REMARK VINA RESULT:      -8.3      2.941      9.428
REMARK  Name = 
REMARK  6 active torsions:
REMARK  status: ('A' for Active; 'I' for Inactive)
REMARK    1  A    between atoms: C_1  and  C_2
REMARK    2  A    between atoms: C_3  and  C_4
REMARK    3  A    between atoms: C_7  and  O_8
REMARK    4  A    between atoms: O_8  and  C_9
REMARK    5  A    between atoms: C_9  and  C_10
REMARK    6  A    between atoms: C_10  and  N_11
REMARK                            x       y       z     vdW  Elec       q    Type
REMARK                         _______ _______ _______ _____ _____    ______ ____
ROOT
ATOM      1  C   UNL     1      -1.508   9.700  17.850  0.00  0.00    +0.000 C 
ATOM      2  C   UNL     1      -1.229  10.488  19.105  0.00  0.00    +0.000 A 
ATOM      3  C   UNL     1      -0.073  10.296  19.792  0.00  0.00    +0.000 A 
ATOM      4  C   UNL     1       0.265  11.042  21.028  0.00  0.00    +0.000 A 
ATOM      5  O   UNL     1       1.327  10.893  21.624  0.00  0.00    +0.000 OA
ATOM      6  O   UNL     1      -0.681  11.927  21.480  0.00  0.00    +0.000 OA
ATOM      7  C   UNL     1      -1.883  12.155  20.793  0.00  0.00    +0.000 A 
ATOM      8  C   UNL     1      -2.688  13.104  21.418  0.00  0.00    +0.000 A 
ATOM      9  C   UNL     1      -3.902  13.432  20.852  0.00  0.00    +0.000 A 
ATOM     10  C   UNL     1      -4.319  12.833  19.661  0.00  0.00    +0.000 A 
ATOM     11  C   UNL     1      -5.569  13.228  19.154  0.00  0.00    +0.000 A 
ATOM     12  C   UNL     1      -6.069  12.701  17.973  0.00  0.00    +0.000 A 
ATOM     13  C   UNL     1      -5.313  11.779  17.279  0.00  0.00    +0.000 A 
ATOM     14  C   UNL     1      -4.063  11.381  17.778  0.00  0.00    +0.000 A 
ATOM     15  C   UNL     1      -3.505  11.862  18.995  0.00  0.00    +0.000 A 
ATOM     16  C   UNL     1      -2.232  11.495  19.599  0.00  0.00    +0.000 A 
ENDROOT
BRANCH   3  17
ATOM     17  C   UNL     1       0.974   9.392  19.278  0.00  0.00    +0.000 A 
ATOM     18  C   UNL     1       1.610   9.743  18.089  0.00  0.00    +0.000 A 
ATOM     19  C   UNL     1       2.573   8.904  17.543  0.00  0.00    +0.000 A 
ATOM     20  C   UNL     1       2.926   7.701  18.170  0.00  0.00    +0.000 A 
ATOM     21  C   UNL     1       2.300   7.357  19.371  0.00  0.00    +0.000 A 
ATOM     22  C   UNL     1       1.325   8.199  19.926  0.00  0.00    +0.000 A 
BRANCH  20  23
ATOM     23  O   UNL     1       3.860   6.810  17.676  0.00  0.00    +0.000 OA
BRANCH  23  24
ATOM     24  C   UNL     1       4.316   5.888  18.672  0.00  0.00    +0.000 C 
BRANCH  24  25
ATOM     25  C   UNL     1       4.412   4.437  18.195  0.00  0.00    +0.000 C 
BRANCH  25  26
ATOM     26  N   UNL     1       3.352   3.599  18.814  0.00  0.00    +0.000 NA
ATOM     27  C   UNL     1       3.121   3.935  20.231  0.00  0.00    +0.000 C 
ATOM     28  C   UNL     1       2.052   3.045  20.866  0.00  0.00    +0.000 C 
ATOM     29  C   UNL     1       0.751   3.110  20.085  0.00  0.00    +0.000 C 
ATOM     30  C   UNL     1       1.008   2.803  18.615  0.00  0.00    +0.000 C 
ATOM     31  C   UNL     1       2.109   3.698  18.038  0.00  0.00    +0.000 C 
ENDBRANCH  25  26
ENDBRANCH  24  25
ENDBRANCH  23  24
ENDBRANCH  20  23
ENDBRANCH   3  17
TORSDOF 5
ENDMDL
MODEL 3
REMARK VINA RESULT:      -8.2      2.809      9.453
REMARK  Name = 
REMARK  6 active torsions:
REMARK  status: ('A' for Active; 'I' for Inactive)
REMARK    1  A    between atoms: C_1  and  C_2
REMARK    2  A    between atoms: C_3  and  C_4
REMARK    3  A    between atoms: C_7  and  O_8
REMARK    4  A    between atoms: O_8  and  C_9
REMARK    5  A    between atoms: C_9  and  C_10
REMARK    6  A    between atoms: C_10  and  N_11
REMARK                            x       y       z     vdW  Elec       q    Type
REMARK                         _______ _______ _______ _____ _____    ______ ____
ROOT
ATOM      1  C   UNL     1      -1.596   9.737  17.806  0.00  0.00    +0.000 C 
ATOM      2  C   UNL     1      -1.294  10.555  19.037  0.00  0.00    +0.000 A 
ATOM      3  C   UNL     1      -0.121  10.386  19.700  0.00  0.00    +0.000 A 
ATOM      4  C   UNL     1       0.240  11.161  20.911  0.00  0.00    +0.000 A 
ATOM      5  O   UNL     1       1.317  11.033  21.485  0.00  0.00    +0.000 OA
ATOM      6  O   UNL     1      -0.701  12.050  21.366  0.00  0.00    +0.000 OA
ATOM      7  C   UNL     1      -1.921  12.255  20.702  0.00  0.00    +0.000 A 
ATOM      8  C   UNL     1      -2.717  13.212  21.325  0.00  0.00    +0.000 A 
ATOM      9  C   UNL     1      -3.947  13.520  20.779  0.00  0.00    +0.000 A 
ATOM     10  C   UNL     1      -4.387  12.891  19.613  0.00  0.00    +0.000 A 
ATOM     11  C   UNL     1      -5.651  13.267  19.126  0.00  0.00    +0.000 A 
ATOM     12  C   UNL     1      -6.175  12.710  17.968  0.00  0.00    +0.000 A 
ATOM     13  C   UNL     1      -5.428  11.777  17.279  0.00  0.00    +0.000 A 
ATOM     14  C   UNL     1      -4.165  11.399  17.757  0.00  0.00    +0.000 A 
ATOM     15  C   UNL     1      -3.582  11.911  18.949  0.00  0.00    +0.000 A 
ATOM     16  C   UNL     1      -2.292  11.566  19.531  0.00  0.00    +0.000 A 
ENDROOT
BRANCH   3  17
ATOM     17  C   UNL     1       0.920   9.477  19.182  0.00  0.00    +0.000 A 
ATOM     18  C   UNL     1       1.264   8.372  19.957  0.00  0.00    +0.000 A 
ATOM     19  C   UNL     1       2.266   7.510  19.532  0.00  0.00    +0.000 A 
ATOM     20  C   UNL     1       2.944   7.727  18.325  0.00  0.00    +0.000 A 
ATOM     21  C   UNL     1       2.588   8.825  17.538  0.00  0.00    +0.000 A 
ATOM     22  C   UNL     1       1.578   9.701  17.964  0.00  0.00    +0.000 A 
BRANCH  20  23
ATOM     23  O   UNL     1       3.962   6.923  17.848  0.00  0.00    +0.000 OA
BRANCH  23  24
ATOM     24  C   UNL     1       3.514   5.599  17.540  0.00  0.00    +0.000 C 
BRANCH  24  25
ATOM     25  C   UNL     1       4.100   4.507  18.439  0.00  0.00    +0.000 C 
BRANCH  25  26
ATOM     26  N   UNL     1       3.196   4.212  19.581  0.00  0.00    +0.000 NA
ATOM     27  C   UNL     1       1.781   4.128  19.176  0.00  0.00    +0.000 C 
ATOM     28  C   UNL     1       0.858   3.858  20.364  0.00  0.00    +0.000 C 
ATOM     29  C   UNL     1       1.274   2.598  21.104  0.00  0.00    +0.000 C 
ATOM     30  C   UNL     1       2.748   2.676  21.481  0.00  0.00    +0.000 C 
ATOM     31  C   UNL     1       3.624   2.982  20.263  0.00  0.00    +0.000 C 
ENDBRANCH  25  26
ENDBRANCH  24  25
ENDBRANCH  23  24
ENDBRANCH  20  23
ENDBRANCH   3  17
TORSDOF 5
ENDMDL
MODEL 4
REMARK VINA RESULT:      -8.2      0.823      1.195
REMARK  Name = 
REMARK  6 active torsions:
REMARK  status: ('A' for Active; 'I' for Inactive)
REMARK    1  A    between atoms: C_1  and  C_2
REMARK    2  A    between atoms: C_3  and  C_4
REMARK    3  A    between atoms: C_7  and  O_8
REMARK    4  A    between atoms: O_8  and  C_9
REMARK    5  A    between atoms: C_9  and  C_10
REMARK    6  A    between atoms: C_10  and  N_11
REMARK                            x       y       z     vdW  Elec       q    Type
REMARK                         _______ _______ _______ _____ _____    ______ ____
ROOT
ATOM      1  C   UNL     1       0.622   7.431  21.118  0.00  0.00    +0.000 C 
ATOM      2  C   UNL     1       1.460   7.719  19.897  0.00  0.00    +0.000 A 
ATOM      3  C   UNL     1       1.376   8.924  19.277  0.00  0.00    +0.000 A 
ATOM      4  C   UNL     1       2.175   9.272  18.078  0.00  0.00    +0.000 A 
ATOM      5  O   UNL     1       2.125  10.375  17.544  0.00  0.00    +0.000 OA
ATOM      6  O   UNL     1       2.994   8.287  17.587  0.00  0.00    +0.000 OA
ATOM      7  C   UNL     1       3.110   7.032  18.206  0.00  0.00    +0.000 A 
ATOM      8  C   UNL     1       4.007   6.192  17.552  0.00  0.00    +0.000 A 
ATOM      9  C   UNL     1       4.225   4.924  18.051  0.00  0.00    +0.000 A 
ATOM     10  C   UNL     1       3.566   4.488  19.203  0.00  0.00    +0.000 A 
ATOM     11  C   UNL     1       3.849   3.183  19.642  0.00  0.00    +0.000 A 
ATOM     12  C   UNL     1       3.255   2.659  20.781  0.00  0.00    +0.000 A 
ATOM     13  C   UNL     1       2.379   3.445  21.500  0.00  0.00    +0.000 A 
ATOM     14  C   UNL     1       2.094   4.750  21.069  0.00  0.00    +0.000 A 
ATOM     15  C   UNL     1       2.647   5.337  19.897  0.00  0.00    +0.000 A 
ATOM     16  C   UNL     1       2.396   6.668  19.364  0.00  0.00    +0.000 A 
ENDROOT
BRANCH   3  17
ATOM     17  C   UNL     1       0.545  10.008  19.835  0.00  0.00    +0.000 A 
ATOM     18  C   UNL     1      -0.698  10.242  19.251  0.00  0.00    +0.000 A 
ATOM     19  C   UNL     1      -1.499  11.278  19.713  0.00  0.00    +0.000 A 
ATOM     20  C   UNL     1      -1.083  12.099  20.770  0.00  0.00    +0.000 A 
ATOM     21  C   UNL     1       0.155  11.854  21.368  0.00  0.00    +0.000 A 
ATOM     22  C   UNL     1       0.970  10.812  20.903  0.00  0.00    +0.000 A 
BRANCH  20  23
ATOM     23  O   UNL     1      -1.818  13.156  21.270  0.00  0.00    +0.000 OA
BRANCH  23  24
ATOM     24  C   UNL     1      -2.812  12.735  22.211  0.00  0.00    +0.000 C 
BRANCH  24  25
ATOM     25  C   UNL     1      -4.199  13.342  21.984  0.00  0.00    +0.000 C 
BRANCH  25  26
ATOM     26  N   UNL     1      -5.098  12.379  21.296  0.00  0.00    +0.000 NA
ATOM     27  C   UNL     1      -6.504  12.518  21.717  0.00  0.00    +0.000 C 
ATOM     28  C   UNL     1      -7.413  11.501  21.029  0.00  0.00    +0.000 C 
ATOM     29  C   UNL     1      -7.299  11.599  19.517  0.00  0.00    +0.000 C 
ATOM     30  C   UNL     1      -5.839  11.496  19.096  0.00  0.00    +0.000 C 
ATOM     31  C   UNL     1      -4.967  12.513  19.839  0.00  0.00    +0.000 C 
ENDBRANCH  25  26
ENDBRANCH  24  25
ENDBRANCH  23  24
ENDBRANCH  20  23
ENDBRANCH   3  17
TORSDOF 5
ENDMDL
MODEL 5
REMARK VINA RESULT:      -8.1      1.140      1.757
REMARK  Name = 
REMARK  6 active torsions:
REMARK  status: ('A' for Active; 'I' for Inactive)
REMARK    1  A    between atoms: C_1  and  C_2
REMARK    2  A    between atoms: C_3  and  C_4
REMARK    3  A    between atoms: C_7  and  O_8
REMARK    4  A    between atoms: O_8  and  C_9
REMARK    5  A    between atoms: C_9  and  C_10
REMARK    6  A    between atoms: C_10  and  N_11
REMARK                            x       y       z     vdW  Elec       q    Type
REMARK                         _______ _______ _______ _____ _____    ______ ____
ROOT
ATOM      1  C   UNL     1       0.662   7.402  21.082  0.00  0.00    +0.000 C 
ATOM      2  C   UNL     1       1.497   7.676  19.855  0.00  0.00    +0.000 A 
ATOM      3  C   UNL     1       1.410   8.873  19.221  0.00  0.00    +0.000 A 
ATOM      4  C   UNL     1       2.207   9.208  18.017  0.00  0.00    +0.000 A 
ATOM      5  O   UNL     1       2.154  10.305  17.469  0.00  0.00    +0.000 OA
ATOM      6  O   UNL     1       3.026   8.218  17.536  0.00  0.00    +0.000 OA
ATOM      7  C   UNL     1       3.145   6.970  18.170  0.00  0.00    +0.000 A 
ATOM      8  C   UNL     1       4.042   6.124  17.524  0.00  0.00    +0.000 A 
ATOM      9  C   UNL     1       4.262   4.863  18.039  0.00  0.00    +0.000 A 
ATOM     10  C   UNL     1       3.606   4.440  19.196  0.00  0.00    +0.000 A 
ATOM     11  C   UNL     1       3.892   3.140  19.651  0.00  0.00    +0.000 A 
ATOM     12  C   UNL     1       3.301   2.630  20.798  0.00  0.00    +0.000 A 
ATOM     13  C   UNL     1       2.425   3.423  21.509  0.00  0.00    +0.000 A 
ATOM     14  C   UNL     1       2.137   4.722  21.063  0.00  0.00    +0.000 A 
ATOM     15  C   UNL     1       2.687   5.296  19.883  0.00  0.00    +0.000 A 
ATOM     16  C   UNL     1       2.433   6.620  19.334  0.00  0.00    +0.000 A 
ENDROOT
BRANCH   3  17
ATOM     17  C   UNL     1       0.578   9.963  19.768  0.00  0.00    +0.000 A 
ATOM     18  C   UNL     1      -0.686  10.156  19.217  0.00  0.00    +0.000 A 
ATOM     19  C   UNL     1      -1.491  11.194  19.669  0.00  0.00    +0.000 A 
ATOM     20  C   UNL     1      -1.055  12.059  20.682  0.00  0.00    +0.000 A 
ATOM     21  C   UNL     1       0.206  11.856  21.247  0.00  0.00    +0.000 A 
ATOM     22  C   UNL     1       1.024  10.811  20.792  0.00  0.00    +0.000 A 
BRANCH  20  23
ATOM     23  O   UNL     1      -1.792  13.122  21.168  0.00  0.00    +0.000 OA
BRANCH  23  24
ATOM     24  C   UNL     1      -3.179  12.801  21.319  0.00  0.00    +0.000 C 
BRANCH  24  25
ATOM     25  C   UNL     1      -4.133  13.760  20.602  0.00  0.00    +0.000 C 
BRANCH  25  26
ATOM     26  N   UNL     1      -5.278  13.027  20.001  0.00  0.00    +0.000 NA
ATOM     27  C   UNL     1      -4.864  12.133  18.905  0.00  0.00    +0.000 C 
ATOM     28  C   UNL     1      -6.052  11.409  18.273  0.00  0.00    +0.000 C 
ATOM     29  C   UNL     1      -6.842  10.639  19.317  0.00  0.00    +0.000 C 
ATOM     30  C   UNL     1      -7.229  11.563  20.466  0.00  0.00    +0.000 C 
ATOM     31  C   UNL     1      -6.008  12.287  21.040  0.00  0.00    +0.000 C 
ENDBRANCH  25  26
ENDBRANCH  24  25
ENDBRANCH  23  24
ENDBRANCH  20  23
ENDBRANCH   3  17
TORSDOF 5
ENDMDL
MODEL 6
REMARK VINA RESULT:      -8.1      1.475      2.883
REMARK  Name = 
REMARK  6 active torsions:
REMARK  status: ('A' for Active; 'I' for Inactive)
REMARK    1  A    between atoms: C_1  and  C_2
REMARK    2  A    between atoms: C_3  and  C_4
REMARK    3  A    between atoms: C_7  and  O_8
REMARK    4  A    between atoms: O_8  and  C_9
REMARK    5  A    between atoms: C_9  and  C_10
REMARK    6  A    between atoms: C_10  and  N_11
REMARK                            x       y       z     vdW  Elec       q    Type
REMARK                         _______ _______ _______ _____ _____    ______ ____
ROOT
ATOM      1  C   UNL     1       2.215   9.432  17.866  0.00  0.00    +0.000 C 
ATOM      2  C   UNL     1       1.930   8.430  18.956  0.00  0.00    +0.000 A 
ATOM      3  C   UNL     1       1.048   8.726  19.945  0.00  0.00    +0.000 A 
ATOM      4  C   UNL     1       0.718   7.785  21.042  0.00  0.00    +0.000 A 
ATOM      5  O   UNL     1      -0.107   8.042  21.912  0.00  0.00    +0.000 OA
ATOM      6  O   UNL     1       1.387   6.587  21.035  0.00  0.00    +0.000 OA
ATOM      7  C   UNL     1       2.300   6.244  20.024  0.00  0.00    +0.000 A 
ATOM      8  C   UNL     1       2.849   4.977  20.204  0.00  0.00    +0.000 A 
ATOM      9  C   UNL     1       3.761   4.505  19.283  0.00  0.00    +0.000 A 
ATOM     10  C   UNL     1       4.125   5.278  18.178  0.00  0.00    +0.000 A 
ATOM     11  C   UNL     1       5.060   4.718  17.291  0.00  0.00    +0.000 A 
ATOM     12  C   UNL     1       5.479   5.400  16.157  0.00  0.00    +0.000 A 
ATOM     13  C   UNL     1       4.953   6.649  15.896  0.00  0.00    +0.000 A 
ATOM     14  C   UNL     1       4.018   7.213  16.776  0.00  0.00    +0.000 A 
ATOM     15  C   UNL     1       3.567   6.579  17.967  0.00  0.00    +0.000 A 
ATOM     16  C   UNL     1       2.619   7.093  18.947  0.00  0.00    +0.000 A 
ENDROOT
BRANCH   3  17
ATOM     17  C   UNL     1       0.281   9.987  19.925  0.00  0.00    +0.000 A 
ATOM     18  C   UNL     1       0.752  11.048  20.693  0.00  0.00    +0.000 A 
ATOM     19  C   UNL     1       0.043  12.242  20.740  0.00  0.00    +0.000 A 
ATOM     20  C   UNL     1      -1.147  12.405  20.018  0.00  0.00    +0.000 A 
ATOM     21  C   UNL     1      -1.612  11.347  19.234  0.00  0.00    +0.000 A 
ATOM     22  C   UNL     1      -0.901  10.139  19.186  0.00  0.00    +0.000 A 
BRANCH  20  23
ATOM     23  O   UNL     1      -1.914  13.555  20.031  0.00  0.00    +0.000 OA
BRANCH  23  24
ATOM     24  C   UNL     1      -3.245  13.320  20.502  0.00  0.00    +0.000 C 
BRANCH  24  25
ATOM     25  C   UNL     1      -3.335  12.939  21.982  0.00  0.00    +0.000 C 
BRANCH  25  26
ATOM     26  N   UNL     1      -4.705  12.484  22.335  0.00  0.00    +0.000 NA
ATOM     27  C   UNL     1      -5.279  13.239  23.464  0.00  0.00    +0.000 C 
ATOM     28  C   UNL     1      -6.674  12.740  23.840  0.00  0.00    +0.000 C 
ATOM     29  C   UNL     1      -7.610  12.781  22.644  0.00  0.00    +0.000 C 
ATOM     30  C   UNL     1      -6.989  12.035  21.469  0.00  0.00    +0.000 C 
ATOM     31  C   UNL     1      -5.581  12.550  21.157  0.00  0.00    +0.000 C 
ENDBRANCH  25  26
ENDBRANCH  24  25
ENDBRANCH  23  24
ENDBRANCH  20  23
ENDBRANCH   3  17
TORSDOF 5
ENDMDL
MODEL 7
REMARK VINA RESULT:      -8.0      2.923      4.546
REMARK  Name = 
REMARK  6 active torsions:
REMARK  status: ('A' for Active; 'I' for Inactive)
REMARK    1  A    between atoms: C_1  and  C_2
REMARK    2  A    between atoms: C_3  and  C_4
REMARK    3  A    between atoms: C_7  and  O_8
REMARK    4  A    between atoms: O_8  and  C_9
REMARK    5  A    between atoms: C_9  and  C_10
REMARK    6  A    between atoms: C_10  and  N_11
REMARK                            x       y       z     vdW  Elec       q    Type
REMARK                         _______ _______ _______ _____ _____    ______ ____
ROOT
ATOM      1  C   UNL     1       0.677   7.472  21.122  0.00  0.00    +0.000 C 
ATOM      2  C   UNL     1       1.510   7.683  19.882  0.00  0.00    +0.000 A 
ATOM      3  C   UNL     1       1.464   8.868  19.220  0.00  0.00    +0.000 A 
ATOM      4  C   UNL     1       2.261   9.142  18.000  0.00  0.00    +0.000 A 
ATOM      5  O   UNL     1       2.246  10.226  17.427  0.00  0.00    +0.000 OA
ATOM      6  O   UNL     1       3.035   8.109  17.536  0.00  0.00    +0.000 OA
ATOM      7  C   UNL     1       3.111   6.873  18.199  0.00  0.00    +0.000 A 
ATOM      8  C   UNL     1       3.968   5.976  17.566  0.00  0.00    +0.000 A 
ATOM      9  C   UNL     1       4.144   4.720  18.109  0.00  0.00    +0.000 A 
ATOM     10  C   UNL     1       3.483   4.351  19.282  0.00  0.00    +0.000 A 
ATOM     11  C   UNL     1       3.722   3.053  19.765  0.00  0.00    +0.000 A 
ATOM     12  C   UNL     1       3.123   2.594  20.930  0.00  0.00    +0.000 A 
ATOM     13  C   UNL     1       2.287   3.438  21.629  0.00  0.00    +0.000 A 
ATOM     14  C   UNL     1       2.045   4.736  21.155  0.00  0.00    +0.000 A 
ATOM     15  C   UNL     1       2.606   5.259  19.956  0.00  0.00    +0.000 A 
ATOM     16  C   UNL     1       2.399   6.579  19.377  0.00  0.00    +0.000 A 
ENDROOT
BRANCH   3  17
ATOM     17  C   UNL     1       0.682  10.002  19.748  0.00  0.00    +0.000 A 
ATOM     18  C   UNL     1      -0.541  10.286  19.144  0.00  0.00    +0.000 A 
ATOM     19  C   UNL     1      -1.296  11.369  19.578  0.00  0.00    +0.000 A 
ATOM     20  C   UNL     1      -0.851  12.189  20.624  0.00  0.00    +0.000 A 
ATOM     21  C   UNL     1       0.367  11.894  21.241  0.00  0.00    +0.000 A 
ATOM     22  C   UNL     1       1.134  10.804  20.805  0.00  0.00    +0.000 A 
BRANCH  20  23
ATOM     23  O   UNL     1      -1.538  13.291  21.095  0.00  0.00    +0.000 OA
BRANCH  23  24
ATOM     24  C   UNL     1      -0.769  14.495  21.003  0.00  0.00    +0.000 C 
BRANCH  24  25
ATOM     25  C   UNL     1      -0.494  14.964  19.572  0.00  0.00    +0.000 C 
BRANCH  25  26
ATOM     26  N   UNL     1       0.966  15.057  19.311  0.00  0.00    +0.000 NA
ATOM     27  C   UNL     1       1.471  13.924  18.513  0.00  0.00    +0.000 C 
ATOM     28  C   UNL     1       2.979  14.013  18.280  0.00  0.00    +0.000 C 
ATOM     29  C   UNL     1       3.355  15.332  17.626  0.00  0.00    +0.000 C 
ATOM     30  C   UNL     1       2.792  16.494  18.435  0.00  0.00    +0.000 C 
ATOM     31  C   UNL     1       1.286  16.339  18.669  0.00  0.00    +0.000 C 
ENDBRANCH  25  26
ENDBRANCH  24  25
ENDBRANCH  23  24
ENDBRANCH  20  23
ENDBRANCH   3  17
TORSDOF 5
ENDMDL
MODEL 8
REMARK VINA RESULT:      -8.0      0.411      1.302
REMARK  Name = 
REMARK  6 active torsions:
REMARK  status: ('A' for Active; 'I' for Inactive)
REMARK    1  A    between atoms: C_1  and  C_2
REMARK    2  A    between atoms: C_3  and  C_4
REMARK    3  A    between atoms: C_7  and  O_8
REMARK    4  A    between atoms: O_8  and  C_9
REMARK    5  A    between atoms: C_9  and  C_10
REMARK    6  A    between atoms: C_10  and  N_11
REMARK                            x       y       z     vdW  Elec       q    Type
REMARK                         _______ _______ _______ _____ _____    ______ ____
ROOT
ATOM      1  C   UNL     1       0.537   7.586  21.121  0.00  0.00    +0.000 C 
ATOM      2  C   UNL     1       1.387   7.837  19.900  0.00  0.00    +0.000 A 
ATOM      3  C   UNL     1       1.329   9.032  19.259  0.00  0.00    +0.000 A 
ATOM      4  C   UNL     1       2.142   9.346  18.060  0.00  0.00    +0.000 A 
ATOM      5  O   UNL     1       2.114  10.440  17.506  0.00  0.00    +0.000 OA
ATOM      6  O   UNL     1       2.946   8.337  17.592  0.00  0.00    +0.000 OA
ATOM      7  C   UNL     1       3.036   7.091  18.232  0.00  0.00    +0.000 A 
ATOM      8  C   UNL     1       3.922   6.224  17.599  0.00  0.00    +0.000 A 
ATOM      9  C   UNL     1       4.114   4.962  18.122  0.00  0.00    +0.000 A 
ATOM     10  C   UNL     1       3.440   4.558  19.276  0.00  0.00    +0.000 A 
ATOM     11  C   UNL     1       3.697   3.256  19.739  0.00  0.00    +0.000 A 
ATOM     12  C   UNL     1       3.087   2.762  20.884  0.00  0.00    +0.000 A 
ATOM     13  C   UNL     1       2.220   3.576  21.583  0.00  0.00    +0.000 A 
ATOM     14  C   UNL     1       1.961   4.878  21.128  0.00  0.00    +0.000 A 
ATOM     15  C   UNL     1       2.532   5.435  19.950  0.00  0.00    +0.000 A 
ATOM     16  C   UNL     1       2.308   6.761  19.392  0.00  0.00    +0.000 A 
ENDROOT
BRANCH   3  17
ATOM     17  C   UNL     1       0.514  10.141  19.793  0.00  0.00    +0.000 A 
ATOM     18  C   UNL     1       1.056  10.913  20.818  0.00  0.00    +0.000 A 
ATOM     19  C   UNL     1       0.312  11.941  21.382  0.00  0.00    +0.000 A 
ATOM     20  C   UNL     1      -0.985  12.225  20.935  0.00  0.00    +0.000 A 
ATOM     21  C   UNL     1      -1.524  11.463  19.896  0.00  0.00    +0.000 A 
ATOM     22  C   UNL     1      -0.778  10.421  19.325  0.00  0.00    +0.000 A 
BRANCH  20  23
ATOM     23  O   UNL     1      -1.789  13.219  21.460  0.00  0.00    +0.000 OA
BRANCH  23  24
ATOM     24  C   UNL     1      -3.065  12.725  21.880  0.00  0.00    +0.000 C 
BRANCH  24  25
ATOM     25  C   UNL     1      -3.817  13.649  22.843  0.00  0.00    +0.000 C 
BRANCH  25  26
ATOM     26  N   UNL     1      -5.287  13.487  22.701  0.00  0.00    +0.000 NA
ATOM     27  C   UNL     1      -5.655  12.649  21.545  0.00  0.00    +0.000 C 
ATOM     28  C   UNL     1      -7.170  12.517  21.389  0.00  0.00    +0.000 C 
ATOM     29  C   UNL     1      -7.806  11.979  22.659  0.00  0.00    +0.000 C 
ATOM     30  C   UNL     1      -7.385  12.826  23.854  0.00  0.00    +0.000 C 
ATOM     31  C   UNL     1      -5.862  12.954  23.943  0.00  0.00    +0.000 C 
ENDBRANCH  25  26
ENDBRANCH  24  25
ENDBRANCH  23  24
ENDBRANCH  20  23
ENDBRANCH   3  17
TORSDOF 5
ENDMDL
MODEL 9
REMARK VINA RESULT:      -8.0      3.460      5.265
REMARK  Name = 
REMARK  6 active torsions:
REMARK  status: ('A' for Active; 'I' for Inactive)
REMARK    1  A    between atoms: C_1  and  C_2
REMARK    2  A    between atoms: C_3  and  C_4
REMARK    3  A    between atoms: C_7  and  O_8
REMARK    4  A    between atoms: O_8  and  C_9
REMARK    5  A    between atoms: C_9  and  C_10
REMARK    6  A    between atoms: C_10  and  N_11
REMARK                            x       y       z     vdW  Elec       q    Type
REMARK                         _______ _______ _______ _____ _____    ______ ____
ROOT
ATOM      1  C   UNL     1       2.493   9.142  17.816  0.00  0.00    +0.000 C 
ATOM      2  C   UNL     1       1.965   8.403  19.021  0.00  0.00    +0.000 A 
ATOM      3  C   UNL     1       1.106   9.014  19.877  0.00  0.00    +0.000 A 
ATOM      4  C   UNL     1       0.547   8.344  21.075  0.00  0.00    +0.000 A 
ATOM      5  O   UNL     1      -0.259   8.887  21.824  0.00  0.00    +0.000 OA
ATOM      6  O   UNL     1       0.975   7.062  21.308  0.00  0.00    +0.000 OA
ATOM      7  C   UNL     1       1.858   6.397  20.442  0.00  0.00    +0.000 A 
ATOM      8  C   UNL     1       2.146   5.101  20.859  0.00  0.00    +0.000 A 
ATOM      9  C   UNL     1       2.999   4.326  20.101  0.00  0.00    +0.000 A 
ATOM     10  C   UNL     1       3.560   4.825  18.924  0.00  0.00    +0.000 A 
ATOM     11  C   UNL     1       4.417   3.967  18.213  0.00  0.00    +0.000 A 
ATOM     12  C   UNL     1       5.016   4.364  17.026  0.00  0.00    +0.000 A 
ATOM     13  C   UNL     1       4.751   5.624  16.533  0.00  0.00    +0.000 A 
ATOM     14  C   UNL     1       3.896   6.486  17.235  0.00  0.00    +0.000 A 
ATOM     15  C   UNL     1       3.271   6.151  18.469  0.00  0.00    +0.000 A 
ATOM     16  C   UNL     1       2.388   6.982  19.276  0.00  0.00    +0.000 A 
ENDROOT
BRANCH   3  17
ATOM     17  C   UNL     1       0.594  10.370  19.599  0.00  0.00    +0.000 A 
ATOM     18  C   UNL     1       1.292  11.452  20.132  0.00  0.00    +0.000 A 
ATOM     19  C   UNL     1       0.827  12.745  19.933  0.00  0.00    +0.000 A 
ATOM     20  C   UNL     1      -0.340  12.989  19.195  0.00  0.00    +0.000 A 
ATOM     21  C   UNL     1      -1.030  11.907  18.645  0.00  0.00    +0.000 A 
ATOM     22  C   UNL     1      -0.567  10.599  18.846  0.00  0.00    +0.000 A 
BRANCH  20  23
ATOM     23  O   UNL     1      -0.870  14.246  18.971  0.00  0.00    +0.000 OA
BRANCH  23  24
ATOM     24  C   UNL     1      -1.107  14.963  20.187  0.00  0.00    +0.000 C 
BRANCH  24  25
ATOM     25  C   UNL     1      -0.737  16.448  20.130  0.00  0.00    +0.000 C 
BRANCH  25  26
ATOM     26  N   UNL     1      -0.223  16.820  18.787  0.00  0.00    +0.000 NA
ATOM     27  C   UNL     1      -0.982  17.927  18.177  0.00  0.00    +0.000 C 
ATOM     28  C   UNL     1      -0.465  18.278  16.782  0.00  0.00    +0.000 C 
ATOM     29  C   UNL     1       1.018  18.605  16.814  0.00  0.00    +0.000 C 
ATOM     30  C   UNL     1       1.788  17.474  17.484  0.00  0.00    +0.000 C 
ATOM     31  C   UNL     1       1.209  17.140  18.862  0.00  0.00    +0.000 C 
ENDBRANCH  25  26
ENDBRANCH  24  25
ENDBRANCH  23  24
ENDBRANCH  20  23
ENDBRANCH   3  17
TORSDOF 5
ENDMDL
