MODEL 1
REMARK VINA RESULT:      -9.9      0.000      0.000
REMARK  Name = 
REMARK  2 active torsions:
REMARK  status: ('A' for Active; 'I' for Inactive)
REMARK    1  A    between atoms: C_4  and  C_5
REMARK    2  A    between atoms: C_9  and  C_10
REMARK                            x       y       z     vdW  Elec       q    Type
REMARK                         _______ _______ _______ _____ _____    ______ ____
ROOT
ATOM      1  O   UNL     1       2.611   6.630  18.233  0.00  0.00    +0.000 OA
ATOM      2  C   UNL     1       3.147   5.574  17.923  0.00  0.00    +0.000 C 
ATOM      3  N   UNL     1       4.169   5.520  17.011  0.00  0.00    +0.000 N 
ATOM      4  C   UNL     1       4.416   4.303  16.292  0.00  0.00    +0.000 C 
ATOM      5  N   UNL     1       4.566   3.245  17.273  0.00  0.00    +0.000 N 
ATOM      6  C   UNL     1       3.455   3.140  18.136  0.00  0.00    +0.000 A 
ATOM      7  C   UNL     1       3.122   1.929  18.754  0.00  0.00    +0.000 A 
ATOM      8  F   UNL     1       3.815   0.820  18.449  0.00  0.00    +0.000 F 
ATOM      9  C   UNL     1       2.067   1.837  19.655  0.00  0.00    +0.000 A 
ATOM     10  C   UNL     1       1.341   2.982  19.963  0.00  0.00    +0.000 A 
ATOM     11  F   UNL     1       0.323   2.899  20.827  0.00  0.00    +0.000 F 
ATOM     12  C   UNL     1       1.661   4.210  19.400  0.00  0.00    +0.000 A 
ATOM     13  C   UNL     1       2.729   4.282  18.505  0.00  0.00    +0.000 A 
ATOM     14  H   UNL     1       4.343   6.396  16.538  0.00  0.00    +0.000 HD
ATOM     15  H   UNL     1       4.796   2.348  16.848  0.00  0.00    +0.000 HD
ENDROOT
BRANCH   4  16
ATOM     16  C   UNL     1       5.567   4.481  15.355  0.00  0.00    +0.000 A 
ATOM     17  C   UNL     1       5.645   4.094  14.026  0.00  0.00    +0.000 A 
ATOM     18  N   UNL     1       6.848   4.526  13.568  0.00  0.00    +0.000 N 
ATOM     19  N   UNL     1       7.574   5.164  14.493  0.00  0.00    +0.000 NA
ATOM     20  C   UNL     1       6.815   5.158  15.602  0.00  0.00    +0.000 A 
ATOM     21  H   UNL     1       7.235   4.432  12.635  0.00  0.00    +0.000 HD
BRANCH  20  22
ATOM     22  C   UNL     1       7.284   5.844  16.816  0.00  0.00    +0.000 A 
ATOM     23  C   UNL     1       7.584   5.100  17.964  0.00  0.00    +0.000 A 
ATOM     24  C   UNL     1       8.082   5.720  19.114  0.00  0.00    +0.000 A 
ATOM     25  C   UNL     1       8.303   7.094  19.125  0.00  0.00    +0.000 A 
ATOM     26  C   UNL     1       7.982   7.852  18.003  0.00  0.00    +0.000 A 
ATOM     27  C   UNL     1       7.448   7.235  16.868  0.00  0.00    +0.000 A 
ENDBRANCH  20  22
ENDBRANCH   4  16
TORSDOF 2
ENDMDL
MODEL 2
REMARK VINA RESULT:      -9.5      0.814      1.273
REMARK  Name = 
REMARK  2 active torsions:
REMARK  status: ('A' for Active; 'I' for Inactive)
REMARK    1  A    between atoms: C_4  and  C_5
REMARK    2  A    between atoms: C_9  and  C_10
REMARK                            x       y       z     vdW  Elec       q    Type
REMARK                         _______ _______ _______ _____ _____    ______ ____
ROOT
ATOM      1  O   UNL     1       2.174   6.478  18.165  0.00  0.00    +0.000 OA
ATOM      2  C   UNL     1       2.963   5.544  18.105  0.00  0.00    +0.000 C 
ATOM      3  N   UNL     1       3.936   5.477  17.142  0.00  0.00    +0.000 N 
ATOM      4  C   UNL     1       4.479   4.203  16.767  0.00  0.00    +0.000 C 
ATOM      5  N   UNL     1       4.933   3.553  17.981  0.00  0.00    +0.000 N 
ATOM      6  C   UNL     1       3.916   3.437  18.952  0.00  0.00    +0.000 A 
ATOM      7  C   UNL     1       3.937   2.420  19.913  0.00  0.00    +0.000 A 
ATOM      8  F   UNL     1       4.892   1.478  19.857  0.00  0.00    +0.000 F 
ATOM      9  C   UNL     1       2.971   2.340  20.910  0.00  0.00    +0.000 A 
ATOM     10  C   UNL     1       1.974   3.308  20.963  0.00  0.00    +0.000 A 
ATOM     11  F   UNL     1       1.040   3.235  21.918  0.00  0.00    +0.000 F 
ATOM     12  C   UNL     1       1.938   4.355  20.051  0.00  0.00    +0.000 A 
ATOM     13  C   UNL     1       2.922   4.421  19.064  0.00  0.00    +0.000 A 
ATOM     14  H   UNL     1       3.856   6.189  16.429  0.00  0.00    +0.000 HD
ATOM     15  H   UNL     1       5.383   2.657  17.801  0.00  0.00    +0.000 HD
ENDROOT
BRANCH   4  16
ATOM     16  C   UNL     1       5.513   4.375  15.702  0.00  0.00    +0.000 A 
ATOM     17  C   UNL     1       5.464   3.920  14.393  0.00  0.00    +0.000 A 
ATOM     18  N   UNL     1       6.590   4.374  13.785  0.00  0.00    +0.000 N 
ATOM     19  N   UNL     1       7.383   5.088  14.592  0.00  0.00    +0.000 NA
ATOM     20  C   UNL     1       6.749   5.112  15.777  0.00  0.00    +0.000 A 
ATOM     21  H   UNL     1       6.879   4.245  12.821  0.00  0.00    +0.000 HD
BRANCH  20  22
ATOM     22  C   UNL     1       7.315   5.880  16.897  0.00  0.00    +0.000 A 
ATOM     23  C   UNL     1       7.475   7.267  16.780  0.00  0.00    +0.000 A 
ATOM     24  C   UNL     1       7.960   8.028  17.847  0.00  0.00    +0.000 A 
ATOM     25  C   UNL     1       8.277   7.412  19.055  0.00  0.00    +0.000 A 
ATOM     26  C   UNL     1       8.152   6.032  19.178  0.00  0.00    +0.000 A 
ATOM     27  C   UNL     1       7.703   5.269  18.097  0.00  0.00    +0.000 A 
ENDBRANCH  20  22
ENDBRANCH   4  16
TORSDOF 2
ENDMDL
MODEL 3
REMARK VINA RESULT:      -9.1      1.812      2.365
REMARK  Name = 
REMARK  2 active torsions:
REMARK  status: ('A' for Active; 'I' for Inactive)
REMARK    1  A    between atoms: C_4  and  C_5
REMARK    2  A    between atoms: C_9  and  C_10
REMARK                            x       y       z     vdW  Elec       q    Type
REMARK                         _______ _______ _______ _____ _____    ______ ____
ROOT
ATOM      1  O   UNL     1       3.732   0.749  18.494  0.00  0.00    +0.000 OA
ATOM      2  C   UNL     1       3.734   1.954  18.280  0.00  0.00    +0.000 C 
ATOM      3  N   UNL     1       4.458   2.508  17.256  0.00  0.00    +0.000 N 
ATOM      4  C   UNL     1       4.863   3.883  17.334  0.00  0.00    +0.000 C 
ATOM      5  N   UNL     1       3.672   4.670  17.584  0.00  0.00    +0.000 N 
ATOM      6  C   UNL     1       2.973   4.252  18.737  0.00  0.00    +0.000 A 
ATOM      7  C   UNL     1       2.169   5.137  19.464  0.00  0.00    +0.000 A 
ATOM      8  F   UNL     1       2.132   6.433  19.117  0.00  0.00    +0.000 F 
ATOM      9  C   UNL     1       1.429   4.713  20.562  0.00  0.00    +0.000 A 
ATOM     10  C   UNL     1       1.475   3.373  20.931  0.00  0.00    +0.000 A 
ATOM     11  F   UNL     1       0.768   2.960  21.988  0.00  0.00    +0.000 F 
ATOM     12  C   UNL     1       2.231   2.455  20.214  0.00  0.00    +0.000 A 
ATOM     13  C   UNL     1       2.960   2.900  19.110  0.00  0.00    +0.000 A 
ATOM     14  H   UNL     1       5.074   1.856  16.791  0.00  0.00    +0.000 HD
ATOM     15  H   UNL     1       3.861   5.671  17.604  0.00  0.00    +0.000 HD
ENDROOT
BRANCH   4  16
ATOM     16  C   UNL     1       5.643   4.262  16.116  0.00  0.00    +0.000 A 
ATOM     17  C   UNL     1       5.478   3.788  14.823  0.00  0.00    +0.000 A 
ATOM     18  N   UNL     1       6.360   4.469  14.048  0.00  0.00    +0.000 N 
ATOM     19  N   UNL     1       7.100   5.352  14.728  0.00  0.00    +0.000 NA
ATOM     20  C   UNL     1       6.682   5.254  16.002  0.00  0.00    +0.000 A 
ATOM     21  H   UNL     1       6.506   4.392  13.047  0.00  0.00    +0.000 HD
BRANCH  20  22
ATOM     22  C   UNL     1       7.244   6.145  17.029  0.00  0.00    +0.000 A 
ATOM     23  C   UNL     1       7.638   5.618  18.266  0.00  0.00    +0.000 A 
ATOM     24  C   UNL     1       8.224   6.432  19.240  0.00  0.00    +0.000 A 
ATOM     25  C   UNL     1       8.439   7.783  18.983  0.00  0.00    +0.000 A 
ATOM     26  C   UNL     1       8.026   8.328  17.771  0.00  0.00    +0.000 A 
ATOM     27  C   UNL     1       7.405   7.520  16.814  0.00  0.00    +0.000 A 
ENDBRANCH  20  22
ENDBRANCH   4  16
TORSDOF 2
ENDMDL
MODEL 4
REMARK VINA RESULT:      -8.9      1.857      2.185
REMARK  Name = 
REMARK  2 active torsions:
REMARK  status: ('A' for Active; 'I' for Inactive)
REMARK    1  A    between atoms: C_4  and  C_5
REMARK    2  A    between atoms: C_9  and  C_10
REMARK                            x       y       z     vdW  Elec       q    Type
REMARK                         _______ _______ _______ _____ _____    ______ ____
ROOT
ATOM      1  O   UNL     1       5.422   2.105  20.452  0.00  0.00    +0.000 OA
ATOM      2  C   UNL     1       4.795   2.667  19.564  0.00  0.00    +0.000 C 
ATOM      3  N   UNL     1       5.386   3.045  18.386  0.00  0.00    +0.000 N 
ATOM      4  C   UNL     1       4.818   4.115  17.617  0.00  0.00    +0.000 C 
ATOM      5  N   UNL     1       3.422   3.792  17.392  0.00  0.00    +0.000 N 
ATOM      6  C   UNL     1       2.716   3.560  18.592  0.00  0.00    +0.000 A 
ATOM      7  C   UNL     1       1.335   3.776  18.678  0.00  0.00    +0.000 A 
ATOM      8  F   UNL     1       0.682   4.301  17.630  0.00  0.00    +0.000 F 
ATOM      9  C   UNL     1       0.626   3.488  19.839  0.00  0.00    +0.000 A 
ATOM     10  C   UNL     1       1.303   2.955  20.930  0.00  0.00    +0.000 A 
ATOM     11  F   UNL     1       0.626   2.680  22.050  0.00  0.00    +0.000 F 
ATOM     12  C   UNL     1       2.665   2.692  20.873  0.00  0.00    +0.000 A 
ATOM     13  C   UNL     1       3.357   2.980  19.696  0.00  0.00    +0.000 A 
ATOM     14  H   UNL     1       6.391   2.935  18.379  0.00  0.00    +0.000 HD
ATOM     15  H   UNL     1       2.951   4.479  16.806  0.00  0.00    +0.000 HD
ENDROOT
BRANCH   4  16
ATOM     16  C   UNL     1       5.631   4.355  16.386  0.00  0.00    +0.000 A 
ATOM     17  C   UNL     1       5.474   3.767  15.140  0.00  0.00    +0.000 A 
ATOM     18  N   UNL     1       6.392   4.345  14.323  0.00  0.00    +0.000 N 
ATOM     19  N   UNL     1       7.147   5.265  14.933  0.00  0.00    +0.000 NA
ATOM     20  C   UNL     1       6.703   5.300  16.201  0.00  0.00    +0.000 A 
ATOM     21  H   UNL     1       6.552   4.171  13.336  0.00  0.00    +0.000 HD
BRANCH  20  22
ATOM     22  C   UNL     1       7.275   6.265  17.153  0.00  0.00    +0.000 A 
ATOM     23  C   UNL     1       7.777   5.816  18.382  0.00  0.00    +0.000 A 
ATOM     24  C   UNL     1       8.374   6.704  19.282  0.00  0.00    +0.000 A 
ATOM     25  C   UNL     1       8.493   8.052  18.957  0.00  0.00    +0.000 A 
ATOM     26  C   UNL     1       7.974   8.519  17.754  0.00  0.00    +0.000 A 
ATOM     27  C   UNL     1       7.342   7.637  16.872  0.00  0.00    +0.000 A 
ENDBRANCH  20  22
ENDBRANCH   4  16
TORSDOF 2
ENDMDL
MODEL 5
REMARK VINA RESULT:      -8.1      1.421      3.920
REMARK  Name = 
REMARK  2 active torsions:
REMARK  status: ('A' for Active; 'I' for Inactive)
REMARK    1  A    between atoms: C_4  and  C_5
REMARK    2  A    between atoms: C_9  and  C_10
REMARK                            x       y       z     vdW  Elec       q    Type
REMARK                         _______ _______ _______ _____ _____    ______ ____
ROOT
ATOM      1  O   UNL     1       2.398   6.582  18.064  0.00  0.00    +0.000 OA
ATOM      2  C   UNL     1       3.071   5.617  17.728  0.00  0.00    +0.000 C 
ATOM      3  N   UNL     1       4.262   5.760  17.063  0.00  0.00    +0.000 N 
ATOM      4  C   UNL     1       4.753   4.687  16.246  0.00  0.00    +0.000 C 
ATOM      5  N   UNL     1       4.782   3.495  17.071  0.00  0.00    +0.000 N 
ATOM      6  C   UNL     1       3.528   3.199  17.647  0.00  0.00    +0.000 A 
ATOM      7  C   UNL     1       3.176   1.889  17.994  0.00  0.00    +0.000 A 
ATOM      8  F   UNL     1       4.006   0.879  17.690  0.00  0.00    +0.000 F 
ATOM      9  C   UNL     1       1.968   1.603  18.620  0.00  0.00    +0.000 A 
ATOM     10  C   UNL     1       1.101   2.646  18.926  0.00  0.00    +0.000 A 
ATOM     11  F   UNL     1      -0.064   2.376  19.525  0.00  0.00    +0.000 F 
ATOM     12  C   UNL     1       1.429   3.963  18.631  0.00  0.00    +0.000 A 
ATOM     13  C   UNL     1       2.650   4.230  18.010  0.00  0.00    +0.000 A 
ATOM     14  H   UNL     1       4.457   6.708  16.773  0.00  0.00    +0.000 HD
ATOM     15  H   UNL     1       5.169   2.690  16.581  0.00  0.00    +0.000 HD
ENDROOT
BRANCH   4  16
ATOM     16  C   UNL     1       6.055   5.070  15.619  0.00  0.00    +0.000 A 
ATOM     17  C   UNL     1       7.095   5.783  16.194  0.00  0.00    +0.000 A 
ATOM     18  N   UNL     1       8.091   5.823  15.272  0.00  0.00    +0.000 N 
ATOM     19  N   UNL     1       7.788   5.197  14.129  0.00  0.00    +0.000 NA
ATOM     20  C   UNL     1       6.545   4.718  14.310  0.00  0.00    +0.000 A 
ATOM     21  H   UNL     1       9.008   6.249  15.356  0.00  0.00    +0.000 HD
BRANCH  20  22
ATOM     22  C   UNL     1       5.912   3.904  13.260  0.00  0.00    +0.000 A 
ATOM     23  C   UNL     1       4.608   4.200  12.841  0.00  0.00    +0.000 A 
ATOM     24  C   UNL     1       4.003   3.477  11.809  0.00  0.00    +0.000 A 
ATOM     25  C   UNL     1       4.702   2.457  11.169  0.00  0.00    +0.000 A 
ATOM     26  C   UNL     1       5.987   2.131  11.592  0.00  0.00    +0.000 A 
ATOM     27  C   UNL     1       6.575   2.830  12.650  0.00  0.00    +0.000 A 
ENDBRANCH  20  22
ENDBRANCH   4  16
TORSDOF 2
ENDMDL
MODEL 6
REMARK VINA RESULT:      -8.1      3.603      5.744
REMARK  Name = 
REMARK  2 active torsions:
REMARK  status: ('A' for Active; 'I' for Inactive)
REMARK    1  A    between atoms: C_4  and  C_5
REMARK    2  A    between atoms: C_9  and  C_10
REMARK                            x       y       z     vdW  Elec       q    Type
REMARK                         _______ _______ _______ _____ _____    ______ ____
ROOT
ATOM      1  O   UNL     1       3.442   7.921  16.765  0.00  0.00    +0.000 OA
ATOM      2  C   UNL     1       3.009   7.585  17.860  0.00  0.00    +0.000 C 
ATOM      3  N   UNL     1       3.328   6.378  18.428  0.00  0.00    +0.000 N 
ATOM      4  C   UNL     1       2.448   5.796  19.400  0.00  0.00    +0.000 C 
ATOM      5  N   UNL     1       2.227   6.790  20.433  0.00  0.00    +0.000 N 
ATOM      6  C   UNL     1       1.729   8.007  19.922  0.00  0.00    +0.000 A 
ATOM      7  C   UNL     1       0.952   8.865  20.709  0.00  0.00    +0.000 A 
ATOM      8  F   UNL     1       0.594   8.484  21.945  0.00  0.00    +0.000 F 
ATOM      9  C   UNL     1       0.513  10.094  20.229  0.00  0.00    +0.000 A 
ATOM     10  C   UNL     1       0.874  10.485  18.944  0.00  0.00    +0.000 A 
ATOM     11  F   UNL     1       0.452  11.665  18.476  0.00  0.00    +0.000 F 
ATOM     12  C   UNL     1       1.673   9.679  18.144  0.00  0.00    +0.000 A 
ATOM     13  C   UNL     1       2.110   8.454  18.648  0.00  0.00    +0.000 A 
ATOM     14  H   UNL     1       3.835   5.758  17.812  0.00  0.00    +0.000 HD
ATOM     15  H   UNL     1       1.650   6.439  21.196  0.00  0.00    +0.000 HD
ENDROOT
BRANCH   4  16
ATOM     16  C   UNL     1       2.994   4.486  19.871  0.00  0.00    +0.000 A 
ATOM     17  C   UNL     1       2.501   3.679  20.885  0.00  0.00    +0.000 A 
ATOM     18  N   UNL     1       3.278   2.565  20.903  0.00  0.00    +0.000 N 
ATOM     19  N   UNL     1       4.250   2.576  19.984  0.00  0.00    +0.000 NA
ATOM     20  C   UNL     1       4.102   3.741  19.329  0.00  0.00    +0.000 A 
ATOM     21  H   UNL     1       3.198   1.753  21.505  0.00  0.00    +0.000 HD
BRANCH  20  22
ATOM     22  C   UNL     1       4.977   4.059  18.189  0.00  0.00    +0.000 A 
ATOM     23  C   UNL     1       4.540   3.801  16.883  0.00  0.00    +0.000 A 
ATOM     24  C   UNL     1       5.328   4.142  15.781  0.00  0.00    +0.000 A 
ATOM     25  C   UNL     1       6.560   4.762  15.969  0.00  0.00    +0.000 A 
ATOM     26  C   UNL     1       7.022   4.999  17.260  0.00  0.00    +0.000 A 
ATOM     27  C   UNL     1       6.249   4.622  18.362  0.00  0.00    +0.000 A 
ENDBRANCH  20  22
ENDBRANCH   4  16
TORSDOF 2
ENDMDL
MODEL 7
REMARK VINA RESULT:      -8.1      3.808      6.021
REMARK  Name = 
REMARK  2 active torsions:
REMARK  status: ('A' for Active; 'I' for Inactive)
REMARK    1  A    between atoms: C_4  and  C_5
REMARK    2  A    between atoms: C_9  and  C_10
REMARK                            x       y       z     vdW  Elec       q    Type
REMARK                         _______ _______ _______ _____ _____    ______ ____
ROOT
ATOM      1  O   UNL     1       3.264   8.002  17.104  0.00  0.00    +0.000 OA
ATOM      2  C   UNL     1       2.791   7.685  18.187  0.00  0.00    +0.000 C 
ATOM      3  N   UNL     1       3.065   6.475  18.772  0.00  0.00    +0.000 N 
ATOM      4  C   UNL     1       2.143   5.919  19.721  0.00  0.00    +0.000 C 
ATOM      5  N   UNL     1       1.913   6.926  20.740  0.00  0.00    +0.000 N 
ATOM      6  C   UNL     1       1.459   8.150  20.206  0.00  0.00    +0.000 A 
ATOM      7  C   UNL     1       0.679   9.031  20.963  0.00  0.00    +0.000 A 
ATOM      8  F   UNL     1       0.274   8.668  22.190  0.00  0.00    +0.000 F 
ATOM      9  C   UNL     1       0.283  10.266  20.462  0.00  0.00    +0.000 A 
ATOM     10  C   UNL     1       0.691  10.640  19.187  0.00  0.00    +0.000 A 
ATOM     11  F   UNL     1       0.310  11.826  18.698  0.00  0.00    +0.000 F 
ATOM     12  C   UNL     1       1.496   9.811  18.417  0.00  0.00    +0.000 A 
ATOM     13  C   UNL     1       1.889   8.579  18.941  0.00  0.00    +0.000 A 
ATOM     14  H   UNL     1       3.576   5.839  18.176  0.00  0.00    +0.000 HD
ATOM     15  H   UNL     1       1.306   6.593  21.487  0.00  0.00    +0.000 HD
ENDROOT
BRANCH   4  16
ATOM     16  C   UNL     1       2.644   4.601  20.217  0.00  0.00    +0.000 A 
ATOM     17  C   UNL     1       2.144   3.846  21.266  0.00  0.00    +0.000 A 
ATOM     18  N   UNL     1       2.872   2.700  21.297  0.00  0.00    +0.000 N 
ATOM     19  N   UNL     1       3.819   2.642  20.354  0.00  0.00    +0.000 NA
ATOM     20  C   UNL     1       3.704   3.793  19.669  0.00  0.00    +0.000 A 
ATOM     21  H   UNL     1       2.773   1.910  21.926  0.00  0.00    +0.000 HD
BRANCH  20  22
ATOM     22  C   UNL     1       4.560   4.039  18.498  0.00  0.00    +0.000 A 
ATOM     23  C   UNL     1       5.863   4.523  18.678  0.00  0.00    +0.000 A 
ATOM     24  C   UNL     1       6.716   4.715  17.587  0.00  0.00    +0.000 A 
ATOM     25  C   UNL     1       6.282   4.409  16.301  0.00  0.00    +0.000 A 
ATOM     26  C   UNL     1       4.982   3.955  16.101  0.00  0.00    +0.000 A 
ATOM     27  C   UNL     1       4.118   3.800  17.189  0.00  0.00    +0.000 A 
ENDBRANCH  20  22
ENDBRANCH   4  16
TORSDOF 2
ENDMDL
MODEL 8
REMARK VINA RESULT:      -8.0      3.936      6.223
REMARK  Name = 
REMARK  2 active torsions:
REMARK  status: ('A' for Active; 'I' for Inactive)
REMARK    1  A    between atoms: C_4  and  C_5
REMARK    2  A    between atoms: C_9  and  C_10
REMARK                            x       y       z     vdW  Elec       q    Type
REMARK                         _______ _______ _______ _____ _____    ______ ____
ROOT
ATOM      1  O   UNL     1       2.088  10.902  17.339  0.00  0.00    +0.000 OA
ATOM      2  C   UNL     1       2.079   9.891  18.028  0.00  0.00    +0.000 C 
ATOM      3  N   UNL     1       2.858   8.803  17.731  0.00  0.00    +0.000 N 
ATOM      4  C   UNL     1       2.471   7.502  18.198  0.00  0.00    +0.000 C 
ATOM      5  N   UNL     1       2.275   7.599  19.632  0.00  0.00    +0.000 N 
ATOM      6  C   UNL     1       1.344   8.596  19.990  0.00  0.00    +0.000 A 
ATOM      7  C   UNL     1       0.606   8.513  21.177  0.00  0.00    +0.000 A 
ATOM      8  F   UNL     1       0.716   7.420  21.948  0.00  0.00    +0.000 F 
ATOM      9  C   UNL     1      -0.265   9.525  21.564  0.00  0.00    +0.000 A 
ATOM     10  C   UNL     1      -0.390  10.653  20.761  0.00  0.00    +0.000 A 
ATOM     11  F   UNL     1      -1.230  11.628  21.127  0.00  0.00    +0.000 F 
ATOM     12  C   UNL     1       0.351  10.791  19.595  0.00  0.00    +0.000 A 
ATOM     13  C   UNL     1       1.226   9.768  19.228  0.00  0.00    +0.000 A 
ATOM     14  H   UNL     1       3.328   8.868  16.839  0.00  0.00    +0.000 HD
ATOM     15  H   UNL     1       2.047   6.702  20.057  0.00  0.00    +0.000 HD
ENDROOT
BRANCH   4  16
ATOM     16  C   UNL     1       3.460   6.476  17.750  0.00  0.00    +0.000 A 
ATOM     17  C   UNL     1       4.555   6.661  16.919  0.00  0.00    +0.000 A 
ATOM     18  N   UNL     1       5.196   5.466  16.854  0.00  0.00    +0.000 N 
ATOM     19  N   UNL     1       4.608   4.503  17.573  0.00  0.00    +0.000 NA
ATOM     20  C   UNL     1       3.540   5.091  18.140  0.00  0.00    +0.000 A 
ATOM     21  H   UNL     1       6.045   5.236  16.350  0.00  0.00    +0.000 HD
BRANCH  20  22
ATOM     22  C   UNL     1       2.688   4.329  19.067  0.00  0.00    +0.000 A 
ATOM     23  C   UNL     1       2.987   4.315  20.436  0.00  0.00    +0.000 A 
ATOM     24  C   UNL     1       2.164   3.643  21.344  0.00  0.00    +0.000 A 
ATOM     25  C   UNL     1       1.020   2.988  20.897  0.00  0.00    +0.000 A 
ATOM     26  C   UNL     1       0.725   2.967  19.538  0.00  0.00    +0.000 A 
ATOM     27  C   UNL     1       1.570   3.607  18.626  0.00  0.00    +0.000 A 
ENDBRANCH  20  22
ENDBRANCH   4  16
TORSDOF 2
ENDMDL
MODEL 9
REMARK VINA RESULT:      -8.0      1.514      3.941
REMARK  Name = 
REMARK  2 active torsions:
REMARK  status: ('A' for Active; 'I' for Inactive)
REMARK    1  A    between atoms: C_4  and  C_5
REMARK    2  A    between atoms: C_9  and  C_10
REMARK                            x       y       z     vdW  Elec       q    Type
REMARK                         _______ _______ _______ _____ _____    ______ ____
ROOT
ATOM      1  O   UNL     1       2.622   6.694  17.889  0.00  0.00    +0.000 OA
ATOM      2  C   UNL     1       3.264   5.706  17.560  0.00  0.00    +0.000 C 
ATOM      3  N   UNL     1       4.437   5.804  16.856  0.00  0.00    +0.000 N 
ATOM      4  C   UNL     1       4.880   4.699  16.055  0.00  0.00    +0.000 C 
ATOM      5  N   UNL     1       4.908   3.529  16.911  0.00  0.00    +0.000 N 
ATOM      6  C   UNL     1       3.667   3.276  17.532  0.00  0.00    +0.000 A 
ATOM      7  C   UNL     1       3.298   1.985  17.926  0.00  0.00    +0.000 A 
ATOM      8  F   UNL     1       4.097   0.949  17.625  0.00  0.00    +0.000 F 
ATOM      9  C   UNL     1       2.103   1.742  18.595  0.00  0.00    +0.000 A 
ATOM     10  C   UNL     1       1.269   2.812  18.897  0.00  0.00    +0.000 A 
ATOM     11  F   UNL     1       0.117   2.584  19.538  0.00  0.00    +0.000 F 
ATOM     12  C   UNL     1       1.615   4.113  18.557  0.00  0.00    +0.000 A 
ATOM     13  C   UNL     1       2.822   4.336  17.893  0.00  0.00    +0.000 A 
ATOM     14  H   UNL     1       4.643   6.739  16.533  0.00  0.00    +0.000 HD
ATOM     15  H   UNL     1       5.263   2.702  16.432  0.00  0.00    +0.000 HD
ENDROOT
BRANCH   4  16
ATOM     16  C   UNL     1       6.170   5.035  15.378  0.00  0.00    +0.000 A 
ATOM     17  C   UNL     1       7.259   5.703  15.917  0.00  0.00    +0.000 A 
ATOM     18  N   UNL     1       8.219   5.711  14.956  0.00  0.00    +0.000 N 
ATOM     19  N   UNL     1       7.846   5.107  13.822  0.00  0.00    +0.000 NA
ATOM     20  C   UNL     1       6.594   4.675  14.049  0.00  0.00    +0.000 A 
ATOM     21  H   UNL     1       9.154   6.101  15.006  0.00  0.00    +0.000 HD
BRANCH  20  22
ATOM     22  C   UNL     1       5.888   3.896  13.019  0.00  0.00    +0.000 A 
ATOM     23  C   UNL     1       6.501   2.767  12.459  0.00  0.00    +0.000 A 
ATOM     24  C   UNL     1       5.832   1.978  11.519  0.00  0.00    +0.000 A 
ATOM     25  C   UNL     1       4.533   2.299  11.138  0.00  0.00    +0.000 A 
ATOM     26  C   UNL     1       3.920   3.432  11.662  0.00  0.00    +0.000 A 
ATOM     27  C   UNL     1       4.605   4.242  12.573  0.00  0.00    +0.000 A 
ENDBRANCH  20  22
ENDBRANCH   4  16
TORSDOF 2
ENDMDL
