MODEL 1
REMARK VINA RESULT:      -8.6      0.000      0.000
REMARK  Name = 
REMARK  7 active torsions:
REMARK  status: ('A' for Active; 'I' for Inactive)
REMARK    1  A    between atoms: C_1  and  C_2
REMARK    2  A    between atoms: C_7  and  N_8
REMARK    3  A    between atoms: C_9  and  C_10
REMARK    4  A    between atoms: C_10  and  N_11
REMARK    5  A    between atoms: C_23  and  S_24
REMARK    6  A    between atoms: S_24  and  C_25
REMARK    7  A    between atoms: C_25  and  C_26
REMARK                            x       y       z     vdW  Elec       q    Type
REMARK                         _______ _______ _______ _____ _____    ______ ____
ROOT
ATOM      1  N   UNL     1       3.061   5.927  18.690  0.00  0.00    +0.000 N 
ATOM      2  C   UNL     1       2.640   7.248  18.445  0.00  0.00    +0.000 A 
ATOM      3  N   UNL     1       3.593   7.911  17.814  0.00  0.00    +0.000 NA
ATOM      4  N   UNL     1       4.615   7.055  17.540  0.00  0.00    +0.000 NA
ATOM      5  C   UNL     1       4.300   5.875  18.024  0.00  0.00    +0.000 A 
ENDROOT
BRANCH   1  12
ATOM      6  C   UNL     1       1.165   3.693  17.451  0.00  0.00    +0.000 C 
ATOM      7  C   UNL     1       1.555   3.882  18.891  0.00  0.00    +0.000 A 
ATOM      8  C   UNL     1       0.933   2.957  19.763  0.00  0.00    +0.000 A 
ATOM      9  C   UNL     1       1.085   3.014  21.146  0.00  0.00    +0.000 A 
ATOM     10  C   UNL     1       1.929   3.968  21.682  0.00  0.00    +0.000 A 
ATOM     11  C   UNL     1       2.614   4.848  20.836  0.00  0.00    +0.000 A 
ATOM     12  C   UNL     1       2.418   4.865  19.436  0.00  0.00    +0.000 A 
ENDBRANCH   1  12
BRANCH   2  13
ATOM     13  C   UNL     1       1.322   7.820  18.836  0.00  0.00    +0.000 C 
BRANCH  13  14
ATOM     14  N   UNL     1       1.354   9.155  19.400  0.00  0.00    +0.000 N 
ATOM     15  C   UNL     1       1.483  10.248  18.551  0.00  0.00    +0.000 A 
ATOM     16  O   UNL     1       1.801  10.222  17.372  0.00  0.00    +0.000 OA
ATOM     17  S   UNL     1       0.976  11.731  19.375  0.00  0.00    +0.000 S 
ATOM     18  C   UNL     1       0.455  10.816  20.795  0.00  0.00    +0.000 A 
ATOM     19  C   UNL     1      -0.244  11.295  21.894  0.00  0.00    +0.000 A 
ATOM     20  C   UNL     1      -0.606  10.394  22.897  0.00  0.00    +0.000 A 
ATOM     21  C   UNL     1      -0.246   9.042  22.794  0.00  0.00    +0.000 A 
ATOM     22  C   UNL     1       0.448   8.569  21.674  0.00  0.00    +0.000 A 
ATOM     23  C   UNL     1       0.772   9.463  20.661  0.00  0.00    +0.000 A 
ENDBRANCH  13  14
ENDBRANCH   2  13
BRANCH   5  24
ATOM     24  S   UNL     1       5.375   4.508  17.957  0.00  0.00    +0.000 S 
BRANCH  24  25
ATOM     25  C   UNL     1       7.026   5.244  17.920  0.00  0.00    +0.000 C 
BRANCH  25  26
ATOM     26  C   UNL     1       7.409   5.569  16.492  0.00  0.00    +0.000 C 
ATOM     27  O   UNL     1       7.956   6.635  16.223  0.00  0.00    +0.000 OA
ATOM     28  N   UNL     1       7.031   4.584  15.606  0.00  0.00    +0.000 N 
ATOM     29  C   UNL     1       7.239   4.723  14.265  0.00  0.00    +0.000 A 
ATOM     30  N   UNL     1       7.988   5.583  13.631  0.00  0.00    +0.000 NA
ATOM     31  C   UNL     1       7.842   5.408  12.272  0.00  0.00    +0.000 A 
ATOM     32  C   UNL     1       6.983   4.397  11.898  0.00  0.00    +0.000 A 
ATOM     33  S   UNL     1       6.377   3.608  13.299  0.00  0.00    +0.000 S 
ATOM     34  H   UNL     1       6.397   3.848  15.898  0.00  0.00    +0.000 HD
ENDBRANCH  25  26
ENDBRANCH  24  25
ENDBRANCH   5  24
TORSDOF 6
ENDMDL
MODEL 2
REMARK VINA RESULT:      -8.5      0.465      1.258
REMARK  Name = 
REMARK  7 active torsions:
REMARK  status: ('A' for Active; 'I' for Inactive)
REMARK    1  A    between atoms: C_1  and  C_2
REMARK    2  A    between atoms: C_7  and  N_8
REMARK    3  A    between atoms: C_9  and  C_10
REMARK    4  A    between atoms: C_10  and  N_11
REMARK    5  A    between atoms: C_23  and  S_24
REMARK    6  A    between atoms: S_24  and  C_25
REMARK    7  A    between atoms: C_25  and  C_26
REMARK                            x       y       z     vdW  Elec       q    Type
REMARK                         _______ _______ _______ _____ _____    ______ ____
ROOT
ATOM      1  N   UNL     1       2.868   5.895  18.356  0.00  0.00    +0.000 N 
ATOM      2  C   UNL     1       2.609   7.268  18.197  0.00  0.00    +0.000 A 
ATOM      3  N   UNL     1       3.696   7.881  17.762  0.00  0.00    +0.000 NA
ATOM      4  N   UNL     1       4.661   6.950  17.532  0.00  0.00    +0.000 NA
ATOM      5  C   UNL     1       4.176   5.772  17.850  0.00  0.00    +0.000 A 
ENDROOT
BRANCH   1  12
ATOM      6  C   UNL     1       2.279   5.431  21.448  0.00  0.00    +0.000 C 
ATOM      7  C   UNL     1       1.789   4.620  20.280  0.00  0.00    +0.000 A 
ATOM      8  C   UNL     1       1.018   3.497  20.666  0.00  0.00    +0.000 A 
ATOM      9  C   UNL     1       0.545   2.564  19.747  0.00  0.00    +0.000 A 
ATOM     10  C   UNL     1       0.779   2.779  18.402  0.00  0.00    +0.000 A 
ATOM     11  C   UNL     1       1.475   3.920  17.989  0.00  0.00    +0.000 A 
ATOM     12  C   UNL     1       2.035   4.843  18.903  0.00  0.00    +0.000 A 
ENDBRANCH   1  12
BRANCH   2  13
ATOM     13  C   UNL     1       1.309   7.940  18.475  0.00  0.00    +0.000 C 
BRANCH  13  14
ATOM     14  N   UNL     1       1.387   9.201  19.184  0.00  0.00    +0.000 N 
ATOM     15  C   UNL     1       1.602  10.372  18.465  0.00  0.00    +0.000 A 
ATOM     16  O   UNL     1       1.962  10.457  17.301  0.00  0.00    +0.000 OA
ATOM     17  S   UNL     1       1.140  11.782  19.432  0.00  0.00    +0.000 S 
ATOM     18  C   UNL     1       0.522  10.748  20.725  0.00  0.00    +0.000 A 
ATOM     19  C   UNL     1      -0.193  11.141  21.847  0.00  0.00    +0.000 A 
ATOM     20  C   UNL     1      -0.636  10.158  22.733  0.00  0.00    +0.000 A 
ATOM     21  C   UNL     1      -0.342   8.807  22.494  0.00  0.00    +0.000 A 
ATOM     22  C   UNL     1       0.369   8.422  21.350  0.00  0.00    +0.000 A 
ATOM     23  C   UNL     1       0.775   9.402  20.452  0.00  0.00    +0.000 A 
ENDBRANCH  13  14
ENDBRANCH   2  13
BRANCH   5  24
ATOM     24  S   UNL     1       5.118   4.310  17.779  0.00  0.00    +0.000 S 
BRANCH  24  25
ATOM     25  C   UNL     1       6.831   4.885  17.849  0.00  0.00    +0.000 C 
BRANCH  25  26
ATOM     26  C   UNL     1       7.278   5.325  16.471  0.00  0.00    +0.000 C 
ATOM     27  O   UNL     1       7.837   6.408  16.317  0.00  0.00    +0.000 OA
ATOM     28  N   UNL     1       6.942   4.420  15.490  0.00  0.00    +0.000 N 
ATOM     29  C   UNL     1       7.210   4.669  14.177  0.00  0.00    +0.000 A 
ATOM     30  N   UNL     1       7.987   5.576  13.650  0.00  0.00    +0.000 NA
ATOM     31  C   UNL     1       7.903   5.516  12.276  0.00  0.00    +0.000 A 
ATOM     32  C   UNL     1       7.062   4.542  11.780  0.00  0.00    +0.000 A 
ATOM     33  S   UNL     1       6.394   3.641  13.082  0.00  0.00    +0.000 S 
ATOM     34  H   UNL     1       6.295   3.663  15.691  0.00  0.00    +0.000 HD
ENDBRANCH  25  26
ENDBRANCH  24  25
ENDBRANCH   5  24
TORSDOF 6
ENDMDL
MODEL 3
REMARK VINA RESULT:      -8.0      1.074      1.146
REMARK  Name = 
REMARK  7 active torsions:
REMARK  status: ('A' for Active; 'I' for Inactive)
REMARK    1  A    between atoms: C_1  and  C_2
REMARK    2  A    between atoms: C_7  and  N_8
REMARK    3  A    between atoms: C_9  and  C_10
REMARK    4  A    between atoms: C_10  and  N_11
REMARK    5  A    between atoms: C_23  and  S_24
REMARK    6  A    between atoms: S_24  and  C_25
REMARK    7  A    between atoms: C_25  and  C_26
REMARK                            x       y       z     vdW  Elec       q    Type
REMARK                         _______ _______ _______ _____ _____    ______ ____
ROOT
ATOM      1  N   UNL     1       3.358   5.786  18.962  0.00  0.00    +0.000 N 
ATOM      2  C   UNL     1       2.980   7.090  18.591  0.00  0.00    +0.000 A 
ATOM      3  N   UNL     1       4.031   7.747  18.134  0.00  0.00    +0.000 NA
ATOM      4  N   UNL     1       5.095   6.899  18.096  0.00  0.00    +0.000 NA
ATOM      5  C   UNL     1       4.703   5.732  18.554  0.00  0.00    +0.000 A 
ENDROOT
BRANCH   1  12
ATOM      6  C   UNL     1       1.192   3.942  17.538  0.00  0.00    +0.000 C 
ATOM      7  C   UNL     1       1.610   3.932  18.982  0.00  0.00    +0.000 A 
ATOM      8  C   UNL     1       0.883   3.005  19.767  0.00  0.00    +0.000 A 
ATOM      9  C   UNL     1       1.048   2.901  21.146  0.00  0.00    +0.000 A 
ATOM     10  C   UNL     1       2.007   3.683  21.760  0.00  0.00    +0.000 A 
ATOM     11  C   UNL     1       2.791   4.554  20.996  0.00  0.00    +0.000 A 
ATOM     12  C   UNL     1       2.592   4.739  19.608  0.00  0.00    +0.000 A 
ENDBRANCH   1  12
BRANCH   2  13
ATOM     13  C   UNL     1       1.605   7.653  18.695  0.00  0.00    +0.000 C 
BRANCH  13  14
ATOM     14  N   UNL     1       1.511   8.997  19.232  0.00  0.00    +0.000 N 
ATOM     15  C   UNL     1       1.594  10.080  18.365  0.00  0.00    +0.000 A 
ATOM     16  O   UNL     1       1.965  10.057  17.201  0.00  0.00    +0.000 OA
ATOM     17  S   UNL     1       0.940  11.536  19.133  0.00  0.00    +0.000 S 
ATOM     18  C   UNL     1       0.428  10.610  20.550  0.00  0.00    +0.000 A 
ATOM     19  C   UNL     1      -0.354  11.054  21.607  0.00  0.00    +0.000 A 
ATOM     20  C   UNL     1      -0.690  10.147  22.613  0.00  0.00    +0.000 A 
ATOM     21  C   UNL     1      -0.225   8.825  22.556  0.00  0.00    +0.000 A 
ATOM     22  C   UNL     1       0.553   8.385  21.477  0.00  0.00    +0.000 A 
ATOM     23  C   UNL     1       0.852   9.283  20.459  0.00  0.00    +0.000 A 
ENDBRANCH  13  14
ENDBRANCH   2  13
BRANCH   5  24
ATOM     24  S   UNL     1       5.783   4.381  18.749  0.00  0.00    +0.000 S 
BRANCH  24  25
ATOM     25  C   UNL     1       7.082   4.673  17.525  0.00  0.00    +0.000 C 
BRANCH  25  26
ATOM     26  C   UNL     1       6.633   4.163  16.172  0.00  0.00    +0.000 C 
ATOM     27  O   UNL     1       5.887   3.191  16.092  0.00  0.00    +0.000 OA
ATOM     28  N   UNL     1       7.188   4.870  15.129  0.00  0.00    +0.000 N 
ATOM     29  C   UNL     1       6.949   4.521  13.832  0.00  0.00    +0.000 A 
ATOM     30  N   UNL     1       6.042   3.717  13.348  0.00  0.00    +0.000 NA
ATOM     31  C   UNL     1       6.210   3.599  11.985  0.00  0.00    +0.000 A 
ATOM     32  C   UNL     1       7.246   4.336  11.454  0.00  0.00    +0.000 A 
ATOM     33  S   UNL     1       8.004   5.245  12.700  0.00  0.00    +0.000 S 
ATOM     34  H   UNL     1       7.956   5.512  15.296  0.00  0.00    +0.000 HD
ENDBRANCH  25  26
ENDBRANCH  24  25
ENDBRANCH   5  24
TORSDOF 6
ENDMDL
MODEL 4
REMARK VINA RESULT:      -8.0      5.851     10.016
REMARK  Name = 
REMARK  7 active torsions:
REMARK  status: ('A' for Active; 'I' for Inactive)
REMARK    1  A    between atoms: C_1  and  C_2
REMARK    2  A    between atoms: C_7  and  N_8
REMARK    3  A    between atoms: C_9  and  C_10
REMARK    4  A    between atoms: C_10  and  N_11
REMARK    5  A    between atoms: C_23  and  S_24
REMARK    6  A    between atoms: S_24  and  C_25
REMARK    7  A    between atoms: C_25  and  C_26
REMARK                            x       y       z     vdW  Elec       q    Type
REMARK                         _______ _______ _______ _____ _____    ______ ____
ROOT
ATOM      1  N   UNL     1       0.270  11.125  18.914  0.00  0.00    +0.000 N 
ATOM      2  C   UNL     1       0.743  12.410  19.239  0.00  0.00    +0.000 A 
ATOM      3  N   UNL     1      -0.077  13.324  18.750  0.00  0.00    +0.000 NA
ATOM      4  N   UNL     1      -1.143  12.697  18.182  0.00  0.00    +0.000 NA
ATOM      5  C   UNL     1      -0.964  11.401  18.299  0.00  0.00    +0.000 A 
ENDROOT
BRANCH   1  12
ATOM      6  C   UNL     1       0.270   9.534  21.669  0.00  0.00    +0.000 C 
ATOM      7  C   UNL     1       0.894   9.124  20.364  0.00  0.00    +0.000 A 
ATOM      8  C   UNL     1       1.597   7.898  20.443  0.00  0.00    +0.000 A 
ATOM      9  C   UNL     1       2.325   7.384  19.373  0.00  0.00    +0.000 A 
ATOM     10  C   UNL     1       2.303   8.061  18.169  0.00  0.00    +0.000 A 
ATOM     11  C   UNL     1       1.556   9.237  18.043  0.00  0.00    +0.000 A 
ATOM     12  C   UNL     1       0.872   9.825  19.133  0.00  0.00    +0.000 A 
ENDBRANCH   1  12
BRANCH   2  13
ATOM     13  C   UNL     1       1.979  12.705  20.015  0.00  0.00    +0.000 C 
BRANCH  13  14
ATOM     14  N   UNL     1       2.284  14.109  20.209  0.00  0.00    +0.000 N 
ATOM     15  C   UNL     1       1.927  14.721  21.404  0.00  0.00    +0.000 A 
ATOM     16  O   UNL     1       1.173  14.276  22.256  0.00  0.00    +0.000 OA
ATOM     17  S   UNL     1       2.841  16.223  21.624  0.00  0.00    +0.000 S 
ATOM     18  C   UNL     1       3.795  15.906  20.170  0.00  0.00    +0.000 A 
ATOM     19  C   UNL     1       4.907  16.606  19.724  0.00  0.00    +0.000 A 
ATOM     20  C   UNL     1       5.553  16.165  18.569  0.00  0.00    +0.000 A 
ATOM     21  C   UNL     1       5.069  15.048  17.872  0.00  0.00    +0.000 A 
ATOM     22  C   UNL     1       3.954  14.341  18.339  0.00  0.00    +0.000 A 
ATOM     23  C   UNL     1       3.337  14.763  19.511  0.00  0.00    +0.000 A 
ENDBRANCH  13  14
ENDBRANCH   2  13
BRANCH   5  24
ATOM     24  S   UNL     1      -2.065  10.230  17.629  0.00  0.00    +0.000 S 
BRANCH  24  25
ATOM     25  C   UNL     1      -3.472  11.218  17.067  0.00  0.00    +0.000 C 
BRANCH  25  26
ATOM     26  C   UNL     1      -4.485  11.345  18.183  0.00  0.00    +0.000 C 
ATOM     27  O   UNL     1      -5.470  10.612  18.214  0.00  0.00    +0.000 OA
ATOM     28  N   UNL     1      -4.183  12.364  19.059  0.00  0.00    +0.000 N 
ATOM     29  C   UNL     1      -5.011  12.671  20.098  0.00  0.00    +0.000 A 
ATOM     30  N   UNL     1      -6.005  11.985  20.593  0.00  0.00    +0.000 NA
ATOM     31  C   UNL     1      -6.614  12.710  21.594  0.00  0.00    +0.000 A 
ATOM     32  C   UNL     1      -6.055  13.942  21.852  0.00  0.00    +0.000 A 
ATOM     33  S   UNL     1      -4.688  14.178  20.836  0.00  0.00    +0.000 S 
ATOM     34  H   UNL     1      -3.469  13.046  18.825  0.00  0.00    +0.000 HD
ENDBRANCH  25  26
ENDBRANCH  24  25
ENDBRANCH   5  24
TORSDOF 6
ENDMDL
MODEL 5
REMARK VINA RESULT:      -7.9      4.163      7.772
REMARK  Name = 
REMARK  7 active torsions:
REMARK  status: ('A' for Active; 'I' for Inactive)
REMARK    1  A    between atoms: C_1  and  C_2
REMARK    2  A    between atoms: C_7  and  N_8
REMARK    3  A    between atoms: C_9  and  C_10
REMARK    4  A    between atoms: C_10  and  N_11
REMARK    5  A    between atoms: C_23  and  S_24
REMARK    6  A    between atoms: S_24  and  C_25
REMARK    7  A    between atoms: C_25  and  C_26
REMARK                            x       y       z     vdW  Elec       q    Type
REMARK                         _______ _______ _______ _____ _____    ______ ____
ROOT
ATOM      1  N   UNL     1      -0.265  11.437  21.522  0.00  0.00    +0.000 N 
ATOM      2  C   UNL     1      -0.959  11.582  22.737  0.00  0.00    +0.000 A 
ATOM      3  N   UNL     1      -1.060  10.409  23.337  0.00  0.00    +0.000 NA
ATOM      4  N   UNL     1      -0.375   9.485  22.610  0.00  0.00    +0.000 NA
ATOM      5  C   UNL     1       0.124  10.084  21.553  0.00  0.00    +0.000 A 
ENDROOT
BRANCH   1  12
ATOM      6  C   UNL     1      -1.996  11.808  18.879  0.00  0.00    +0.000 C 
ATOM      7  C   UNL     1      -0.757  12.555  19.286  0.00  0.00    +0.000 A 
ATOM      8  C   UNL     1      -0.325  13.489  18.314  0.00  0.00    +0.000 A 
ATOM      9  C   UNL     1       0.853  14.220  18.451  0.00  0.00    +0.000 A 
ATOM     10  C   UNL     1       1.592  14.078  19.610  0.00  0.00    +0.000 A 
ATOM     11  C   UNL     1       1.147  13.216  20.618  0.00  0.00    +0.000 A 
ATOM     12  C   UNL     1      -0.001  12.403  20.475  0.00  0.00    +0.000 A 
ENDBRANCH   1  12
BRANCH   2  13
ATOM     13  C   UNL     1      -1.501  12.861  23.274  0.00  0.00    +0.000 C 
BRANCH  13  14
ATOM     14  N   UNL     1      -2.795  13.265  22.759  0.00  0.00    +0.000 N 
ATOM     15  C   UNL     1      -3.948  12.818  23.394  0.00  0.00    +0.000 A 
ATOM     16  O   UNL     1      -4.024  11.926  24.226  0.00  0.00    +0.000 OA
ATOM     17  S   UNL     1      -5.331  13.829  22.944  0.00  0.00    +0.000 S 
ATOM     18  C   UNL     1      -4.287  14.925  22.029  0.00  0.00    +0.000 A 
ATOM     19  C   UNL     1      -4.637  16.142  21.463  0.00  0.00    +0.000 A 
ATOM     20  C   UNL     1      -3.648  16.885  20.817  0.00  0.00    +0.000 A 
ATOM     21  C   UNL     1      -2.337  16.392  20.733  0.00  0.00    +0.000 A 
ATOM     22  C   UNL     1      -1.993  15.168  21.320  0.00  0.00    +0.000 A 
ATOM     23  C   UNL     1      -2.974  14.451  21.995  0.00  0.00    +0.000 A 
ENDBRANCH  13  14
ENDBRANCH   2  13
BRANCH   5  24
ATOM     24  S   UNL     1       1.008   9.239  20.315  0.00  0.00    +0.000 S 
BRANCH  24  25
ATOM     25  C   UNL     1       1.432   7.656  21.078  0.00  0.00    +0.000 C 
BRANCH  25  26
ATOM     26  C   UNL     1       2.200   6.802  20.091  0.00  0.00    +0.000 C 
ATOM     27  O   UNL     1       2.485   7.242  18.981  0.00  0.00    +0.000 OA
ATOM     28  N   UNL     1       2.461   5.539  20.575  0.00  0.00    +0.000 N 
ATOM     29  C   UNL     1       3.092   4.605  19.807  0.00  0.00    +0.000 A 
ATOM     30  N   UNL     1       3.748   4.762  18.689  0.00  0.00    +0.000 NA
ATOM     31  C   UNL     1       4.159   3.533  18.219  0.00  0.00    +0.000 A 
ATOM     32  C   UNL     1       3.814   2.456  19.007  0.00  0.00    +0.000 A 
ATOM     33  S   UNL     1       2.988   3.010  20.409  0.00  0.00    +0.000 S 
ATOM     34  H   UNL     1       1.997   5.205  21.414  0.00  0.00    +0.000 HD
ENDBRANCH  25  26
ENDBRANCH  24  25
ENDBRANCH   5  24
TORSDOF 6
ENDMDL
MODEL 6
REMARK VINA RESULT:      -7.9      4.265      7.719
REMARK  Name = 
REMARK  7 active torsions:
REMARK  status: ('A' for Active; 'I' for Inactive)
REMARK    1  A    between atoms: C_1  and  C_2
REMARK    2  A    between atoms: C_7  and  N_8
REMARK    3  A    between atoms: C_9  and  C_10
REMARK    4  A    between atoms: C_10  and  N_11
REMARK    5  A    between atoms: C_23  and  S_24
REMARK    6  A    between atoms: S_24  and  C_25
REMARK    7  A    between atoms: C_25  and  C_26
REMARK                            x       y       z     vdW  Elec       q    Type
REMARK                         _______ _______ _______ _____ _____    ______ ____
ROOT
ATOM      1  N   UNL     1      -0.338  11.835  19.682  0.00  0.00    +0.000 N 
ATOM      2  C   UNL     1       0.413  13.025  19.650  0.00  0.00    +0.000 A 
ATOM      3  N   UNL     1       1.267  13.041  20.658  0.00  0.00    +0.000 NA
ATOM      4  N   UNL     1       1.185  11.856  21.321  0.00  0.00    +0.000 NA
ATOM      5  C   UNL     1       0.263  11.125  20.737  0.00  0.00    +0.000 A 
ENDROOT
BRANCH   1  12
ATOM      6  C   UNL     1      -3.356  12.766  20.061  0.00  0.00    +0.000 C 
ATOM      7  C   UNL     1      -2.804  11.808  19.042  0.00  0.00    +0.000 A 
ATOM      8  C   UNL     1      -3.801  11.243  18.211  0.00  0.00    +0.000 A 
ATOM      9  C   UNL     1      -3.517  10.263  17.263  0.00  0.00    +0.000 A 
ATOM     10  C   UNL     1      -2.202   9.878  17.080  0.00  0.00    +0.000 A 
ATOM     11  C   UNL     1      -1.189  10.474  17.838  0.00  0.00    +0.000 A 
ATOM     12  C   UNL     1      -1.456  11.413  18.862  0.00  0.00    +0.000 A 
ENDBRANCH   1  12
BRANCH   2  13
ATOM     13  C   UNL     1       0.271  14.108  18.638  0.00  0.00    +0.000 C 
BRANCH  13  14
ATOM     14  N   UNL     1       0.932  15.359  18.954  0.00  0.00    +0.000 N 
ATOM     15  C   UNL     1       0.387  16.186  19.929  0.00  0.00    +0.000 A 
ATOM     16  O   UNL     1      -0.729  16.100  20.419  0.00  0.00    +0.000 OA
ATOM     17  S   UNL     1       1.599  17.342  20.505  0.00  0.00    +0.000 S 
ATOM     18  C   UNL     1       2.856  16.578  19.525  0.00  0.00    +0.000 A 
ATOM     19  C   UNL     1       4.218  16.840  19.550  0.00  0.00    +0.000 A 
ATOM     20  C   UNL     1       5.057  16.089  18.726  0.00  0.00    +0.000 A 
ATOM     21  C   UNL     1       4.520  15.107  17.880  0.00  0.00    +0.000 A 
ATOM     22  C   UNL     1       3.145  14.842  17.873  0.00  0.00    +0.000 A 
ATOM     23  C   UNL     1       2.319  15.567  18.724  0.00  0.00    +0.000 A 
ENDBRANCH  13  14
ENDBRANCH   2  13
BRANCH   5  24
ATOM     24  S   UNL     1      -0.214   9.557  21.326  0.00  0.00    +0.000 S 
BRANCH  24  25
ATOM     25  C   UNL     1       1.351   8.717  21.664  0.00  0.00    +0.000 C 
BRANCH  25  26
ATOM     26  C   UNL     1       1.717   7.829  20.495  0.00  0.00    +0.000 C 
ATOM     27  O   UNL     1       1.854   8.306  19.372  0.00  0.00    +0.000 OA
ATOM     28  N   UNL     1       1.814   6.501  20.848  0.00  0.00    +0.000 N 
ATOM     29  C   UNL     1       2.079   5.540  19.918  0.00  0.00    +0.000 A 
ATOM     30  N   UNL     1       2.513   5.673  18.694  0.00  0.00    +0.000 NA
ATOM     31  C   UNL     1       2.568   4.437  18.087  0.00  0.00    +0.000 A 
ATOM     32  C   UNL     1       2.183   3.375  18.877  0.00  0.00    +0.000 A 
ATOM     33  S   UNL     1       1.784   3.943  20.450  0.00  0.00    +0.000 S 
ATOM     34  H   UNL     1       1.473   6.185  21.750  0.00  0.00    +0.000 HD
ENDBRANCH  25  26
ENDBRANCH  24  25
ENDBRANCH   5  24
TORSDOF 6
ENDMDL
MODEL 7
REMARK VINA RESULT:      -7.8      6.109      9.504
REMARK  Name = 
REMARK  7 active torsions:
REMARK  status: ('A' for Active; 'I' for Inactive)
REMARK    1  A    between atoms: C_1  and  C_2
REMARK    2  A    between atoms: C_7  and  N_8
REMARK    3  A    between atoms: C_9  and  C_10
REMARK    4  A    between atoms: C_10  and  N_11
REMARK    5  A    between atoms: C_23  and  S_24
REMARK    6  A    between atoms: S_24  and  C_25
REMARK    7  A    between atoms: C_25  and  C_26
REMARK                            x       y       z     vdW  Elec       q    Type
REMARK                         _______ _______ _______ _____ _____    ______ ____
ROOT
ATOM      1  N   UNL     1      -0.166  11.225  19.239  0.00  0.00    +0.000 N 
ATOM      2  C   UNL     1       0.022  12.573  19.594  0.00  0.00    +0.000 A 
ATOM      3  N   UNL     1      -0.594  13.354  18.724  0.00  0.00    +0.000 NA
ATOM      4  N   UNL     1      -1.273  12.575  17.839  0.00  0.00    +0.000 NA
ATOM      5  C   UNL     1      -1.052  11.318  18.150  0.00  0.00    +0.000 A 
ENDROOT
BRANCH   1  12
ATOM      6  C   UNL     1       2.126   9.452  17.925  0.00  0.00    +0.000 C 
ATOM      7  C   UNL     1       1.401   9.215  19.221  0.00  0.00    +0.000 A 
ATOM      8  C   UNL     1       1.790   8.017  19.867  0.00  0.00    +0.000 A 
ATOM      9  C   UNL     1       1.177   7.563  21.032  0.00  0.00    +0.000 A 
ATOM     10  C   UNL     1       0.200   8.346  21.617  0.00  0.00    +0.000 A 
ATOM     11  C   UNL     1      -0.151   9.571  21.038  0.00  0.00    +0.000 A 
ATOM     12  C   UNL     1       0.397  10.020  19.814  0.00  0.00    +0.000 A 
ENDBRANCH   1  12
BRANCH   2  13
ATOM     13  C   UNL     1       0.797  13.056  20.771  0.00  0.00    +0.000 C 
BRANCH  13  14
ATOM     14  N   UNL     1       0.089  13.944  21.672  0.00  0.00    +0.000 N 
ATOM     15  C   UNL     1       0.123  15.314  21.441  0.00  0.00    +0.000 A 
ATOM     16  O   UNL     1       0.873  15.907  20.680  0.00  0.00    +0.000 OA
ATOM     17  S   UNL     1      -1.194  16.119  22.308  0.00  0.00    +0.000 S 
ATOM     18  C   UNL     1      -1.852  14.566  22.838  0.00  0.00    +0.000 A 
ATOM     19  C   UNL     1      -3.059  14.340  23.484  0.00  0.00    +0.000 A 
ATOM     20  C   UNL     1      -3.421  13.025  23.777  0.00  0.00    +0.000 A 
ATOM     21  C   UNL     1      -2.568  11.965  23.438  0.00  0.00    +0.000 A 
ATOM     22  C   UNL     1      -1.358  12.205  22.774  0.00  0.00    +0.000 A 
ATOM     23  C   UNL     1      -1.020  13.514  22.451  0.00  0.00    +0.000 A 
ENDBRANCH  13  14
ENDBRANCH   2  13
BRANCH   5  24
ATOM     24  S   UNL     1      -1.676   9.989  17.214  0.00  0.00    +0.000 S 
BRANCH  24  25
ATOM     25  C   UNL     1      -3.037  10.713  16.270  0.00  0.00    +0.000 C 
BRANCH  25  26
ATOM     26  C   UNL     1      -4.194  11.023  17.196  0.00  0.00    +0.000 C 
ATOM     27  O   UNL     1      -4.529  10.218  18.061  0.00  0.00    +0.000 OA
ATOM     28  N   UNL     1      -4.796  12.227  16.907  0.00  0.00    +0.000 N 
ATOM     29  C   UNL     1      -5.894  12.651  17.596  0.00  0.00    +0.000 A 
ATOM     30  N   UNL     1      -6.391  12.201  18.716  0.00  0.00    +0.000 NA
ATOM     31  C   UNL     1      -7.554  12.878  19.011  0.00  0.00    +0.000 A 
ATOM     32  C   UNL     1      -7.914  13.851  18.103  0.00  0.00    +0.000 A 
ATOM     33  S   UNL     1      -6.727  13.951  16.864  0.00  0.00    +0.000 S 
ATOM     34  H   UNL     1      -4.582  12.712  16.041  0.00  0.00    +0.000 HD
ENDBRANCH  25  26
ENDBRANCH  24  25
ENDBRANCH   5  24
TORSDOF 6
ENDMDL
MODEL 8
REMARK VINA RESULT:      -7.8      4.338      7.436
REMARK  Name = 
REMARK  7 active torsions:
REMARK  status: ('A' for Active; 'I' for Inactive)
REMARK    1  A    between atoms: C_1  and  C_2
REMARK    2  A    between atoms: C_7  and  N_8
REMARK    3  A    between atoms: C_9  and  C_10
REMARK    4  A    between atoms: C_10  and  N_11
REMARK    5  A    between atoms: C_23  and  S_24
REMARK    6  A    between atoms: S_24  and  C_25
REMARK    7  A    between atoms: C_25  and  C_26
REMARK                            x       y       z     vdW  Elec       q    Type
REMARK                         _______ _______ _______ _____ _____    ______ ____
ROOT
ATOM      1  N   UNL     1      -0.738  11.040  20.425  0.00  0.00    +0.000 N 
ATOM      2  C   UNL     1      -1.058  11.857  21.525  0.00  0.00    +0.000 A 
ATOM      3  N   UNL     1      -0.361  11.477  22.582  0.00  0.00    +0.000 NA
ATOM      4  N   UNL     1       0.493  10.485  22.210  0.00  0.00    +0.000 NA
ATOM      5  C   UNL     1       0.301  10.239  20.934  0.00  0.00    +0.000 A 
ENDROOT
BRANCH   1  12
ATOM      6  C   UNL     1      -0.421  13.299  18.208  0.00  0.00    +0.000 C 
ATOM      7  C   UNL     1      -1.192  12.012  18.114  0.00  0.00    +0.000 A 
ATOM      8  C   UNL     1      -1.882  11.863  16.887  0.00  0.00    +0.000 A 
ATOM      9  C   UNL     1      -2.728  10.787  16.630  0.00  0.00    +0.000 A 
ATOM     10  C   UNL     1      -2.845   9.793  17.583  0.00  0.00    +0.000 A 
ATOM     11  C   UNL     1      -2.117   9.879  18.774  0.00  0.00    +0.000 A 
ATOM     12  C   UNL     1      -1.312  10.997  19.095  0.00  0.00    +0.000 A 
ENDBRANCH   1  12
BRANCH   2  13
ATOM     13  C   UNL     1      -2.034  12.982  21.511  0.00  0.00    +0.000 C 
BRANCH  13  14
ATOM     14  N   UNL     1      -3.365  12.670  21.993  0.00  0.00    +0.000 N 
ATOM     15  C   UNL     1      -3.681  12.922  23.323  0.00  0.00    +0.000 A 
ATOM     16  O   UNL     1      -2.896  13.178  24.224  0.00  0.00    +0.000 OA
ATOM     17  S   UNL     1      -5.438  12.969  23.541  0.00  0.00    +0.000 S 
ATOM     18  C   UNL     1      -5.702  12.801  21.801  0.00  0.00    +0.000 A 
ATOM     19  C   UNL     1      -6.904  12.913  21.118  0.00  0.00    +0.000 A 
ATOM     20  C   UNL     1      -6.894  12.794  19.728  0.00  0.00    +0.000 A 
ATOM     21  C   UNL     1      -5.692  12.546  19.049  0.00  0.00    +0.000 A 
ATOM     22  C   UNL     1      -4.483  12.449  19.749  0.00  0.00    +0.000 A 
ATOM     23  C   UNL     1      -4.493  12.606  21.130  0.00  0.00    +0.000 A 
ENDBRANCH  13  14
ENDBRANCH   2  13
BRANCH   5  24
ATOM     24  S   UNL     1       1.140   8.977  20.077  0.00  0.00    +0.000 S 
BRANCH  24  25
ATOM     25  C   UNL     1       1.314   7.655  21.298  0.00  0.00    +0.000 C 
BRANCH  25  26
ATOM     26  C   UNL     1       1.709   6.368  20.606  0.00  0.00    +0.000 C 
ATOM     27  O   UNL     1       0.980   5.381  20.666  0.00  0.00    +0.000 OA
ATOM     28  N   UNL     1       2.939   6.453  19.991  0.00  0.00    +0.000 N 
ATOM     29  C   UNL     1       3.491   5.375  19.365  0.00  0.00    +0.000 A 
ATOM     30  N   UNL     1       2.934   4.248  19.015  0.00  0.00    +0.000 NA
ATOM     31  C   UNL     1       3.885   3.411  18.473  0.00  0.00    +0.000 A 
ATOM     32  C   UNL     1       5.159   3.932  18.408  0.00  0.00    +0.000 A 
ATOM     33  S   UNL     1       5.153   5.544  19.004  0.00  0.00    +0.000 S 
ATOM     34  H   UNL     1       3.554   7.237  20.182  0.00  0.00    +0.000 HD
ENDBRANCH  25  26
ENDBRANCH  24  25
ENDBRANCH   5  24
TORSDOF 6
ENDMDL
MODEL 9
REMARK VINA RESULT:      -7.7      4.436      7.688
REMARK  Name = 
REMARK  7 active torsions:
REMARK  status: ('A' for Active; 'I' for Inactive)
REMARK    1  A    between atoms: C_1  and  C_2
REMARK    2  A    between atoms: C_7  and  N_8
REMARK    3  A    between atoms: C_9  and  C_10
REMARK    4  A    between atoms: C_10  and  N_11
REMARK    5  A    between atoms: C_23  and  S_24
REMARK    6  A    between atoms: S_24  and  C_25
REMARK    7  A    between atoms: C_25  and  C_26
REMARK                            x       y       z     vdW  Elec       q    Type
REMARK                         _______ _______ _______ _____ _____    ______ ____
ROOT
ATOM      1  N   UNL     1      -0.824  11.144  20.264  0.00  0.00    +0.000 N 
ATOM      2  C   UNL     1      -1.148  11.943  21.376  0.00  0.00    +0.000 A 
ATOM      3  N   UNL     1      -0.395  11.601  22.406  0.00  0.00    +0.000 NA
ATOM      4  N   UNL     1       0.497  10.655  22.003  0.00  0.00    +0.000 NA
ATOM      5  C   UNL     1       0.274  10.399  20.734  0.00  0.00    +0.000 A 
ENDROOT
BRANCH   1  12
ATOM      6  C   UNL     1      -0.568  13.344  17.980  0.00  0.00    +0.000 C 
ATOM      7  C   UNL     1      -1.347  12.059  17.944  0.00  0.00    +0.000 A 
ATOM      8  C   UNL     1      -2.077  11.883  16.744  0.00  0.00    +0.000 A 
ATOM      9  C   UNL     1      -2.937  10.806  16.543  0.00  0.00    +0.000 A 
ATOM     10  C   UNL     1      -3.028   9.837  17.523  0.00  0.00    +0.000 A 
ATOM     11  C   UNL     1      -2.261   9.949  18.688  0.00  0.00    +0.000 A 
ATOM     12  C   UNL     1      -1.440  11.070  18.955  0.00  0.00    +0.000 A 
ENDBRANCH   1  12
BRANCH   2  13
ATOM     13  C   UNL     1      -2.183  13.013  21.398  0.00  0.00    +0.000 C 
BRANCH  13  14
ATOM     14  N   UNL     1      -3.475  12.633  21.934  0.00  0.00    +0.000 N 
ATOM     15  C   UNL     1      -3.735  12.837  23.285  0.00  0.00    +0.000 A 
ATOM     16  O   UNL     1      -2.918  13.102  24.153  0.00  0.00    +0.000 OA
ATOM     17  S   UNL     1      -5.479  12.805  23.588  0.00  0.00    +0.000 S 
ATOM     18  C   UNL     1      -5.822  12.672  21.859  0.00  0.00    +0.000 A 
ATOM     19  C   UNL     1      -7.060  12.752  21.238  0.00  0.00    +0.000 A 
ATOM     20  C   UNL     1      -7.113  12.670  19.845  0.00  0.00    +0.000 A 
ATOM     21  C   UNL     1      -5.936  12.491  19.103  0.00  0.00    +0.000 A 
ATOM     22  C   UNL     1      -4.691  12.425  19.741  0.00  0.00    +0.000 A 
ATOM     23  C   UNL     1      -4.640  12.546  21.125  0.00  0.00    +0.000 A 
ENDBRANCH  13  14
ENDBRANCH   2  13
BRANCH   5  24
ATOM     24  S   UNL     1       1.148   9.184  19.846  0.00  0.00    +0.000 S 
BRANCH  24  25
ATOM     25  C   UNL     1       1.320   7.818  21.019  0.00  0.00    +0.000 C 
BRANCH  25  26
ATOM     26  C   UNL     1       2.072   6.677  20.368  0.00  0.00    +0.000 C 
ATOM     27  O   UNL     1       2.996   6.905  19.593  0.00  0.00    +0.000 OA
ATOM     28  N   UNL     1       1.564   5.444  20.712  0.00  0.00    +0.000 N 
ATOM     29  C   UNL     1       2.073   4.296  20.179  0.00  0.00    +0.000 A 
ATOM     30  N   UNL     1       3.185   4.114  19.521  0.00  0.00    +0.000 NA
ATOM     31  C   UNL     1       3.265   2.804  19.103  0.00  0.00    +0.000 A 
ATOM     32  C   UNL     1       2.204   2.004  19.468  0.00  0.00    +0.000 A 
ATOM     33  S   UNL     1       1.093   2.916  20.410  0.00  0.00    +0.000 S 
ATOM     34  H   UNL     1       0.668   5.372  21.185  0.00  0.00    +0.000 HD
ENDBRANCH  25  26
ENDBRANCH  24  25
ENDBRANCH   5  24
TORSDOF 6
ENDMDL
