MODEL 1
REMARK VINA RESULT:      -8.1      0.000      0.000
REMARK  Name = 
REMARK  8 active torsions:
REMARK  status: ('A' for Active; 'I' for Inactive)
REMARK    1  A    between atoms: C_1  and  C_2
REMARK    2  A    between atoms: C_6  and  C_7
REMARK    3  A    between atoms: N_9  and  C_10
REMARK    4  A    between atoms: N_9  and  C_23
REMARK    5  A    between atoms: C_10  and  C_11
REMARK    6  A    between atoms: C_13  and  C_14
REMARK    7  A    between atoms: C_23  and  C_24
REMARK    8  A    between atoms: C_23  and  C_25
REMARK                            x       y       z     vdW  Elec       q    Type
REMARK                         _______ _______ _______ _____ _____    ______ ____
ROOT
ATOM      1  C   UNL     1       4.659   3.702  19.046  0.00  0.00    +0.000 C 
ATOM      2  O   UNL     1       5.048   2.855  19.850  0.00  0.00    +0.000 OA
ATOM      3  N   UNL     1       3.283   4.008  18.881  0.00  0.00    +0.000 N 
ENDROOT
BRANCH   1   9
ATOM      4  C   UNL     1       6.917   4.876  14.768  0.00  0.00    +0.000 C 
ATOM      5  C   UNL     1       6.875   5.003  16.262  0.00  0.00    +0.000 A 
ATOM      6  C   UNL     1       7.462   6.097  16.908  0.00  0.00    +0.000 A 
ATOM      7  C   UNL     1       7.263   6.300  18.275  0.00  0.00    +0.000 A 
ATOM      8  C   UNL     1       6.377   5.481  18.973  0.00  0.00    +0.000 A 
ATOM      9  C   UNL     1       5.731   4.425  18.314  0.00  0.00    +0.000 A 
ATOM     10  C   UNL     1       6.091   4.120  17.000  0.00  0.00    +0.000 A 
ENDBRANCH   1   9
BRANCH   3  11
ATOM     11  C   UNL     1       2.375   3.162  19.685  0.00  0.00    +0.000 C 
ATOM     12  C   UNL     1       2.060   3.830  21.026  0.00  0.00    +0.000 C 
ATOM     13  C   UNL     1       1.138   2.635  18.970  0.00  0.00    +0.000 C 
ENDBRANCH   3  11
BRANCH   3  14
ATOM     14  C   UNL     1       2.759   5.020  17.922  0.00  0.00    +0.000 C 
BRANCH  14  15
ATOM     15  C   UNL     1       2.482   6.408  18.382  0.00  0.00    +0.000 A 
ATOM     16  N   UNL     1       1.627   6.840  19.283  0.00  0.00    +0.000 NA
ATOM     17  C   UNL     1       1.752   8.210  19.187  0.00  0.00    +0.000 A 
ATOM     18  N   UNL     1       2.536   8.614  18.175  0.00  0.00    +0.000 NA
ATOM     19  O   UNL     1       3.020   7.421  17.637  0.00  0.00    +0.000 OA
BRANCH  17  20
ATOM     20  C   UNL     1       1.282   9.073  20.264  0.00  0.00    +0.000 A 
ATOM     21  C   UNL     1       1.066   8.534  21.541  0.00  0.00    +0.000 A 
ATOM     22  C   UNL     1       0.286   9.223  22.471  0.00  0.00    +0.000 A 
ATOM     23  C   UNL     1      -0.246  10.468  22.141  0.00  0.00    +0.000 A 
ATOM     24 CL   UNL     1      -1.348  11.235  23.217  0.00  0.00    +0.000 Cl
ATOM     25  C   UNL     1       0.060  11.066  20.922  0.00  0.00    +0.000 A 
ATOM     26  C   UNL     1       0.831  10.372  19.983  0.00  0.00    +0.000 A 
ENDBRANCH  17  20
ENDBRANCH  14  15
ENDBRANCH   3  14
TORSDOF 5
ENDMDL
MODEL 2
REMARK VINA RESULT:      -7.8      1.698      2.066
REMARK  Name = 
REMARK  8 active torsions:
REMARK  status: ('A' for Active; 'I' for Inactive)
REMARK    1  A    between atoms: C_1  and  C_2
REMARK    2  A    between atoms: C_6  and  C_7
REMARK    3  A    between atoms: N_9  and  C_10
REMARK    4  A    between atoms: N_9  and  C_23
REMARK    5  A    between atoms: C_10  and  C_11
REMARK    6  A    between atoms: C_13  and  C_14
REMARK    7  A    between atoms: C_23  and  C_24
REMARK    8  A    between atoms: C_23  and  C_25
REMARK                            x       y       z     vdW  Elec       q    Type
REMARK                         _______ _______ _______ _____ _____    ______ ____
ROOT
ATOM      1  C   UNL     1       4.486   3.512  19.040  0.00  0.00    +0.000 C 
ATOM      2  O   UNL     1       4.868   2.620  19.797  0.00  0.00    +0.000 OA
ATOM      3  N   UNL     1       3.110   3.810  18.859  0.00  0.00    +0.000 N 
ENDROOT
BRANCH   1   9
ATOM      4  C   UNL     1       6.858   4.964  14.911  0.00  0.00    +0.000 C 
ATOM      5  C   UNL     1       6.762   5.010  16.407  0.00  0.00    +0.000 A 
ATOM      6  C   UNL     1       7.302   6.080  17.129  0.00  0.00    +0.000 A 
ATOM      7  C   UNL     1       7.052   6.205  18.498  0.00  0.00    +0.000 A 
ATOM      8  C   UNL     1       6.162   5.330  19.120  0.00  0.00    +0.000 A 
ATOM      9  C   UNL     1       5.565   4.297  18.384  0.00  0.00    +0.000 A 
ATOM     10  C   UNL     1       5.975   4.072  17.069  0.00  0.00    +0.000 A 
ENDBRANCH   1   9
BRANCH   3  11
ATOM     11  C   UNL     1       2.195   2.900  19.582  0.00  0.00    +0.000 C 
ATOM     12  C   UNL     1       1.953   3.399  21.008  0.00  0.00    +0.000 C 
ATOM     13  C   UNL     1       0.914   2.515  18.854  0.00  0.00    +0.000 C 
ENDBRANCH   3  11
BRANCH   3  14
ATOM     14  C   UNL     1       2.593   4.874  17.954  0.00  0.00    +0.000 C 
BRANCH  14  15
ATOM     15  C   UNL     1       2.265   6.220  18.500  0.00  0.00    +0.000 A 
ATOM     16  N   UNL     1       2.200   7.382  17.887  0.00  0.00    +0.000 NA
ATOM     17  C   UNL     1       1.963   8.258  18.925  0.00  0.00    +0.000 A 
ATOM     18  N   UNL     1       2.024   7.691  20.140  0.00  0.00    +0.000 NA
ATOM     19  O   UNL     1       2.227   6.338  19.861  0.00  0.00    +0.000 OA
BRANCH  17  20
ATOM     20  C   UNL     1       1.436   9.591  18.661  0.00  0.00    +0.000 A 
ATOM     21  C   UNL     1       2.283  10.583  18.145  0.00  0.00    +0.000 A 
ATOM     22  C   UNL     1       1.922  11.929  18.230  0.00  0.00    +0.000 A 
ATOM     23  C   UNL     1       0.698  12.283  18.793  0.00  0.00    +0.000 A 
ATOM     24 CL   UNL     1       0.330  13.943  19.056  0.00  0.00    +0.000 Cl
ATOM     25  C   UNL     1      -0.203  11.301  19.199  0.00  0.00    +0.000 A 
ATOM     26  C   UNL     1       0.163   9.953  19.128  0.00  0.00    +0.000 A 
ENDBRANCH  17  20
ENDBRANCH  14  15
ENDBRANCH   3  14
TORSDOF 5
ENDMDL
MODEL 3
REMARK VINA RESULT:      -7.8      1.553      2.110
REMARK  Name = 
REMARK  8 active torsions:
REMARK  status: ('A' for Active; 'I' for Inactive)
REMARK    1  A    between atoms: C_1  and  C_2
REMARK    2  A    between atoms: C_6  and  C_7
REMARK    3  A    between atoms: N_9  and  C_10
REMARK    4  A    between atoms: N_9  and  C_23
REMARK    5  A    between atoms: C_10  and  C_11
REMARK    6  A    between atoms: C_13  and  C_14
REMARK    7  A    between atoms: C_23  and  C_24
REMARK    8  A    between atoms: C_23  and  C_25
REMARK                            x       y       z     vdW  Elec       q    Type
REMARK                         _______ _______ _______ _____ _____    ______ ____
ROOT
ATOM      1  C   UNL     1       4.717   4.675  17.374  0.00  0.00    +0.000 C 
ATOM      2  O   UNL     1       4.907   4.158  16.274  0.00  0.00    +0.000 OA
ATOM      3  N   UNL     1       3.548   4.418  18.137  0.00  0.00    +0.000 N 
ENDROOT
BRANCH   1   9
ATOM      4  C   UNL     1       8.627   5.335  20.385  0.00  0.00    +0.000 C 
ATOM      5  C   UNL     1       7.716   5.904  19.338  0.00  0.00    +0.000 A 
ATOM      6  C   UNL     1       8.136   6.953  18.512  0.00  0.00    +0.000 A 
ATOM      7  C   UNL     1       7.354   7.354  17.426  0.00  0.00    +0.000 A 
ATOM      8  C   UNL     1       6.213   6.626  17.092  0.00  0.00    +0.000 A 
ATOM      9  C   UNL     1       5.825   5.530  17.876  0.00  0.00    +0.000 A 
ATOM     10  C   UNL     1       6.509   5.266  19.064  0.00  0.00    +0.000 A 
ENDBRANCH   1   9
BRANCH   3  11
ATOM     11  C   UNL     1       2.557   3.559  17.453  0.00  0.00    +0.000 C 
ATOM     12  C   UNL     1       2.726   2.098  17.876  0.00  0.00    +0.000 C 
ATOM     13  C   UNL     1       1.111   4.035  17.495  0.00  0.00    +0.000 C 
ENDBRANCH   3  11
BRANCH   3  14
ATOM     14  C   UNL     1       3.267   5.020  19.470  0.00  0.00    +0.000 C 
BRANCH  14  15
ATOM     15  C   UNL     1       2.663   6.378  19.562  0.00  0.00    +0.000 A 
ATOM     16  N   UNL     1       1.809   6.860  20.438  0.00  0.00    +0.000 NA
ATOM     17  C   UNL     1       1.544   8.118  19.941  0.00  0.00    +0.000 A 
ATOM     18  N   UNL     1       2.091   8.354  18.738  0.00  0.00    +0.000 NA
ATOM     19  O   UNL     1       2.832   7.199  18.482  0.00  0.00    +0.000 OA
BRANCH  17  20
ATOM     20  C   UNL     1       0.957   9.142  20.796  0.00  0.00    +0.000 A 
ATOM     21  C   UNL     1       0.925   8.952  22.186  0.00  0.00    +0.000 A 
ATOM     22  C   UNL     1       0.064   9.711  22.979  0.00  0.00    +0.000 A 
ATOM     23  C   UNL     1      -0.737  10.689  22.392  0.00  0.00    +0.000 A 
ATOM     24 CL   UNL     1      -1.921  11.502  23.339  0.00  0.00    +0.000 Cl
ATOM     25  C   UNL     1      -0.626  10.969  21.032  0.00  0.00    +0.000 A 
ATOM     26  C   UNL     1       0.226  10.200  20.233  0.00  0.00    +0.000 A 
ENDBRANCH  17  20
ENDBRANCH  14  15
ENDBRANCH   3  14
TORSDOF 5
ENDMDL
MODEL 4
REMARK VINA RESULT:      -7.7      1.189      3.922
REMARK  Name = 
REMARK  8 active torsions:
REMARK  status: ('A' for Active; 'I' for Inactive)
REMARK    1  A    between atoms: C_1  and  C_2
REMARK    2  A    between atoms: C_6  and  C_7
REMARK    3  A    between atoms: N_9  and  C_10
REMARK    4  A    between atoms: N_9  and  C_23
REMARK    5  A    between atoms: C_10  and  C_11
REMARK    6  A    between atoms: C_13  and  C_14
REMARK    7  A    between atoms: C_23  and  C_24
REMARK    8  A    between atoms: C_23  and  C_25
REMARK                            x       y       z     vdW  Elec       q    Type
REMARK                         _______ _______ _______ _____ _____    ______ ____
ROOT
ATOM      1  C   UNL     1       4.737   4.906  19.018  0.00  0.00    +0.000 C 
ATOM      2  O   UNL     1       5.624   4.352  19.667  0.00  0.00    +0.000 OA
ATOM      3  N   UNL     1       5.026   5.774  17.933  0.00  0.00    +0.000 N 
ENDROOT
BRANCH   1   9
ATOM      4  C   UNL     1       0.758   1.950  18.556  0.00  0.00    +0.000 C 
ATOM      5  C   UNL     1       1.382   3.154  19.197  0.00  0.00    +0.000 A 
ATOM      6  C   UNL     1       0.921   3.633  20.428  0.00  0.00    +0.000 A 
ATOM      7  C   UNL     1       1.620   4.638  21.102  0.00  0.00    +0.000 A 
ATOM      8  C   UNL     1       2.847   5.077  20.605  0.00  0.00    +0.000 A 
ATOM      9  C   UNL     1       3.347   4.549  19.407  0.00  0.00    +0.000 A 
ATOM     10  C   UNL     1       2.545   3.691  18.652  0.00  0.00    +0.000 A 
ENDBRANCH   1   9
BRANCH   3  11
ATOM     11  C   UNL     1       6.470   6.016  17.721  0.00  0.00    +0.000 C 
ATOM     12  C   UNL     1       7.058   4.976  16.764  0.00  0.00    +0.000 C 
ATOM     13  C   UNL     1       6.868   7.445  17.377  0.00  0.00    +0.000 C 
ENDBRANCH   3  11
BRANCH   3  14
ATOM     14  C   UNL     1       3.993   6.471  17.119  0.00  0.00    +0.000 C 
BRANCH  14  15
ATOM     15  C   UNL     1       3.166   7.548  17.729  0.00  0.00    +0.000 A 
ATOM     16  N   UNL     1       2.496   7.554  18.860  0.00  0.00    +0.000 NA
ATOM     17  C   UNL     1       1.850   8.772  18.824  0.00  0.00    +0.000 A 
ATOM     18  N   UNL     1       1.994   9.428  17.661  0.00  0.00    +0.000 NA
ATOM     19  O   UNL     1       2.864   8.617  16.931  0.00  0.00    +0.000 OA
BRANCH  17  20
ATOM     20  C   UNL     1       1.313   9.361  20.043  0.00  0.00    +0.000 A 
ATOM     21  C   UNL     1       0.934   8.528  21.108  0.00  0.00    +0.000 A 
ATOM     22  C   UNL     1       0.094   9.011  22.112  0.00  0.00    +0.000 A 
ATOM     23  C   UNL     1      -0.336  10.336  22.077  0.00  0.00    +0.000 A 
ATOM     24 CL   UNL     1      -1.507  10.882  23.214  0.00  0.00    +0.000 Cl
ATOM     25  C   UNL     1       0.129  11.204  21.093  0.00  0.00    +0.000 A 
ATOM     26  C   UNL     1       0.960  10.719  20.077  0.00  0.00    +0.000 A 
ENDBRANCH  17  20
ENDBRANCH  14  15
ENDBRANCH   3  14
TORSDOF 5
ENDMDL
MODEL 5
REMARK VINA RESULT:      -7.7      0.441      1.337
REMARK  Name = 
REMARK  8 active torsions:
REMARK  status: ('A' for Active; 'I' for Inactive)
REMARK    1  A    between atoms: C_1  and  C_2
REMARK    2  A    between atoms: C_6  and  C_7
REMARK    3  A    between atoms: N_9  and  C_10
REMARK    4  A    between atoms: N_9  and  C_23
REMARK    5  A    between atoms: C_10  and  C_11
REMARK    6  A    between atoms: C_13  and  C_14
REMARK    7  A    between atoms: C_23  and  C_24
REMARK    8  A    between atoms: C_23  and  C_25
REMARK                            x       y       z     vdW  Elec       q    Type
REMARK                         _______ _______ _______ _____ _____    ______ ____
ROOT
ATOM      1  C   UNL     1       4.614   3.673  19.003  0.00  0.00    +0.000 C 
ATOM      2  O   UNL     1       5.217   2.885  19.732  0.00  0.00    +0.000 OA
ATOM      3  N   UNL     1       3.205   3.831  19.066  0.00  0.00    +0.000 N 
ENDROOT
BRANCH   1   9
ATOM      4  C   UNL     1       8.061   7.211  18.383  0.00  0.00    +0.000 C 
ATOM      5  C   UNL     1       7.125   6.222  17.755  0.00  0.00    +0.000 A 
ATOM      6  C   UNL     1       7.363   5.721  16.470  0.00  0.00    +0.000 A 
ATOM      7  C   UNL     1       6.592   4.671  15.967  0.00  0.00    +0.000 A 
ATOM      8  C   UNL     1       5.665   4.038  16.793  0.00  0.00    +0.000 A 
ATOM      9  C   UNL     1       5.470   4.492  18.105  0.00  0.00    +0.000 A 
ATOM     10  C   UNL     1       6.109   5.661  18.524  0.00  0.00    +0.000 A 
ENDBRANCH   1   9
BRANCH   3  11
ATOM     11  C   UNL     1       2.535   2.909  20.008  0.00  0.00    +0.000 C 
ATOM     12  C   UNL     1       2.220   3.618  21.327  0.00  0.00    +0.000 C 
ATOM     13  C   UNL     1       1.357   2.119  19.453  0.00  0.00    +0.000 C 
ENDBRANCH   3  11
BRANCH   3  14
ATOM     14  C   UNL     1       2.427   4.765  18.207  0.00  0.00    +0.000 C 
BRANCH  14  15
ATOM     15  C   UNL     1       2.277   6.193  18.603  0.00  0.00    +0.000 A 
ATOM     16  N   UNL     1       1.410   6.751  19.419  0.00  0.00    +0.000 NA
ATOM     17  C   UNL     1       1.700   8.094  19.295  0.00  0.00    +0.000 A 
ATOM     18  N   UNL     1       2.602   8.369  18.340  0.00  0.00    +0.000 NA
ATOM     19  O   UNL     1       2.986   7.109  17.877  0.00  0.00    +0.000 OA
BRANCH  17  20
ATOM     20  C   UNL     1       1.250   9.043  20.305  0.00  0.00    +0.000 A 
ATOM     21  C   UNL     1       1.148   8.636  21.644  0.00  0.00    +0.000 A 
ATOM     22  C   UNL     1       0.389   9.381  22.548  0.00  0.00    +0.000 A 
ATOM     23  C   UNL     1      -0.235  10.554  22.127  0.00  0.00    +0.000 A 
ATOM     24 CL   UNL     1      -1.309  11.377  23.190  0.00  0.00    +0.000 Cl
ATOM     25  C   UNL     1      -0.041  11.031  20.833  0.00  0.00    +0.000 A 
ATOM     26  C   UNL     1       0.707  10.279  19.921  0.00  0.00    +0.000 A 
ENDBRANCH  17  20
ENDBRANCH  14  15
ENDBRANCH   3  14
TORSDOF 5
ENDMDL
MODEL 6
REMARK VINA RESULT:      -7.7      1.154      4.052
REMARK  Name = 
REMARK  8 active torsions:
REMARK  status: ('A' for Active; 'I' for Inactive)
REMARK    1  A    between atoms: C_1  and  C_2
REMARK    2  A    between atoms: C_6  and  C_7
REMARK    3  A    between atoms: N_9  and  C_10
REMARK    4  A    between atoms: N_9  and  C_23
REMARK    5  A    between atoms: C_10  and  C_11
REMARK    6  A    between atoms: C_13  and  C_14
REMARK    7  A    between atoms: C_23  and  C_24
REMARK    8  A    between atoms: C_23  and  C_25
REMARK                            x       y       z     vdW  Elec       q    Type
REMARK                         _______ _______ _______ _____ _____    ______ ____
ROOT
ATOM      1  C   UNL     1       4.881   4.361  18.881  0.00  0.00    +0.000 C 
ATOM      2  O   UNL     1       5.799   3.861  19.530  0.00  0.00    +0.000 OA
ATOM      3  N   UNL     1       5.094   5.437  17.979  0.00  0.00    +0.000 N 
ENDROOT
BRANCH   1   9
ATOM      4  C   UNL     1       1.234   2.748  21.860  0.00  0.00    +0.000 C 
ATOM      5  C   UNL     1       1.766   2.898  20.466  0.00  0.00    +0.000 A 
ATOM      6  C   UNL     1       0.905   2.904  19.364  0.00  0.00    +0.000 A 
ATOM      7  C   UNL     1       1.387   3.223  18.092  0.00  0.00    +0.000 A 
ATOM      8  C   UNL     1       2.703   3.656  17.942  0.00  0.00    +0.000 A 
ATOM      9  C   UNL     1       3.552   3.718  19.056  0.00  0.00    +0.000 A 
ATOM     10  C   UNL     1       3.110   3.212  20.279  0.00  0.00    +0.000 A 
ENDBRANCH   1   9
BRANCH   3  11
ATOM     11  C   UNL     1       6.482   5.948  17.966  0.00  0.00    +0.000 C 
ATOM     12  C   UNL     1       7.435   4.910  17.371  0.00  0.00    +0.000 C 
ATOM     13  C   UNL     1       6.678   7.345  17.392  0.00  0.00    +0.000 C 
ENDBRANCH   3  11
BRANCH   3  14
ATOM     14  C   UNL     1       4.021   6.080  17.173  0.00  0.00    +0.000 C 
BRANCH  14  15
ATOM     15  C   UNL     1       3.228   7.202  17.748  0.00  0.00    +0.000 A 
ATOM     16  N   UNL     1       2.551   7.262  18.874  0.00  0.00    +0.000 NA
ATOM     17  C   UNL     1       1.950   8.500  18.800  0.00  0.00    +0.000 A 
ATOM     18  N   UNL     1       2.124   9.120  17.622  0.00  0.00    +0.000 NA
ATOM     19  O   UNL     1       2.970   8.259  16.920  0.00  0.00    +0.000 OA
BRANCH  17  20
ATOM     20  C   UNL     1       1.425   9.140  20.000  0.00  0.00    +0.000 A 
ATOM     21  C   UNL     1       1.235   8.381  21.165  0.00  0.00    +0.000 A 
ATOM     22  C   UNL     1       0.410   8.856  22.186  0.00  0.00    +0.000 A 
ATOM     23  C   UNL     1      -0.193  10.107  22.063  0.00  0.00    +0.000 A 
ATOM     24 CL   UNL     1      -1.343  10.616  23.236  0.00  0.00    +0.000 Cl
ATOM     25  C   UNL     1       0.084  10.920  20.967  0.00  0.00    +0.000 A 
ATOM     26  C   UNL     1       0.899  10.440  19.936  0.00  0.00    +0.000 A 
ENDBRANCH  17  20
ENDBRANCH  14  15
ENDBRANCH   3  14
TORSDOF 5
ENDMDL
MODEL 7
REMARK VINA RESULT:      -7.7      1.238      4.028
REMARK  Name = 
REMARK  8 active torsions:
REMARK  status: ('A' for Active; 'I' for Inactive)
REMARK    1  A    between atoms: C_1  and  C_2
REMARK    2  A    between atoms: C_6  and  C_7
REMARK    3  A    between atoms: N_9  and  C_10
REMARK    4  A    between atoms: N_9  and  C_23
REMARK    5  A    between atoms: C_10  and  C_11
REMARK    6  A    between atoms: C_13  and  C_14
REMARK    7  A    between atoms: C_23  and  C_24
REMARK    8  A    between atoms: C_23  and  C_25
REMARK                            x       y       z     vdW  Elec       q    Type
REMARK                         _______ _______ _______ _____ _____    ______ ____
ROOT
ATOM      1  C   UNL     1       4.847   4.797  18.989  0.00  0.00    +0.000 C 
ATOM      2  O   UNL     1       5.691   4.223  19.676  0.00  0.00    +0.000 OA
ATOM      3  N   UNL     1       5.203   5.615  17.885  0.00  0.00    +0.000 N 
ENDROOT
BRANCH   1   9
ATOM      4  C   UNL     1       0.767   1.974  18.582  0.00  0.00    +0.000 C 
ATOM      5  C   UNL     1       1.420   3.191  19.167  0.00  0.00    +0.000 A 
ATOM      6  C   UNL     1       0.942   3.764  20.351  0.00  0.00    +0.000 A 
ATOM      7  C   UNL     1       1.661   4.781  20.984  0.00  0.00    +0.000 A 
ATOM      8  C   UNL     1       2.918   5.140  20.501  0.00  0.00    +0.000 A 
ATOM      9  C   UNL     1       3.433   4.520  19.354  0.00  0.00    +0.000 A 
ATOM     10  C   UNL     1       2.619   3.648  18.628  0.00  0.00    +0.000 A 
ENDBRANCH   1   9
BRANCH   3  11
ATOM     11  C   UNL     1       6.661   5.782  17.702  0.00  0.00    +0.000 C 
ATOM     12  C   UNL     1       7.201   4.756  16.703  0.00  0.00    +0.000 C 
ATOM     13  C   UNL     1       7.147   7.199  17.431  0.00  0.00    +0.000 C 
ENDBRANCH   3  11
BRANCH   3  14
ATOM     14  C   UNL     1       4.224   6.334  17.024  0.00  0.00    +0.000 C 
BRANCH  14  15
ATOM     15  C   UNL     1       3.359   7.397  17.608  0.00  0.00    +0.000 A 
ATOM     16  N   UNL     1       2.295   7.288  18.373  0.00  0.00    +0.000 NA
ATOM     17  C   UNL     1       1.873   8.595  18.493  0.00  0.00    +0.000 A 
ATOM     18  N   UNL     1       2.553   9.458  17.721  0.00  0.00    +0.000 NA
ATOM     19  O   UNL     1       3.538   8.665  17.130  0.00  0.00    +0.000 OA
BRANCH  17  20
ATOM     20  C   UNL     1       0.965   8.984  19.564  0.00  0.00    +0.000 A 
ATOM     21  C   UNL     1       0.069  10.044  19.364  0.00  0.00    +0.000 A 
ATOM     22  C   UNL     1      -0.536  10.670  20.456  0.00  0.00    +0.000 A 
ATOM     23  C   UNL     1      -0.277  10.211  21.746  0.00  0.00    +0.000 A 
ATOM     24 CL   UNL     1      -0.881  11.087  23.098  0.00  0.00    +0.000 Cl
ATOM     25  C   UNL     1       0.515   9.084  21.949  0.00  0.00    +0.000 A 
ATOM     26  C   UNL     1       1.133   8.465  20.857  0.00  0.00    +0.000 A 
ENDBRANCH  17  20
ENDBRANCH  14  15
ENDBRANCH   3  14
TORSDOF 5
ENDMDL
MODEL 8
REMARK VINA RESULT:      -7.6      1.329      1.644
REMARK  Name = 
REMARK  8 active torsions:
REMARK  status: ('A' for Active; 'I' for Inactive)
REMARK    1  A    between atoms: C_1  and  C_2
REMARK    2  A    between atoms: C_6  and  C_7
REMARK    3  A    between atoms: N_9  and  C_10
REMARK    4  A    between atoms: N_9  and  C_23
REMARK    5  A    between atoms: C_10  and  C_11
REMARK    6  A    between atoms: C_13  and  C_14
REMARK    7  A    between atoms: C_23  and  C_24
REMARK    8  A    between atoms: C_23  and  C_25
REMARK                            x       y       z     vdW  Elec       q    Type
REMARK                         _______ _______ _______ _____ _____    ______ ____
ROOT
ATOM      1  C   UNL     1       4.427   3.543  19.024  0.00  0.00    +0.000 C 
ATOM      2  O   UNL     1       4.755   2.574  19.709  0.00  0.00    +0.000 OA
ATOM      3  N   UNL     1       3.072   3.943  18.883  0.00  0.00    +0.000 N 
ENDROOT
BRANCH   1   9
ATOM      4  C   UNL     1       6.959   4.985  14.988  0.00  0.00    +0.000 C 
ATOM      5  C   UNL     1       6.826   5.005  16.481  0.00  0.00    +0.000 A 
ATOM      6  C   UNL     1       7.383   6.041  17.239  0.00  0.00    +0.000 A 
ATOM      7  C   UNL     1       7.102   6.149  18.603  0.00  0.00    +0.000 A 
ATOM      8  C   UNL     1       6.165   5.296  19.184  0.00  0.00    +0.000 A 
ATOM      9  C   UNL     1       5.550   4.300  18.413  0.00  0.00    +0.000 A 
ATOM     10  C   UNL     1       5.988   4.084  17.104  0.00  0.00    +0.000 A 
ENDBRANCH   1   9
BRANCH   3  11
ATOM     11  C   UNL     1       2.105   3.046  19.551  0.00  0.00    +0.000 C 
ATOM     12  C   UNL     1       1.755   3.570  20.946  0.00  0.00    +0.000 C 
ATOM     13  C   UNL     1       0.883   2.647  18.734  0.00  0.00    +0.000 C 
ENDBRANCH   3  11
BRANCH   3  14
ATOM     14  C   UNL     1       2.621   5.103  18.066  0.00  0.00    +0.000 C 
BRANCH  14  15
ATOM     15  C   UNL     1       2.210   6.369  18.732  0.00  0.00    +0.000 A 
ATOM     16  N   UNL     1       1.808   7.504  18.205  0.00  0.00    +0.000 NA
ATOM     17  C   UNL     1       1.679   8.322  19.307  0.00  0.00    +0.000 A 
ATOM     18  N   UNL     1       2.121   7.769  20.448  0.00  0.00    +0.000 NA
ATOM     19  O   UNL     1       2.476   6.473  20.070  0.00  0.00    +0.000 OA
BRANCH  17  20
ATOM     20  C   UNL     1       0.889   9.544  19.233  0.00  0.00    +0.000 A 
ATOM     21  C   UNL     1       0.774  10.366  20.365  0.00  0.00    +0.000 A 
ATOM     22  C   UNL     1      -0.246  11.316  20.442  0.00  0.00    +0.000 A 
ATOM     23  C   UNL     1      -1.126  11.475  19.375  0.00  0.00    +0.000 A 
ATOM     24 CL   UNL     1      -2.484  12.519  19.538  0.00  0.00    +0.000 Cl
ATOM     25  C   UNL     1      -0.949  10.749  18.199  0.00  0.00    +0.000 A 
ATOM     26  C   UNL     1       0.063   9.786  18.124  0.00  0.00    +0.000 A 
ENDBRANCH  17  20
ENDBRANCH  14  15
ENDBRANCH   3  14
TORSDOF 5
ENDMDL
MODEL 9
REMARK VINA RESULT:      -7.6      1.517      2.146
REMARK  Name = 
REMARK  8 active torsions:
REMARK  status: ('A' for Active; 'I' for Inactive)
REMARK    1  A    between atoms: C_1  and  C_2
REMARK    2  A    between atoms: C_6  and  C_7
REMARK    3  A    between atoms: N_9  and  C_10
REMARK    4  A    between atoms: N_9  and  C_23
REMARK    5  A    between atoms: C_10  and  C_11
REMARK    6  A    between atoms: C_13  and  C_14
REMARK    7  A    between atoms: C_23  and  C_24
REMARK    8  A    between atoms: C_23  and  C_25
REMARK                            x       y       z     vdW  Elec       q    Type
REMARK                         _______ _______ _______ _____ _____    ______ ____
ROOT
ATOM      1  C   UNL     1       5.029   4.541  17.367  0.00  0.00    +0.000 C 
ATOM      2  O   UNL     1       5.125   3.905  16.317  0.00  0.00    +0.000 OA
ATOM      3  N   UNL     1       3.874   4.469  18.188  0.00  0.00    +0.000 N 
ENDROOT
BRANCH   1   9
ATOM      4  C   UNL     1       7.481   8.872  17.461  0.00  0.00    +0.000 C 
ATOM      5  C   UNL     1       7.468   7.409  17.792  0.00  0.00    +0.000 A 
ATOM      6  C   UNL     1       8.274   6.896  18.813  0.00  0.00    +0.000 A 
ATOM      7  C   UNL     1       8.124   5.572  19.234  0.00  0.00    +0.000 A 
ATOM      8  C   UNL     1       7.085   4.798  18.719  0.00  0.00    +0.000 A 
ATOM      9  C   UNL     1       6.230   5.331  17.745  0.00  0.00    +0.000 A 
ATOM     10  C   UNL     1       6.515   6.585  17.199  0.00  0.00    +0.000 A 
ENDBRANCH   1   9
BRANCH   3  11
ATOM     11  C   UNL     1       2.782   3.646  17.625  0.00  0.00    +0.000 C 
ATOM     12  C   UNL     1       2.783   2.248  18.249  0.00  0.00    +0.000 C 
ATOM     13  C   UNL     1       1.403   4.290  17.592  0.00  0.00    +0.000 C 
ENDBRANCH   3  11
BRANCH   3  14
ATOM     14  C   UNL     1       3.704   5.219  19.464  0.00  0.00    +0.000 C 
BRANCH  14  15
ATOM     15  C   UNL     1       2.900   6.472  19.489  0.00  0.00    +0.000 A 
ATOM     16  N   UNL     1       1.853   6.784  20.221  0.00  0.00    +0.000 NA
ATOM     17  C   UNL     1       1.490   8.017  19.721  0.00  0.00    +0.000 A 
ATOM     18  N   UNL     1       2.186   8.389  18.635  0.00  0.00    +0.000 NA
ATOM     19  O   UNL     1       3.122   7.364  18.477  0.00  0.00    +0.000 OA
BRANCH  17  20
ATOM     20  C   UNL     1       0.627   8.902  20.492  0.00  0.00    +0.000 A 
ATOM     21  C   UNL     1       0.058  10.026  19.875  0.00  0.00    +0.000 A 
ATOM     22  C   UNL     1      -0.453  11.069  20.650  0.00  0.00    +0.000 A 
ATOM     23  C   UNL     1      -0.433  10.973  22.039  0.00  0.00    +0.000 A 
ATOM     24 CL   UNL     1      -0.900  12.327  22.994  0.00  0.00    +0.000 Cl
ATOM     25  C   UNL     1       0.019   9.812  22.661  0.00  0.00    +0.000 A 
ATOM     26  C   UNL     1       0.545   8.771  21.887  0.00  0.00    +0.000 A 
ENDBRANCH  17  20
ENDBRANCH  14  15
ENDBRANCH   3  14
TORSDOF 5
ENDMDL
