MODEL 1
REMARK VINA RESULT:      -7.3      0.000      0.000
REMARK  Name = 
REMARK  10 active torsions:
REMARK  status: ('A' for Active; 'I' for Inactive)
REMARK    1  A    between atoms: C_1  and  C_2
REMARK    2  A    between atoms: C_2  and  O_3
REMARK    3  A    between atoms: O_3  and  P_4
REMARK    4  A    between atoms: P_4  and  O_6
REMARK    5  A    between atoms: P_4  and  C_9
REMARK    6  A    between atoms: O_6  and  C_7
REMARK    7  A    between atoms: C_7  and  C_8
REMARK    8  A    between atoms: C_9  and  N_10
REMARK    9  A    between atoms: C_9  and  C_19
REMARK   10  A    between atoms: C_11  and  C_13
REMARK                            x       y       z     vdW  Elec       q    Type
REMARK                         _______ _______ _______ _____ _____    ______ ____
ROOT
ATOM      1  C   UNL     1       3.807   5.518  17.808  0.00  0.00    +0.000 C 
ENDROOT
BRANCH   1   2
ATOM      2  C   UNL     1       5.260   5.920  18.109  0.00  0.00    +0.000 A 
ATOM      3  C   UNL     1       5.950   5.491  19.261  0.00  0.00    +0.000 A 
ATOM      4  C   UNL     1       7.296   5.808  19.467  0.00  0.00    +0.000 A 
ATOM      5  C   UNL     1       7.987   6.554  18.520  0.00  0.00    +0.000 A 
ATOM      6  C   UNL     1       7.315   7.024  17.394  0.00  0.00    +0.000 A 
ATOM      7  C   UNL     1       5.960   6.738  17.220  0.00  0.00    +0.000 A 
ATOM      8  F   UNL     1       5.323   7.257  16.160  0.00  0.00    +0.000 F 
ENDBRANCH   1   2
BRANCH   1   9
ATOM      9  N   UNL     1       2.881   6.376  18.642  0.00  0.00    +0.000 N 
ATOM     10  C   UNL     1       2.485   7.659  18.258  0.00  0.00    +0.000 C 
ATOM     11  O   UNL     1       2.660   8.145  17.148  0.00  0.00    +0.000 OA
ATOM     12  H   UNL     1       2.735   6.108  19.605  0.00  0.00    +0.000 HD
BRANCH  10  13
ATOM     13  C   UNL     1       1.791   8.458  19.296  0.00  0.00    +0.000 A 
ATOM     14  C   UNL     1       1.192   9.672  18.964  0.00  0.00    +0.000 A 
ATOM     15  C   UNL     1       0.439  10.366  19.930  0.00  0.00    +0.000 A 
ATOM     16  C   UNL     1       0.288   9.837  21.207  0.00  0.00    +0.000 A 
ATOM     17  C   UNL     1       0.896   8.620  21.533  0.00  0.00    +0.000 A 
ATOM     18  C   UNL     1       1.657   7.941  20.581  0.00  0.00    +0.000 A 
ENDBRANCH  10  13
ENDBRANCH   1   9
BRANCH   1  19
ATOM     19  P   UNL     1       3.335   3.750  17.785  0.00  0.00    +0.000 P 
ATOM     20  O   UNL     1       4.004   3.572  16.414  0.00  0.00    +0.000 OA
BRANCH  19  21
ATOM     21  O   UNL     1       2.889   2.079  17.762  0.00  0.00    +0.000 OA
BRANCH  21  23
ATOM     22  C   UNL     1       4.290   1.961  19.737  0.00  0.00    +0.000 C 
ATOM     23  C   UNL     1       3.651   1.200  18.595  0.00  0.00    +0.000 C 
ENDBRANCH  21  23
ENDBRANCH  19  21
BRANCH  19  24
ATOM     24  O   UNL     1       1.686   4.059  17.736  0.00  0.00    +0.000 OA
BRANCH  24  25
ATOM     25  C   UNL     1       0.896   3.314  18.689  0.00  0.00    +0.000 C 
ATOM     26  C   UNL     1       0.947   3.835  20.107  0.00  0.00    +0.000 C 
ENDBRANCH  24  25
ENDBRANCH  19  24
ENDBRANCH   1  19
TORSDOF 8
ENDMDL
MODEL 2
REMARK VINA RESULT:      -7.0      3.101      5.177
REMARK  Name = 
REMARK  10 active torsions:
REMARK  status: ('A' for Active; 'I' for Inactive)
REMARK    1  A    between atoms: C_1  and  C_2
REMARK    2  A    between atoms: C_2  and  O_3
REMARK    3  A    between atoms: O_3  and  P_4
REMARK    4  A    between atoms: P_4  and  O_6
REMARK    5  A    between atoms: P_4  and  C_9
REMARK    6  A    between atoms: O_6  and  C_7
REMARK    7  A    between atoms: C_7  and  C_8
REMARK    8  A    between atoms: C_9  and  N_10
REMARK    9  A    between atoms: C_9  and  C_19
REMARK   10  A    between atoms: C_11  and  C_13
REMARK                            x       y       z     vdW  Elec       q    Type
REMARK                         _______ _______ _______ _____ _____    ______ ____
ROOT
ATOM      1  C   UNL     1       5.363   5.568  16.093  0.00  0.00    +0.000 C 
ENDROOT
BRANCH   1   2
ATOM      2  C   UNL     1       6.449   6.157  17.008  0.00  0.00    +0.000 A 
ATOM      3  C   UNL     1       6.905   7.486  16.897  0.00  0.00    +0.000 A 
ATOM      4  C   UNL     1       7.836   8.017  17.795  0.00  0.00    +0.000 A 
ATOM      5  C   UNL     1       8.326   7.233  18.832  0.00  0.00    +0.000 A 
ATOM      6  C   UNL     1       7.922   5.904  18.936  0.00  0.00    +0.000 A 
ATOM      7  C   UNL     1       7.025   5.372  18.008  0.00  0.00    +0.000 A 
ATOM      8  F   UNL     1       6.702   4.073  18.095  0.00  0.00    +0.000 F 
ENDBRANCH   1   2
BRANCH   1   9
ATOM      9  N   UNL     1       4.323   4.880  16.949  0.00  0.00    +0.000 N 
ATOM     10  C   UNL     1       3.420   5.579  17.754  0.00  0.00    +0.000 C 
ATOM     11  O   UNL     1       3.227   6.787  17.707  0.00  0.00    +0.000 OA
ATOM     12  H   UNL     1       4.438   3.891  17.123  0.00  0.00    +0.000 HD
BRANCH  10  13
ATOM     13  C   UNL     1       2.646   4.760  18.717  0.00  0.00    +0.000 A 
ATOM     14  C   UNL     1       2.640   5.087  20.072  0.00  0.00    +0.000 A 
ATOM     15  C   UNL     1       1.812   4.373  20.959  0.00  0.00    +0.000 A 
ATOM     16  C   UNL     1       0.998   3.352  20.482  0.00  0.00    +0.000 A 
ATOM     17  C   UNL     1       1.014   3.027  19.121  0.00  0.00    +0.000 A 
ATOM     18  C   UNL     1       1.847   3.723  18.245  0.00  0.00    +0.000 A 
ENDBRANCH  10  13
ENDBRANCH   1   9
BRANCH   1  19
ATOM     19  P   UNL     1       5.841   4.602  14.614  0.00  0.00    +0.000 P 
ATOM     20  O   UNL     1       5.876   3.312  15.446  0.00  0.00    +0.000 OA
BRANCH  19  21
ATOM     21  O   UNL     1       6.293   3.689  13.215  0.00  0.00    +0.000 OA
BRANCH  21  23
ATOM     22  C   UNL     1       5.642   2.103  11.501  0.00  0.00    +0.000 C 
ATOM     23  C   UNL     1       5.235   3.299  12.335  0.00  0.00    +0.000 C 
ENDBRANCH  21  23
ENDBRANCH  19  21
BRANCH  19  24
ATOM     24  O   UNL     1       7.323   5.371  14.432  0.00  0.00    +0.000 OA
BRANCH  24  25
ATOM     25  C   UNL     1       8.055   5.011  13.240  0.00  0.00    +0.000 C 
ATOM     26  C   UNL     1       8.544   6.179  12.414  0.00  0.00    +0.000 C 
ENDBRANCH  24  25
ENDBRANCH  19  24
ENDBRANCH   1  19
TORSDOF 8
ENDMDL
MODEL 3
REMARK VINA RESULT:      -7.0      2.405      4.630
REMARK  Name = 
REMARK  10 active torsions:
REMARK  status: ('A' for Active; 'I' for Inactive)
REMARK    1  A    between atoms: C_1  and  C_2
REMARK    2  A    between atoms: C_2  and  O_3
REMARK    3  A    between atoms: O_3  and  P_4
REMARK    4  A    between atoms: P_4  and  O_6
REMARK    5  A    between atoms: P_4  and  C_9
REMARK    6  A    between atoms: O_6  and  C_7
REMARK    7  A    between atoms: C_7  and  C_8
REMARK    8  A    between atoms: C_9  and  N_10
REMARK    9  A    between atoms: C_9  and  C_19
REMARK   10  A    between atoms: C_11  and  C_13
REMARK                            x       y       z     vdW  Elec       q    Type
REMARK                         _______ _______ _______ _____ _____    ______ ____
ROOT
ATOM      1  C   UNL     1       4.455   5.504  17.779  0.00  0.00    +0.000 C 
ENDROOT
BRANCH   1   2
ATOM      2  C   UNL     1       3.591   4.281  18.126  0.00  0.00    +0.000 A 
ATOM      3  C   UNL     1       2.308   4.071  17.581  0.00  0.00    +0.000 A 
ATOM      4  C   UNL     1       1.579   2.910  17.855  0.00  0.00    +0.000 A 
ATOM      5  C   UNL     1       2.121   1.926  18.674  0.00  0.00    +0.000 A 
ATOM      6  C   UNL     1       3.369   2.131  19.257  0.00  0.00    +0.000 A 
ATOM      7  C   UNL     1       4.069   3.313  19.011  0.00  0.00    +0.000 A 
ATOM      8  F   UNL     1       5.238   3.511  19.636  0.00  0.00    +0.000 F 
ENDBRANCH   1   2
BRANCH   1   9
ATOM      9  N   UNL     1       3.645   6.759  18.022  0.00  0.00    +0.000 N 
ATOM     10  C   UNL     1       2.920   6.979  19.195  0.00  0.00    +0.000 C 
ATOM     11  O   UNL     1       3.016   6.308  20.216  0.00  0.00    +0.000 OA
ATOM     12  H   UNL     1       3.436   7.343  17.224  0.00  0.00    +0.000 HD
BRANCH  10  13
ATOM     13  C   UNL     1       1.984   8.128  19.170  0.00  0.00    +0.000 A 
ATOM     14  C   UNL     1       1.665   8.748  17.963  0.00  0.00    +0.000 A 
ATOM     15  C   UNL     1       0.690   9.762  17.936  0.00  0.00    +0.000 A 
ATOM     16  C   UNL     1       0.042  10.137  19.108  0.00  0.00    +0.000 A 
ATOM     17  C   UNL     1       0.371   9.512  20.316  0.00  0.00    +0.000 A 
ATOM     18  C   UNL     1       1.350   8.520  20.346  0.00  0.00    +0.000 A 
ENDBRANCH  10  13
ENDBRANCH   1   9
BRANCH   1  19
ATOM     19  P   UNL     1       5.397   5.540  16.210  0.00  0.00    +0.000 P 
ATOM     20  O   UNL     1       6.220   4.323  16.657  0.00  0.00    +0.000 OA
BRANCH  19  21
ATOM     21  O   UNL     1       6.289   5.573  14.728  0.00  0.00    +0.000 OA
BRANCH  21  23
ATOM     22  C   UNL     1       5.878   3.747  13.188  0.00  0.00    +0.000 C 
ATOM     23  C   UNL     1       6.789   4.321  14.252  0.00  0.00    +0.000 C 
ENDBRANCH  21  23
ENDBRANCH  19  21
BRANCH  19  24
ATOM     24  O   UNL     1       6.105   7.030  16.521  0.00  0.00    +0.000 OA
BRANCH  24  25
ATOM     25  C   UNL     1       7.260   6.990  17.387  0.00  0.00    +0.000 C 
ATOM     26  C   UNL     1       7.872   8.336  17.700  0.00  0.00    +0.000 C 
ENDBRANCH  24  25
ENDBRANCH  19  24
ENDBRANCH   1  19
TORSDOF 8
ENDMDL
MODEL 4
REMARK VINA RESULT:      -6.9      2.983      6.024
REMARK  Name = 
REMARK  10 active torsions:
REMARK  status: ('A' for Active; 'I' for Inactive)
REMARK    1  A    between atoms: C_1  and  C_2
REMARK    2  A    between atoms: C_2  and  O_3
REMARK    3  A    between atoms: O_3  and  P_4
REMARK    4  A    between atoms: P_4  and  O_6
REMARK    5  A    between atoms: P_4  and  C_9
REMARK    6  A    between atoms: O_6  and  C_7
REMARK    7  A    between atoms: C_7  and  C_8
REMARK    8  A    between atoms: C_9  and  N_10
REMARK    9  A    between atoms: C_9  and  C_19
REMARK   10  A    between atoms: C_11  and  C_13
REMARK                            x       y       z     vdW  Elec       q    Type
REMARK                         _______ _______ _______ _____ _____    ______ ____
ROOT
ATOM      1  C   UNL     1       4.531   5.013  18.343  0.00  0.00    +0.000 C 
ENDROOT
BRANCH   1   2
ATOM      2  C   UNL     1       3.701   6.306  18.382  0.00  0.00    +0.000 A 
ATOM      3  C   UNL     1       3.739   7.272  17.355  0.00  0.00    +0.000 A 
ATOM      4  C   UNL     1       2.914   8.399  17.382  0.00  0.00    +0.000 A 
ATOM      5  C   UNL     1       2.022   8.584  18.431  0.00  0.00    +0.000 A 
ATOM      6  C   UNL     1       1.996   7.665  19.477  0.00  0.00    +0.000 A 
ATOM      7  C   UNL     1       2.856   6.565  19.462  0.00  0.00    +0.000 A 
ATOM      8  F   UNL     1       2.854   5.732  20.513  0.00  0.00    +0.000 F 
ENDBRANCH   1   2
BRANCH   1   9
ATOM      9  N   UNL     1       4.894   4.710  16.905  0.00  0.00    +0.000 N 
ATOM     10  C   UNL     1       6.213   4.553  16.473  0.00  0.00    +0.000 C 
ATOM     11  O   UNL     1       7.184   4.437  17.209  0.00  0.00    +0.000 OA
ATOM     12  H   UNL     1       4.183   4.856  16.202  0.00  0.00    +0.000 HD
BRANCH  10  13
ATOM     13  C   UNL     1       6.410   4.516  15.004  0.00  0.00    +0.000 A 
ATOM     14  C   UNL     1       7.463   5.218  14.419  0.00  0.00    +0.000 A 
ATOM     15  C   UNL     1       7.709   5.084  13.039  0.00  0.00    +0.000 A 
ATOM     16  C   UNL     1       6.910   4.248  12.267  0.00  0.00    +0.000 A 
ATOM     17  C   UNL     1       5.853   3.551  12.862  0.00  0.00    +0.000 A 
ATOM     18  C   UNL     1       5.598   3.697  14.225  0.00  0.00    +0.000 A 
ENDBRANCH  10  13
ENDBRANCH   1   9
BRANCH   1  19
ATOM     19  P   UNL     1       3.974   3.542  19.278  0.00  0.00    +0.000 P 
ATOM     20  O   UNL     1       5.403   3.306  19.789  0.00  0.00    +0.000 OA
BRANCH  19  21
ATOM     21  O   UNL     1       3.448   2.152  20.162  0.00  0.00    +0.000 OA
BRANCH  21  23
ATOM     22  C   UNL     1       1.430   2.830  21.322  0.00  0.00    +0.000 C 
ATOM     23  C   UNL     1       2.873   2.391  21.450  0.00  0.00    +0.000 C 
ENDBRANCH  21  23
ENDBRANCH  19  21
BRANCH  19  24
ATOM     24  O   UNL     1       3.556   2.669  17.906  0.00  0.00    +0.000 OA
BRANCH  24  25
ATOM     25  C   UNL     1       2.139   2.452  17.729  0.00  0.00    +0.000 C 
ATOM     26  C   UNL     1       1.293   3.704  17.745  0.00  0.00    +0.000 C 
ENDBRANCH  24  25
ENDBRANCH  19  24
ENDBRANCH   1  19
TORSDOF 8
ENDMDL
MODEL 5
REMARK VINA RESULT:      -6.8      0.934      1.648
REMARK  Name = 
REMARK  10 active torsions:
REMARK  status: ('A' for Active; 'I' for Inactive)
REMARK    1  A    between atoms: C_1  and  C_2
REMARK    2  A    between atoms: C_2  and  O_3
REMARK    3  A    between atoms: O_3  and  P_4
REMARK    4  A    between atoms: P_4  and  O_6
REMARK    5  A    between atoms: P_4  and  C_9
REMARK    6  A    between atoms: O_6  and  C_7
REMARK    7  A    between atoms: C_7  and  C_8
REMARK    8  A    between atoms: C_9  and  N_10
REMARK    9  A    between atoms: C_9  and  C_19
REMARK   10  A    between atoms: C_11  and  C_13
REMARK                            x       y       z     vdW  Elec       q    Type
REMARK                         _______ _______ _______ _____ _____    ______ ____
ROOT
ATOM      1  C   UNL     1       3.809   5.520  17.669  0.00  0.00    +0.000 C 
ENDROOT
BRANCH   1   2
ATOM      2  C   UNL     1       5.263   5.966  17.889  0.00  0.00    +0.000 A 
ATOM      3  C   UNL     1       5.910   6.904  17.060  0.00  0.00    +0.000 A 
ATOM      4  C   UNL     1       7.207   7.349  17.332  0.00  0.00    +0.000 A 
ATOM      5  C   UNL     1       7.885   6.873  18.448  0.00  0.00    +0.000 A 
ATOM      6  C   UNL     1       7.281   5.915  19.259  0.00  0.00    +0.000 A 
ATOM      7  C   UNL     1       6.003   5.446  18.952  0.00  0.00    +0.000 A 
ATOM      8  F   UNL     1       5.473   4.477  19.713  0.00  0.00    +0.000 F 
ENDBRANCH   1   2
BRANCH   1   9
ATOM      9  N   UNL     1       2.904   6.351  18.553  0.00  0.00    +0.000 N 
ATOM     10  C   UNL     1       2.478   7.635  18.209  0.00  0.00    +0.000 C 
ATOM     11  O   UNL     1       2.604   8.144  17.102  0.00  0.00    +0.000 OA
ATOM     12  H   UNL     1       2.799   6.063  19.516  0.00  0.00    +0.000 HD
BRANCH  10  13
ATOM     13  C   UNL     1       1.814   8.406  19.288  0.00  0.00    +0.000 A 
ATOM     14  C   UNL     1       1.733   7.883  20.577  0.00  0.00    +0.000 A 
ATOM     15  C   UNL     1       1.204   8.669  21.618  0.00  0.00    +0.000 A 
ATOM     16  C   UNL     1       0.772   9.965  21.360  0.00  0.00    +0.000 A 
ATOM     17  C   UNL     1       0.852  10.481  20.062  0.00  0.00    +0.000 A 
ATOM     18  C   UNL     1       1.361   9.696  19.027  0.00  0.00    +0.000 A 
ENDBRANCH  10  13
ENDBRANCH   1   9
BRANCH   1  19
ATOM     19  P   UNL     1       3.390   3.739  17.669  0.00  0.00    +0.000 P 
ATOM     20  O   UNL     1       4.117   3.550  16.330  0.00  0.00    +0.000 OA
BRANCH  19  21
ATOM     21  O   UNL     1       2.993   2.055  17.669  0.00  0.00    +0.000 OA
BRANCH  21  23
ATOM     22  C   UNL     1       4.158   1.818  19.782  0.00  0.00    +0.000 C 
ATOM     23  C   UNL     1       3.840   1.197  18.438  0.00  0.00    +0.000 C 
ENDBRANCH  21  23
ENDBRANCH  19  21
BRANCH  19  24
ATOM     24  O   UNL     1       1.735   3.997  17.549  0.00  0.00    +0.000 OA
BRANCH  24  25
ATOM     25  C   UNL     1       0.932   3.268  18.504  0.00  0.00    +0.000 C 
ATOM     26  C   UNL     1       0.972   3.807  19.915  0.00  0.00    +0.000 C 
ENDBRANCH  24  25
ENDBRANCH  19  24
ENDBRANCH   1  19
TORSDOF 8
ENDMDL
MODEL 6
REMARK VINA RESULT:      -6.7      2.797      5.846
REMARK  Name = 
REMARK  10 active torsions:
REMARK  status: ('A' for Active; 'I' for Inactive)
REMARK    1  A    between atoms: C_1  and  C_2
REMARK    2  A    between atoms: C_2  and  O_3
REMARK    3  A    between atoms: O_3  and  P_4
REMARK    4  A    between atoms: P_4  and  O_6
REMARK    5  A    between atoms: P_4  and  C_9
REMARK    6  A    between atoms: O_6  and  C_7
REMARK    7  A    between atoms: C_7  and  C_8
REMARK    8  A    between atoms: C_9  and  N_10
REMARK    9  A    between atoms: C_9  and  C_19
REMARK   10  A    between atoms: C_11  and  C_13
REMARK                            x       y       z     vdW  Elec       q    Type
REMARK                         _______ _______ _______ _____ _____    ______ ____
ROOT
ATOM      1  C   UNL     1       4.446   5.088  18.352  0.00  0.00    +0.000 C 
ENDROOT
BRANCH   1   2
ATOM      2  C   UNL     1       3.550   6.335  18.389  0.00  0.00    +0.000 A 
ATOM      3  C   UNL     1       2.611   6.573  19.413  0.00  0.00    +0.000 A 
ATOM      4  C   UNL     1       1.866   7.755  19.462  0.00  0.00    +0.000 A 
ATOM      5  C   UNL     1       2.049   8.733  18.491  0.00  0.00    +0.000 A 
ATOM      6  C   UNL     1       2.941   8.502  17.447  0.00  0.00    +0.000 A 
ATOM      7  C   UNL     1       3.648   7.300  17.385  0.00  0.00    +0.000 A 
ATOM      8  F   UNL     1       4.451   7.079  16.334  0.00  0.00    +0.000 F 
ENDBRANCH   1   2
BRANCH   1   9
ATOM      9  N   UNL     1       4.784   4.771  16.911  0.00  0.00    +0.000 N 
ATOM     10  C   UNL     1       6.088   4.538  16.471  0.00  0.00    +0.000 C 
ATOM     11  O   UNL     1       7.055   4.360  17.202  0.00  0.00    +0.000 OA
ATOM     12  H   UNL     1       4.080   4.963  16.213  0.00  0.00    +0.000 HD
BRANCH  10  13
ATOM     13  C   UNL     1       6.276   4.497  15.001  0.00  0.00    +0.000 A 
ATOM     14  C   UNL     1       7.373   5.128  14.415  0.00  0.00    +0.000 A 
ATOM     15  C   UNL     1       7.603   4.986  13.034  0.00  0.00    +0.000 A 
ATOM     16  C   UNL     1       6.744   4.214  12.260  0.00  0.00    +0.000 A 
ATOM     17  C   UNL     1       5.643   3.589  12.856  0.00  0.00    +0.000 A 
ATOM     18  C   UNL     1       5.405   3.743  14.221  0.00  0.00    +0.000 A 
ENDBRANCH  10  13
ENDBRANCH   1   9
BRANCH   1  19
ATOM     19  P   UNL     1       3.997   3.611  19.335  0.00  0.00    +0.000 P 
ATOM     20  O   UNL     1       5.454   3.450  19.791  0.00  0.00    +0.000 OA
BRANCH  19  21
ATOM     21  O   UNL     1       3.572   2.215  20.265  0.00  0.00    +0.000 OA
BRANCH  21  23
ATOM     22  C   UNL     1       2.152   3.798  21.428  0.00  0.00    +0.000 C 
ATOM     23  C   UNL     1       2.830   2.446  21.465  0.00  0.00    +0.000 C 
ENDBRANCH  21  23
ENDBRANCH  19  21
BRANCH  19  24
ATOM     24  O   UNL     1       3.565   2.693  17.997  0.00  0.00    +0.000 OA
BRANCH  24  25
ATOM     25  C   UNL     1       2.163   2.356  17.915  0.00  0.00    +0.000 C 
ATOM     26  C   UNL     1       1.220   3.537  17.916  0.00  0.00    +0.000 C 
ENDBRANCH  24  25
ENDBRANCH  19  24
ENDBRANCH   1  19
TORSDOF 8
ENDMDL
MODEL 7
REMARK VINA RESULT:      -6.6      2.979      5.017
REMARK  Name = 
REMARK  10 active torsions:
REMARK  status: ('A' for Active; 'I' for Inactive)
REMARK    1  A    between atoms: C_1  and  C_2
REMARK    2  A    between atoms: C_2  and  O_3
REMARK    3  A    between atoms: O_3  and  P_4
REMARK    4  A    between atoms: P_4  and  O_6
REMARK    5  A    between atoms: P_4  and  C_9
REMARK    6  A    between atoms: O_6  and  C_7
REMARK    7  A    between atoms: C_7  and  C_8
REMARK    8  A    between atoms: C_9  and  N_10
REMARK    9  A    between atoms: C_9  and  C_19
REMARK   10  A    between atoms: C_11  and  C_13
REMARK                            x       y       z     vdW  Elec       q    Type
REMARK                         _______ _______ _______ _____ _____    ______ ____
ROOT
ATOM      1  C   UNL     1       5.160   5.388  16.296  0.00  0.00    +0.000 C 
ENDROOT
BRANCH   1   2
ATOM      2  C   UNL     1       6.243   5.877  17.271  0.00  0.00    +0.000 A 
ATOM      3  C   UNL     1       6.843   5.038  18.231  0.00  0.00    +0.000 A 
ATOM      4  C   UNL     1       7.881   5.491  19.050  0.00  0.00    +0.000 A 
ATOM      5  C   UNL     1       8.351   6.792  18.922  0.00  0.00    +0.000 A 
ATOM      6  C   UNL     1       7.746   7.651  18.008  0.00  0.00    +0.000 A 
ATOM      7  C   UNL     1       6.681   7.202  17.226  0.00  0.00    +0.000 A 
ATOM      8  F   UNL     1       6.076   8.069  16.402  0.00  0.00    +0.000 F 
ENDBRANCH   1   2
BRANCH   1   9
ATOM      9  N   UNL     1       4.070   4.695  17.084  0.00  0.00    +0.000 N 
ATOM     10  C   UNL     1       3.136   5.387  17.858  0.00  0.00    +0.000 C 
ATOM     11  O   UNL     1       2.959   6.599  17.827  0.00  0.00    +0.000 OA
ATOM     12  H   UNL     1       4.166   3.701  17.241  0.00  0.00    +0.000 HD
BRANCH  10  13
ATOM     13  C   UNL     1       2.305   4.558  18.763  0.00  0.00    +0.000 A 
ATOM     14  C   UNL     1       1.540   3.511  18.251  0.00  0.00    +0.000 A 
ATOM     15  C   UNL     1       0.845   2.659  19.130  0.00  0.00    +0.000 A 
ATOM     16  C   UNL     1       0.931   2.857  20.504  0.00  0.00    +0.000 A 
ATOM     17  C   UNL     1       1.698   3.913  21.009  0.00  0.00    +0.000 A 
ATOM     18  C   UNL     1       2.372   4.768  20.137  0.00  0.00    +0.000 A 
ENDBRANCH  10  13
ENDBRANCH   1   9
BRANCH   1  19
ATOM     19  P   UNL     1       5.639   4.491  14.774  0.00  0.00    +0.000 P 
ATOM     20  O   UNL     1       5.941   3.228  15.593  0.00  0.00    +0.000 OA
BRANCH  19  21
ATOM     21  O   UNL     1       6.092   3.643  13.336  0.00  0.00    +0.000 OA
BRANCH  21  23
ATOM     22  C   UNL     1       5.455   2.252  11.455  0.00  0.00    +0.000 C 
ATOM     23  C   UNL     1       5.045   3.358  12.404  0.00  0.00    +0.000 C 
ENDBRANCH  21  23
ENDBRANCH  19  21
BRANCH  19  24
ATOM     24  O   UNL     1       6.966   5.470  14.461  0.00  0.00    +0.000 OA
BRANCH  24  25
ATOM     25  C   UNL     1       7.874   4.966  13.457  0.00  0.00    +0.000 C 
ATOM     26  C   UNL     1       8.335   5.987  12.441  0.00  0.00    +0.000 C 
ENDBRANCH  24  25
ENDBRANCH  19  24
ENDBRANCH   1  19
TORSDOF 8
ENDMDL
MODEL 8
REMARK VINA RESULT:      -6.6      2.413      4.780
REMARK  Name = 
REMARK  10 active torsions:
REMARK  status: ('A' for Active; 'I' for Inactive)
REMARK    1  A    between atoms: C_1  and  C_2
REMARK    2  A    between atoms: C_2  and  O_3
REMARK    3  A    between atoms: O_3  and  P_4
REMARK    4  A    between atoms: P_4  and  O_6
REMARK    5  A    between atoms: P_4  and  C_9
REMARK    6  A    between atoms: O_6  and  C_7
REMARK    7  A    between atoms: C_7  and  C_8
REMARK    8  A    between atoms: C_9  and  N_10
REMARK    9  A    between atoms: C_9  and  C_19
REMARK   10  A    between atoms: C_11  and  C_13
REMARK                            x       y       z     vdW  Elec       q    Type
REMARK                         _______ _______ _______ _____ _____    ______ ____
ROOT
ATOM      1  C   UNL     1       4.124   5.144  18.948  0.00  0.00    +0.000 C 
ENDROOT
BRANCH   1   2
ATOM      2  C   UNL     1       2.970   4.131  18.867  0.00  0.00    +0.000 A 
ATOM      3  C   UNL     1       1.932   4.228  17.918  0.00  0.00    +0.000 A 
ATOM      4  C   UNL     1       0.941   3.248  17.817  0.00  0.00    +0.000 A 
ATOM      5  C   UNL     1       0.969   2.141  18.657  0.00  0.00    +0.000 A 
ATOM      6  C   UNL     1       1.962   2.045  19.629  0.00  0.00    +0.000 A 
ATOM      7  C   UNL     1       2.921   3.051  19.750  0.00  0.00    +0.000 A 
ATOM      8  F   UNL     1       3.826   2.964  20.736  0.00  0.00    +0.000 F 
ENDBRANCH   1   2
BRANCH   1   9
ATOM      9  N   UNL     1       3.548   6.543  18.914  0.00  0.00    +0.000 N 
ATOM     10  C   UNL     1       2.509   6.957  19.751  0.00  0.00    +0.000 C 
ATOM     11  O   UNL     1       2.096   6.331  20.719  0.00  0.00    +0.000 OA
ATOM     12  H   UNL     1       3.760   7.117  18.110  0.00  0.00    +0.000 HD
BRANCH  10  13
ATOM     13  C   UNL     1       1.893   8.263  19.418  0.00  0.00    +0.000 A 
ATOM     14  C   UNL     1       2.034   8.801  18.140  0.00  0.00    +0.000 A 
ATOM     15  C   UNL     1       1.351   9.984  17.801  0.00  0.00    +0.000 A 
ATOM     16  C   UNL     1       0.534  10.608  18.736  0.00  0.00    +0.000 A 
ATOM     17  C   UNL     1       0.401  10.064  20.018  0.00  0.00    +0.000 A 
ATOM     18  C   UNL     1       1.091   8.902  20.360  0.00  0.00    +0.000 A 
ENDBRANCH  10  13
ENDBRANCH   1   9
BRANCH   1  19
ATOM     19  P   UNL     1       5.597   4.938  17.883  0.00  0.00    +0.000 P 
ATOM     20  O   UNL     1       6.281   4.089  18.964  0.00  0.00    +0.000 OA
BRANCH  19  21
ATOM     21  O   UNL     1       6.990   4.743  16.876  0.00  0.00    +0.000 OA
BRANCH  21  23
ATOM     22  C   UNL     1       5.276   4.302  15.219  0.00  0.00    +0.000 C 
ATOM     23  C   UNL     1       6.749   4.532  15.482  0.00  0.00    +0.000 C 
ENDBRANCH  21  23
ENDBRANCH  19  21
BRANCH  19  24
ATOM     24  O   UNL     1       5.996   6.569  17.900  0.00  0.00    +0.000 OA
BRANCH  24  25
ATOM     25  C   UNL     1       7.404   6.852  18.061  0.00  0.00    +0.000 C 
ATOM     26  C   UNL     1       7.824   8.249  17.667  0.00  0.00    +0.000 C 
ENDBRANCH  24  25
ENDBRANCH  19  24
ENDBRANCH   1  19
TORSDOF 8
ENDMDL
MODEL 9
REMARK VINA RESULT:      -6.6      2.198      4.640
REMARK  Name = 
REMARK  10 active torsions:
REMARK  status: ('A' for Active; 'I' for Inactive)
REMARK    1  A    between atoms: C_1  and  C_2
REMARK    2  A    between atoms: C_2  and  O_3
REMARK    3  A    between atoms: O_3  and  P_4
REMARK    4  A    between atoms: P_4  and  O_6
REMARK    5  A    between atoms: P_4  and  C_9
REMARK    6  A    between atoms: O_6  and  C_7
REMARK    7  A    between atoms: C_7  and  C_8
REMARK    8  A    between atoms: C_9  and  N_10
REMARK    9  A    between atoms: C_9  and  C_19
REMARK   10  A    between atoms: C_11  and  C_13
REMARK                            x       y       z     vdW  Elec       q    Type
REMARK                         _______ _______ _______ _____ _____    ______ ____
ROOT
ATOM      1  C   UNL     1       4.031   5.162  19.236  0.00  0.00    +0.000 C 
ENDROOT
BRANCH   1   2
ATOM      2  C   UNL     1       2.909   4.118  19.349  0.00  0.00    +0.000 A 
ATOM      3  C   UNL     1       2.706   3.335  20.504  0.00  0.00    +0.000 A 
ATOM      4  C   UNL     1       1.629   2.450  20.607  0.00  0.00    +0.000 A 
ATOM      5  C   UNL     1       0.723   2.334  19.560  0.00  0.00    +0.000 A 
ATOM      6  C   UNL     1       0.927   3.066  18.393  0.00  0.00    +0.000 A 
ATOM      7  C   UNL     1       2.030   3.915  18.285  0.00  0.00    +0.000 A 
ATOM      8  F   UNL     1       2.236   4.558  17.127  0.00  0.00    +0.000 F 
ENDBRANCH   1   2
BRANCH   1   9
ATOM      9  N   UNL     1       3.408   6.533  19.084  0.00  0.00    +0.000 N 
ATOM     10  C   UNL     1       2.374   6.992  19.903  0.00  0.00    +0.000 C 
ATOM     11  O   UNL     1       2.004   6.449  20.936  0.00  0.00    +0.000 OA
ATOM     12  H   UNL     1       3.583   7.034  18.224  0.00  0.00    +0.000 HD
BRANCH  10  13
ATOM     13  C   UNL     1       1.708   8.241  19.463  0.00  0.00    +0.000 A 
ATOM     14  C   UNL     1       0.943   8.983  20.361  0.00  0.00    +0.000 A 
ATOM     15  C   UNL     1       0.410  10.224  19.965  0.00  0.00    +0.000 A 
ATOM     16  C   UNL     1       0.654  10.710  18.685  0.00  0.00    +0.000 A 
ATOM     17  C   UNL     1       1.419   9.956  17.788  0.00  0.00    +0.000 A 
ATOM     18  C   UNL     1       1.933   8.719  18.175  0.00  0.00    +0.000 A 
ENDBRANCH  10  13
ENDBRANCH   1   9
BRANCH   1  19
ATOM     19  P   UNL     1       5.438   4.873  18.102  0.00  0.00    +0.000 P 
ATOM     20  O   UNL     1       6.121   3.983  19.149  0.00  0.00    +0.000 OA
BRANCH  19  21
ATOM     21  O   UNL     1       6.767   4.599  17.029  0.00  0.00    +0.000 OA
BRANCH  21  23
ATOM     22  C   UNL     1       5.098   4.480  15.275  0.00  0.00    +0.000 C 
ATOM     23  C   UNL     1       6.457   4.021  15.758  0.00  0.00    +0.000 C 
ENDBRANCH  21  23
ENDBRANCH  19  21
BRANCH  19  24
ATOM     24  O   UNL     1       5.932   6.477  18.099  0.00  0.00    +0.000 OA
BRANCH  24  25
ATOM     25  C   UNL     1       7.361   6.676  18.016  0.00  0.00    +0.000 C 
ATOM     26  C   UNL     1       7.789   8.066  17.603  0.00  0.00    +0.000 C 
ENDBRANCH  24  25
ENDBRANCH  19  24
ENDBRANCH   1  19
TORSDOF 8
ENDMDL
