MODEL 1
REMARK VINA RESULT:      -7.8      0.000      0.000
REMARK  Name = 
REMARK  1 active torsions:
REMARK  status: ('A' for Active; 'I' for Inactive)
REMARK    1  A    between atoms: C_6  and  C_7
REMARK                            x       y       z     vdW  Elec       q    Type
REMARK                         _______ _______ _______ _____ _____    ______ ____
ROOT
ATOM      1  C   UNL     1       7.550   4.697  12.344  0.00  0.00    +0.000 A 
ATOM      2  C   UNL     1       6.500   3.797  12.204  0.00  0.00    +0.000 A 
ATOM      3  C   UNL     1       5.672   3.516  13.295  0.00  0.00    +0.000 A 
ATOM      4  C   UNL     1       5.863   4.121  14.529  0.00  0.00    +0.000 A 
ATOM      5  N   UNL     1       5.031   3.826  15.542  0.00  0.00    +0.000 NA
ATOM      6  C   UNL     1       5.222   4.437  16.739  0.00  0.00    +0.000 A 
ATOM      7  C   UNL     1       6.250   5.346  16.958  0.00  0.00    +0.000 A 
ATOM      8  C   UNL     1       7.114   5.645  15.911  0.00  0.00    +0.000 A 
ATOM      9  C   UNL     1       6.930   5.034  14.667  0.00  0.00    +0.000 A 
ATOM     10  C   UNL     1       7.768   5.315  13.573  0.00  0.00    +0.000 A 
ENDROOT
BRANCH   6  11
ATOM     11  C   UNL     1       4.270   4.116  17.820  0.00  0.00    +0.000 A 
ATOM     12  N   UNL     1       4.557   3.349  18.858  0.00  0.00    +0.000 NA
ATOM     13  C   UNL     1       3.465   3.250  19.701  0.00  0.00    +0.000 A 
ATOM     14  C   UNL     1       3.419   2.524  20.908  0.00  0.00    +0.000 A 
ATOM     15  C   UNL     1       2.245   2.509  21.667  0.00  0.00    +0.000 A 
ATOM     16  C   UNL     1       1.120   3.206  21.236  0.00  0.00    +0.000 A 
ATOM     17  C   UNL     1       1.141   3.934  20.043  0.00  0.00    +0.000 A 
ATOM     18  C   UNL     1       2.328   3.944  19.292  0.00  0.00    +0.000 A 
ATOM     19  S   UNL     1       2.663   4.740  17.807  0.00  0.00    +0.000 S 
ENDBRANCH   6  11
TORSDOF 1
ENDMDL
MODEL 2
REMARK VINA RESULT:      -7.8      1.024      1.328
REMARK  Name = 
REMARK  1 active torsions:
REMARK  status: ('A' for Active; 'I' for Inactive)
REMARK    1  A    between atoms: C_6  and  C_7
REMARK                            x       y       z     vdW  Elec       q    Type
REMARK                         _______ _______ _______ _____ _____    ______ ____
ROOT
ATOM      1  C   UNL     1       7.495   4.487  11.966  0.00  0.00    +0.000 A 
ATOM      2  C   UNL     1       6.390   3.650  11.863  0.00  0.00    +0.000 A 
ATOM      3  C   UNL     1       5.563   3.447  12.973  0.00  0.00    +0.000 A 
ATOM      4  C   UNL     1       5.811   4.067  14.188  0.00  0.00    +0.000 A 
ATOM      5  N   UNL     1       4.979   3.848  15.221  0.00  0.00    +0.000 NA
ATOM      6  C   UNL     1       5.226   4.475  16.399  0.00  0.00    +0.000 A 
ATOM      7  C   UNL     1       6.311   5.323  16.581  0.00  0.00    +0.000 A 
ATOM      8  C   UNL     1       7.176   5.544  15.514  0.00  0.00    +0.000 A 
ATOM      9  C   UNL     1       6.934   4.917  14.289  0.00  0.00    +0.000 A 
ATOM     10  C   UNL     1       7.770   5.120  13.176  0.00  0.00    +0.000 A 
ENDROOT
BRANCH   6  11
ATOM     11  C   UNL     1       4.274   4.238  17.501  0.00  0.00    +0.000 A 
ATOM     12  N   UNL     1       3.088   3.672  17.349  0.00  0.00    +0.000 NA
ATOM     13  C   UNL     1       2.439   3.577  18.567  0.00  0.00    +0.000 A 
ATOM     14  C   UNL     1       1.164   3.017  18.780  0.00  0.00    +0.000 A 
ATOM     15  C   UNL     1       0.624   2.986  20.070  0.00  0.00    +0.000 A 
ATOM     16  C   UNL     1       1.339   3.506  21.144  0.00  0.00    +0.000 A 
ATOM     17  C   UNL     1       2.606   4.067  20.959  0.00  0.00    +0.000 A 
ATOM     18  C   UNL     1       3.138   4.089  19.659  0.00  0.00    +0.000 A 
ATOM     19  S   UNL     1       4.653   4.696  19.119  0.00  0.00    +0.000 S 
ENDBRANCH   6  11
TORSDOF 1
ENDMDL
MODEL 3
REMARK VINA RESULT:      -7.5      4.595      8.130
REMARK  Name = 
REMARK  1 active torsions:
REMARK  status: ('A' for Active; 'I' for Inactive)
REMARK    1  A    between atoms: C_6  and  C_7
REMARK                            x       y       z     vdW  Elec       q    Type
REMARK                         _______ _______ _______ _____ _____    ______ ____
ROOT
ATOM      1  C   UNL     1      -0.485  10.819  22.218  0.00  0.00    +0.000 A 
ATOM      2  C   UNL     1       0.030   9.703  22.866  0.00  0.00    +0.000 A 
ATOM      3  C   UNL     1       0.779   8.764  22.149  0.00  0.00    +0.000 A 
ATOM      4  C   UNL     1       1.033   8.916  20.794  0.00  0.00    +0.000 A 
ATOM      5  N   UNL     1       1.769   7.992  20.154  0.00  0.00    +0.000 NA
ATOM      6  C   UNL     1       2.022   8.163  18.832  0.00  0.00    +0.000 A 
ATOM      7  C   UNL     1       1.540   9.250  18.114  0.00  0.00    +0.000 A 
ATOM      8  C   UNL     1       0.773  10.203  18.775  0.00  0.00    +0.000 A 
ATOM      9  C   UNL     1       0.509  10.051  20.140  0.00  0.00    +0.000 A 
ATOM     10  C   UNL     1      -0.249  10.995  20.856  0.00  0.00    +0.000 A 
ENDROOT
BRANCH   6  11
ATOM     11  C   UNL     1       2.861   7.146  18.169  0.00  0.00    +0.000 A 
ATOM     12  N   UNL     1       3.915   7.427  17.421  0.00  0.00    +0.000 NA
ATOM     13  C   UNL     1       4.498   6.263  16.954  0.00  0.00    +0.000 A 
ATOM     14  C   UNL     1       5.646   6.186  16.139  0.00  0.00    +0.000 A 
ATOM     15  C   UNL     1       6.131   4.937  15.737  0.00  0.00    +0.000 A 
ATOM     16  C   UNL     1       5.485   3.770  16.135  0.00  0.00    +0.000 A 
ATOM     17  C   UNL     1       4.346   3.821  16.944  0.00  0.00    +0.000 A 
ATOM     18  C   UNL     1       3.871   5.081  17.343  0.00  0.00    +0.000 A 
ATOM     19  S   UNL     1       2.517   5.465  18.329  0.00  0.00    +0.000 S 
ENDBRANCH   6  11
TORSDOF 1
ENDMDL
MODEL 4
REMARK VINA RESULT:      -7.5      1.421      7.175
REMARK  Name = 
REMARK  1 active torsions:
REMARK  status: ('A' for Active; 'I' for Inactive)
REMARK    1  A    between atoms: C_6  and  C_7
REMARK                            x       y       z     vdW  Elec       q    Type
REMARK                         _______ _______ _______ _____ _____    ______ ____
ROOT
ATOM      1  C   UNL     1       1.170   2.985  20.830  0.00  0.00    +0.000 A 
ATOM      2  C   UNL     1       0.694   2.563  19.595  0.00  0.00    +0.000 A 
ATOM      3  C   UNL     1       1.456   2.780  18.442  0.00  0.00    +0.000 A 
ATOM      4  C   UNL     1       2.693   3.407  18.495  0.00  0.00    +0.000 A 
ATOM      5  N   UNL     1       3.391   3.581  17.360  0.00  0.00    +0.000 NA
ATOM      6  C   UNL     1       4.606   4.182  17.429  0.00  0.00    +0.000 A 
ATOM      7  C   UNL     1       5.148   4.634  18.627  0.00  0.00    +0.000 A 
ATOM      8  C   UNL     1       4.421   4.460  19.800  0.00  0.00    +0.000 A 
ATOM      9  C   UNL     1       3.172   3.834  19.752  0.00  0.00    +0.000 A 
ATOM     10  C   UNL     1       2.406   3.622  20.912  0.00  0.00    +0.000 A 
ENDROOT
BRANCH   6  11
ATOM     11  C   UNL     1       5.360   4.326  16.170  0.00  0.00    +0.000 A 
ATOM     12  N   UNL     1       5.080   3.668  15.058  0.00  0.00    +0.000 NA
ATOM     13  C   UNL     1       5.956   4.030  14.050  0.00  0.00    +0.000 A 
ATOM     14  C   UNL     1       5.943   3.536  12.730  0.00  0.00    +0.000 A 
ATOM     15  C   UNL     1       6.891   3.990  11.808  0.00  0.00    +0.000 A 
ATOM     16  C   UNL     1       7.850   4.925  12.187  0.00  0.00    +0.000 A 
ATOM     17  C   UNL     1       7.883   5.430  13.490  0.00  0.00    +0.000 A 
ATOM     18  C   UNL     1       6.923   4.969  14.406  0.00  0.00    +0.000 A 
ATOM     19  S   UNL     1       6.704   5.400  16.054  0.00  0.00    +0.000 S 
ENDBRANCH   6  11
TORSDOF 1
ENDMDL
MODEL 5
REMARK VINA RESULT:      -7.4      1.040      1.321
REMARK  Name = 
REMARK  1 active torsions:
REMARK  status: ('A' for Active; 'I' for Inactive)
REMARK    1  A    between atoms: C_6  and  C_7
REMARK                            x       y       z     vdW  Elec       q    Type
REMARK                         _______ _______ _______ _____ _____    ______ ____
ROOT
ATOM      1  C   UNL     1       7.635   4.606  12.030  0.00  0.00    +0.000 A 
ATOM      2  C   UNL     1       6.556   3.747  11.863  0.00  0.00    +0.000 A 
ATOM      3  C   UNL     1       5.697   3.488  12.936  0.00  0.00    +0.000 A 
ATOM      4  C   UNL     1       5.888   4.075  14.179  0.00  0.00    +0.000 A 
ATOM      5  N   UNL     1       5.027   3.803  15.174  0.00  0.00    +0.000 NA
ATOM      6  C   UNL     1       5.217   4.397  16.380  0.00  0.00    +0.000 A 
ATOM      7  C   UNL     1       6.274   5.265  16.625  0.00  0.00    +0.000 A 
ATOM      8  C   UNL     1       7.169   5.541  15.597  0.00  0.00    +0.000 A 
ATOM      9  C   UNL     1       6.985   4.947  14.344  0.00  0.00    +0.000 A 
ATOM     10  C   UNL     1       7.853   5.206  13.269  0.00  0.00    +0.000 A 
ENDROOT
BRANCH   6  11
ATOM     11  C   UNL     1       4.234   4.103  17.439  0.00  0.00    +0.000 A 
ATOM     12  N   UNL     1       3.668   5.022  18.203  0.00  0.00    +0.000 NA
ATOM     13  C   UNL     1       2.783   4.435  19.089  0.00  0.00    +0.000 A 
ATOM     14  C   UNL     1       1.997   5.115  20.041  0.00  0.00    +0.000 A 
ATOM     15  C   UNL     1       1.140   4.393  20.878  0.00  0.00    +0.000 A 
ATOM     16  C   UNL     1       1.060   3.008  20.778  0.00  0.00    +0.000 A 
ATOM     17  C   UNL     1       1.830   2.311  19.842  0.00  0.00    +0.000 A 
ATOM     18  C   UNL     1       2.684   3.047  19.005  0.00  0.00    +0.000 A 
ATOM     19  S   UNL     1       3.735   2.486  17.767  0.00  0.00    +0.000 S 
ENDBRANCH   6  11
TORSDOF 1
ENDMDL
MODEL 6
REMARK VINA RESULT:      -7.4      4.183      5.222
REMARK  Name = 
REMARK  1 active torsions:
REMARK  status: ('A' for Active; 'I' for Inactive)
REMARK    1  A    between atoms: C_6  and  C_7
REMARK                            x       y       z     vdW  Elec       q    Type
REMARK                         _______ _______ _______ _____ _____    ______ ____
ROOT
ATOM      1  C   UNL     1       6.482   4.167  15.768  0.00  0.00    +0.000 A 
ATOM      2  C   UNL     1       6.919   5.479  15.912  0.00  0.00    +0.000 A 
ATOM      3  C   UNL     1       6.112   6.414  16.568  0.00  0.00    +0.000 A 
ATOM      4  C   UNL     1       4.874   6.068  17.091  0.00  0.00    +0.000 A 
ATOM      5  N   UNL     1       4.143   7.001  17.724  0.00  0.00    +0.000 NA
ATOM      6  C   UNL     1       2.942   6.644  18.245  0.00  0.00    +0.000 A 
ATOM      7  C   UNL     1       2.436   5.354  18.138  0.00  0.00    +0.000 A 
ATOM      8  C   UNL     1       3.191   4.390  17.478  0.00  0.00    +0.000 A 
ATOM      9  C   UNL     1       4.435   4.735  16.943  0.00  0.00    +0.000 A 
ATOM     10  C   UNL     1       5.242   3.793  16.280  0.00  0.00    +0.000 A 
ENDROOT
BRANCH   6  11
ATOM     11  C   UNL     1       2.180   7.685  18.961  0.00  0.00    +0.000 A 
ATOM     12  N   UNL     1       1.856   7.618  20.241  0.00  0.00    +0.000 NA
ATOM     13  C   UNL     1       1.158   8.750  20.621  0.00  0.00    +0.000 A 
ATOM     14  C   UNL     1       0.668   9.021  21.914  0.00  0.00    +0.000 A 
ATOM     15  C   UNL     1      -0.025  10.211  22.161  0.00  0.00    +0.000 A 
ATOM     16  C   UNL     1      -0.235  11.128  21.136  0.00  0.00    +0.000 A 
ATOM     17  C   UNL     1       0.242  10.883  19.845  0.00  0.00    +0.000 A 
ATOM     18  C   UNL     1       0.939   9.686  19.611  0.00  0.00    +0.000 A 
ATOM     19  S   UNL     1       1.644   9.110  18.153  0.00  0.00    +0.000 S 
ENDBRANCH   6  11
TORSDOF 1
ENDMDL
MODEL 7
REMARK VINA RESULT:      -7.4      1.395      7.216
REMARK  Name = 
REMARK  1 active torsions:
REMARK  status: ('A' for Active; 'I' for Inactive)
REMARK    1  A    between atoms: C_6  and  C_7
REMARK                            x       y       z     vdW  Elec       q    Type
REMARK                         _______ _______ _______ _____ _____    ______ ____
ROOT
ATOM      1  C   UNL     1       1.881   3.629  21.636  0.00  0.00    +0.000 A 
ATOM      2  C   UNL     1       2.375   2.445  21.102  0.00  0.00    +0.000 A 
ATOM      3  C   UNL     1       3.093   2.467  19.902  0.00  0.00    +0.000 A 
ATOM      4  C   UNL     1       3.336   3.651  19.221  0.00  0.00    +0.000 A 
ATOM      5  N   UNL     1       4.042   3.620  18.078  0.00  0.00    +0.000 NA
ATOM      6  C   UNL     1       4.285   4.788  17.431  0.00  0.00    +0.000 A 
ATOM      7  C   UNL     1       3.822   6.011  17.900  0.00  0.00    +0.000 A 
ATOM      8  C   UNL     1       3.085   6.042  19.080  0.00  0.00    +0.000 A 
ATOM      9  C   UNL     1       2.833   4.851  19.767  0.00  0.00    +0.000 A 
ATOM     10  C   UNL     1       2.106   4.832  20.971  0.00  0.00    +0.000 A 
ENDROOT
BRANCH   6  11
ATOM     11  C   UNL     1       5.091   4.721  16.198  0.00  0.00    +0.000 A 
ATOM     12  N   UNL     1       4.779   3.983  15.146  0.00  0.00    +0.000 NA
ATOM     13  C   UNL     1       5.721   4.145  14.146  0.00  0.00    +0.000 A 
ATOM     14  C   UNL     1       5.699   3.520  12.883  0.00  0.00    +0.000 A 
ATOM     15  C   UNL     1       6.720   3.775  11.962  0.00  0.00    +0.000 A 
ATOM     16  C   UNL     1       7.760   4.641  12.287  0.00  0.00    +0.000 A 
ATOM     17  C   UNL     1       7.804   5.274  13.533  0.00  0.00    +0.000 A 
ATOM     18  C   UNL     1       6.771   5.012  14.447  0.00  0.00    +0.000 A 
ATOM     19  S   UNL     1       6.544   5.634  16.033  0.00  0.00    +0.000 S 
ENDBRANCH   6  11
TORSDOF 1
ENDMDL
MODEL 8
REMARK VINA RESULT:      -7.3      4.629      5.941
REMARK  Name = 
REMARK  1 active torsions:
REMARK  status: ('A' for Active; 'I' for Inactive)
REMARK    1  A    between atoms: C_6  and  C_7
REMARK                            x       y       z     vdW  Elec       q    Type
REMARK                         _______ _______ _______ _____ _____    ______ ____
ROOT
ATOM      1  C   UNL     1       5.452   4.330  16.389  0.00  0.00    +0.000 A 
ATOM      2  C   UNL     1       5.420   5.640  15.925  0.00  0.00    +0.000 A 
ATOM      3  C   UNL     1       4.626   6.591  16.574  0.00  0.00    +0.000 A 
ATOM      4  C   UNL     1       3.863   6.265  17.686  0.00  0.00    +0.000 A 
ATOM      5  N   UNL     1       3.126   7.218  18.281  0.00  0.00    +0.000 NA
ATOM      6  C   UNL     1       2.397   6.888  19.378  0.00  0.00    +0.000 A 
ATOM      7  C   UNL     1       2.376   5.600  19.899  0.00  0.00    +0.000 A 
ATOM      8  C   UNL     1       3.133   4.613  19.279  0.00  0.00    +0.000 A 
ATOM      9  C   UNL     1       3.899   4.934  18.155  0.00  0.00    +0.000 A 
ATOM     10  C   UNL     1       4.692   3.974  17.501  0.00  0.00    +0.000 A 
ENDROOT
BRANCH   6  11
ATOM     11  C   UNL     1       1.627   7.967  20.026  0.00  0.00    +0.000 A 
ATOM     12  N   UNL     1       1.165   7.908  21.263  0.00  0.00    +0.000 NA
ATOM     13  C   UNL     1       0.498   9.077  21.585  0.00  0.00    +0.000 A 
ATOM     14  C   UNL     1      -0.109   9.365  22.823  0.00  0.00    +0.000 A 
ATOM     15  C   UNL     1      -0.753  10.592  23.014  0.00  0.00    +0.000 A 
ATOM     16  C   UNL     1      -0.798  11.530  21.987  0.00  0.00    +0.000 A 
ATOM     17  C   UNL     1      -0.201  11.268  20.749  0.00  0.00    +0.000 A 
ATOM     18  C   UNL     1       0.444  10.033  20.572  0.00  0.00    +0.000 A 
ATOM     19  S   UNL     1       1.265   9.429  19.188  0.00  0.00    +0.000 S 
ENDBRANCH   6  11
TORSDOF 1
ENDMDL
MODEL 9
REMARK VINA RESULT:      -7.1      4.858      6.434
REMARK  Name = 
REMARK  1 active torsions:
REMARK  status: ('A' for Active; 'I' for Inactive)
REMARK    1  A    between atoms: C_6  and  C_7
REMARK                            x       y       z     vdW  Elec       q    Type
REMARK                         _______ _______ _______ _____ _____    ______ ____
ROOT
ATOM      1  C   UNL     1       4.330   3.068  17.715  0.00  0.00    +0.000 A 
ATOM      2  C   UNL     1       3.540   2.767  18.818  0.00  0.00    +0.000 A 
ATOM      3  C   UNL     1       2.842   3.785  19.475  0.00  0.00    +0.000 A 
ATOM      4  C   UNL     1       2.908   5.104  19.050  0.00  0.00    +0.000 A 
ATOM      5  N   UNL     1       2.208   6.044  19.708  0.00  0.00    +0.000 NA
ATOM      6  C   UNL     1       2.270   7.327  19.271  0.00  0.00    +0.000 A 
ATOM      7  C   UNL     1       3.039   7.707  18.178  0.00  0.00    +0.000 A 
ATOM      8  C   UNL     1       3.769   6.735  17.501  0.00  0.00    +0.000 A 
ATOM      9  C   UNL     1       3.711   5.406  17.929  0.00  0.00    +0.000 A 
ATOM     10  C   UNL     1       4.419   4.385  17.269  0.00  0.00    +0.000 A 
ENDROOT
BRANCH   6  11
ATOM     11  C   UNL     1       1.463   8.327  19.996  0.00  0.00    +0.000 A 
ATOM     12  N   UNL     1       1.034   8.176  21.237  0.00  0.00    +0.000 NA
ATOM     13  C   UNL     1       0.318   9.289  21.639  0.00  0.00    +0.000 A 
ATOM     14  C   UNL     1      -0.273   9.476  22.905  0.00  0.00    +0.000 A 
ATOM     15  C   UNL     1      -0.972  10.656  23.179  0.00  0.00    +0.000 A 
ATOM     16  C   UNL     1      -1.090  11.646  22.208  0.00  0.00    +0.000 A 
ATOM     17  C   UNL     1      -0.511  11.484  20.945  0.00  0.00    +0.000 A 
ATOM     18  C   UNL     1       0.191  10.296  20.684  0.00  0.00    +0.000 A 
ATOM     19  S   UNL     1       1.007   9.813  19.251  0.00  0.00    +0.000 S 
ENDBRANCH   6  11
TORSDOF 1
ENDMDL
