MODEL 1
REMARK VINA RESULT:      -7.2      0.000      0.000
REMARK  Name = 
REMARK  7 active torsions:
REMARK  status: ('A' for Active; 'I' for Inactive)
REMARK    1  A    between atoms: C_2  and  O_3
REMARK    2  A    between atoms: C_2  and  C_11
REMARK    3  A    between atoms: O_3  and  C_4
REMARK    4  A    between atoms: C_4  and  C_5
REMARK    5  A    between atoms: C_12  and  C_13
REMARK    6  A    between atoms: N_21  and  C_22
REMARK    7  A    between atoms: C_22  and  C_23
REMARK                            x       y       z     vdW  Elec       q    Type
REMARK                         _______ _______ _______ _____ _____    ______ ____
ROOT
ATOM      1  C   UNL     1       1.983   7.324  19.683  0.00  0.00    +0.000 A 
ATOM      2  C   UNL     1       2.848   7.386  18.640  0.00  0.00    +0.000 A 
ATOM      3  C   UNL     1       2.838   8.556  17.769  0.00  0.00    +0.000 A 
ATOM      4  C   UNL     1       1.962   9.548  17.945  0.00  0.00    +0.000 A 
ATOM      5  N   UNL     1       1.089   9.539  19.010  0.00  0.00    +0.000 N 
ATOM      6  C   UNL     1       1.095   8.514  19.960  0.00  0.00    +0.000 A 
ATOM      7  O   UNL     1       0.432   8.579  20.993  0.00  0.00    +0.000 OA
ENDROOT
BRANCH   2   8
ATOM      8  C   UNL     1       3.782   6.282  18.312  0.00  0.00    +0.000 A 
ATOM      9  C   UNL     1       3.668   5.597  17.095  0.00  0.00    +0.000 A 
ATOM     10  C   UNL     1       4.549   4.557  16.790  0.00  0.00    +0.000 A 
ATOM     11  C   UNL     1       5.555   4.205  17.690  0.00  0.00    +0.000 A 
ATOM     12  C   UNL     1       5.692   4.900  18.890  0.00  0.00    +0.000 A 
ATOM     13  C   UNL     1       4.814   5.942  19.198  0.00  0.00    +0.000 A 
ENDBRANCH   2   8
BRANCH   1  15
ATOM     14  O   UNL     1       2.511   5.860  21.538  0.00  0.00    +0.000 OA
ATOM     15  C   UNL     1       1.849   6.103  20.544  0.00  0.00    +0.000 C 
BRANCH  15  16
ATOM     16  O   UNL     1       0.949   5.255  19.980  0.00  0.00    +0.000 OA
BRANCH  16  17
ATOM     17  C   UNL     1       0.937   3.907  20.469  0.00  0.00    +0.000 C 
BRANCH  17  18
ATOM     18  C   UNL     1       1.889   2.992  19.733  0.00  0.00    +0.000 A 
ATOM     19  C   UNL     1       1.650   2.616  18.405  0.00  0.00    +0.000 A 
ATOM     20  C   UNL     1       2.568   1.813  17.718  0.00  0.00    +0.000 A 
ATOM     21  C   UNL     1       3.731   1.379  18.352  0.00  0.00    +0.000 A 
ATOM     22  C   UNL     1       3.984   1.754  19.668  0.00  0.00    +0.000 A 
ATOM     23  C   UNL     1       3.069   2.558  20.354  0.00  0.00    +0.000 A 
ENDBRANCH  17  18
ENDBRANCH  16  17
ENDBRANCH  15  16
ENDBRANCH   1  15
BRANCH   5  24
ATOM     24  C   UNL     1       0.238  10.708  19.244  0.00  0.00    +0.000 C 
BRANCH  24  25
ATOM     25  C   UNL     1      -1.133  10.650  18.599  0.00  0.00    +0.000 A 
ATOM     26  C   UNL     1      -2.170  11.500  19.015  0.00  0.00    +0.000 A 
ATOM     27  C   UNL     1      -3.377  11.549  18.312  0.00  0.00    +0.000 A 
ATOM     28  C   UNL     1      -3.565  10.752  17.185  0.00  0.00    +0.000 A 
ATOM     29  C   UNL     1      -2.554   9.887  16.773  0.00  0.00    +0.000 A 
ATOM     30  C   UNL     1      -1.348   9.833  17.477  0.00  0.00    +0.000 A 
ENDBRANCH  24  25
ENDBRANCH   5  24
TORSDOF 7
ENDMDL
MODEL 2
REMARK VINA RESULT:      -7.2      2.539      8.710
REMARK  Name = 
REMARK  7 active torsions:
REMARK  status: ('A' for Active; 'I' for Inactive)
REMARK    1  A    between atoms: C_2  and  O_3
REMARK    2  A    between atoms: C_2  and  C_11
REMARK    3  A    between atoms: O_3  and  C_4
REMARK    4  A    between atoms: C_4  and  C_5
REMARK    5  A    between atoms: C_12  and  C_13
REMARK    6  A    between atoms: N_21  and  C_22
REMARK    7  A    between atoms: C_22  and  C_23
REMARK                            x       y       z     vdW  Elec       q    Type
REMARK                         _______ _______ _______ _____ _____    ______ ____
ROOT
ATOM      1  C   UNL     1       0.510  10.104  19.767  0.00  0.00    +0.000 A 
ATOM      2  C   UNL     1       0.444  10.173  21.121  0.00  0.00    +0.000 A 
ATOM      3  C   UNL     1       1.099   9.146  21.924  0.00  0.00    +0.000 A 
ATOM      4  C   UNL     1       1.725   8.111  21.356  0.00  0.00    +0.000 A 
ATOM      5  N   UNL     1       1.843   8.022  19.988  0.00  0.00    +0.000 N 
ATOM      6  C   UNL     1       1.340   9.011  19.137  0.00  0.00    +0.000 A 
ATOM      7  O   UNL     1       1.579   9.017  17.931  0.00  0.00    +0.000 OA
ENDROOT
BRANCH   2   8
ATOM      8  C   UNL     1      -0.317  11.229  21.829  0.00  0.00    +0.000 A 
ATOM      9  C   UNL     1      -1.400  10.892  22.651  0.00  0.00    +0.000 A 
ATOM     10  C   UNL     1      -2.115  11.890  23.316  0.00  0.00    +0.000 A 
ATOM     11  C   UNL     1      -1.745  13.228  23.175  0.00  0.00    +0.000 A 
ATOM     12  C   UNL     1      -0.652  13.569  22.382  0.00  0.00    +0.000 A 
ATOM     13  C   UNL     1       0.067  12.573  21.716  0.00  0.00    +0.000 A 
ENDBRANCH   2   8
BRANCH   1  15
ATOM     14  O   UNL     1       0.164  12.128  18.485  0.00  0.00    +0.000 OA
ATOM     15  C   UNL     1      -0.242  11.048  18.878  0.00  0.00    +0.000 C 
BRANCH  15  16
ATOM     16  O   UNL     1      -1.494  10.563  18.666  0.00  0.00    +0.000 OA
BRANCH  16  17
ATOM     17  C   UNL     1      -2.403  11.409  17.950  0.00  0.00    +0.000 C 
BRANCH  17  18
ATOM     18  C   UNL     1      -3.628  11.787  18.749  0.00  0.00    +0.000 A 
ATOM     19  C   UNL     1      -4.907  11.371  18.357  0.00  0.00    +0.000 A 
ATOM     20  C   UNL     1      -6.026  11.682  19.137  0.00  0.00    +0.000 A 
ATOM     21  C   UNL     1      -5.879  12.412  20.315  0.00  0.00    +0.000 A 
ATOM     22  C   UNL     1      -4.612  12.823  20.720  0.00  0.00    +0.000 A 
ATOM     23  C   UNL     1      -3.493  12.510  19.944  0.00  0.00    +0.000 A 
ENDBRANCH  17  18
ENDBRANCH  16  17
ENDBRANCH  15  16
ENDBRANCH   1  15
BRANCH   5  24
ATOM     24  C   UNL     1       2.650   6.944  19.411  0.00  0.00    +0.000 C 
BRANCH  24  25
ATOM     25  C   UNL     1       1.973   5.589  19.350  0.00  0.00    +0.000 A 
ATOM     26  C   UNL     1       1.878   4.876  18.144  0.00  0.00    +0.000 A 
ATOM     27  C   UNL     1       1.395   3.564  18.128  0.00  0.00    +0.000 A 
ATOM     28  C   UNL     1       1.001   2.948  19.314  0.00  0.00    +0.000 A 
ATOM     29  C   UNL     1       1.067   3.650  20.514  0.00  0.00    +0.000 A 
ATOM     30  C   UNL     1       1.545   4.963  20.532  0.00  0.00    +0.000 A 
ENDBRANCH  24  25
ENDBRANCH   5  24
TORSDOF 7
ENDMDL
MODEL 3
REMARK VINA RESULT:      -7.2      0.135      1.252
REMARK  Name = 
REMARK  7 active torsions:
REMARK  status: ('A' for Active; 'I' for Inactive)
REMARK    1  A    between atoms: C_2  and  O_3
REMARK    2  A    between atoms: C_2  and  C_11
REMARK    3  A    between atoms: O_3  and  C_4
REMARK    4  A    between atoms: C_4  and  C_5
REMARK    5  A    between atoms: C_12  and  C_13
REMARK    6  A    between atoms: N_21  and  C_22
REMARK    7  A    between atoms: C_22  and  C_23
REMARK                            x       y       z     vdW  Elec       q    Type
REMARK                         _______ _______ _______ _____ _____    ______ ____
ROOT
ATOM      1  C   UNL     1       1.953   7.237  19.799  0.00  0.00    +0.000 A 
ATOM      2  C   UNL     1       2.803   7.346  18.747  0.00  0.00    +0.000 A 
ATOM      3  C   UNL     1       2.762   8.542  17.913  0.00  0.00    +0.000 A 
ATOM      4  C   UNL     1       1.873   9.514  18.133  0.00  0.00    +0.000 A 
ATOM      5  N   UNL     1       1.016   9.458  19.209  0.00  0.00    +0.000 N 
ATOM      6  C   UNL     1       1.052   8.403  20.126  0.00  0.00    +0.000 A 
ATOM      7  O   UNL     1       0.402   8.425  21.170  0.00  0.00    +0.000 OA
ENDROOT
BRANCH   2   8
ATOM      8  C   UNL     1       3.748   6.268  18.371  0.00  0.00    +0.000 A 
ATOM      9  C   UNL     1       3.624   5.615  17.138  0.00  0.00    +0.000 A 
ATOM     10  C   UNL     1       4.517   4.600  16.788  0.00  0.00    +0.000 A 
ATOM     11  C   UNL     1       5.544   4.240  17.659  0.00  0.00    +0.000 A 
ATOM     12  C   UNL     1       5.691   4.903  18.876  0.00  0.00    +0.000 A 
ATOM     13  C   UNL     1       4.802   5.920  19.229  0.00  0.00    +0.000 A 
ENDBRANCH   2   8
BRANCH   1  15
ATOM     14  O   UNL     1       2.582   5.689  21.551  0.00  0.00    +0.000 OA
ATOM     15  C   UNL     1       1.851   5.988  20.623  0.00  0.00    +0.000 C 
BRANCH  15  16
ATOM     16  O   UNL     1       0.885   5.187  20.103  0.00  0.00    +0.000 OA
BRANCH  16  17
ATOM     17  C   UNL     1       0.919   3.803  20.479  0.00  0.00    +0.000 C 
BRANCH  17  18
ATOM     18  C   UNL     1       1.920   2.992  19.689  0.00  0.00    +0.000 A 
ATOM     19  C   UNL     1       3.090   2.504  20.285  0.00  0.00    +0.000 A 
ATOM     20  C   UNL     1       3.981   1.708  19.557  0.00  0.00    +0.000 A 
ATOM     21  C   UNL     1       3.711   1.392  18.226  0.00  0.00    +0.000 A 
ATOM     22  C   UNL     1       2.546   1.862  17.625  0.00  0.00    +0.000 A 
ATOM     23  C   UNL     1       1.654   2.655  18.353  0.00  0.00    +0.000 A 
ENDBRANCH  17  18
ENDBRANCH  16  17
ENDBRANCH  15  16
ENDBRANCH   1  15
BRANCH   5  24
ATOM     24  C   UNL     1       0.150  10.605  19.492  0.00  0.00    +0.000 C 
BRANCH  24  25
ATOM     25  C   UNL     1      -1.096  10.703  18.634  0.00  0.00    +0.000 A 
ATOM     26  C   UNL     1      -1.307   9.829  17.555  0.00  0.00    +0.000 A 
ATOM     27  C   UNL     1      -2.526   9.823  16.871  0.00  0.00    +0.000 A 
ATOM     28  C   UNL     1      -3.549  10.687  17.254  0.00  0.00    +0.000 A 
ATOM     29  C   UNL     1      -3.347  11.576  18.307  0.00  0.00    +0.000 A 
ATOM     30  C   UNL     1      -2.127  11.587  18.989  0.00  0.00    +0.000 A 
ENDBRANCH  24  25
ENDBRANCH   5  24
TORSDOF 7
ENDMDL
MODEL 4
REMARK VINA RESULT:      -7.0      2.530      8.505
REMARK  Name = 
REMARK  7 active torsions:
REMARK  status: ('A' for Active; 'I' for Inactive)
REMARK    1  A    between atoms: C_2  and  O_3
REMARK    2  A    between atoms: C_2  and  C_11
REMARK    3  A    between atoms: O_3  and  C_4
REMARK    4  A    between atoms: C_4  and  C_5
REMARK    5  A    between atoms: C_12  and  C_13
REMARK    6  A    between atoms: N_21  and  C_22
REMARK    7  A    between atoms: C_22  and  C_23
REMARK                            x       y       z     vdW  Elec       q    Type
REMARK                         _______ _______ _______ _____ _____    ______ ____
ROOT
ATOM      1  C   UNL     1       1.204   9.198  20.225  0.00  0.00    +0.000 A 
ATOM      2  C   UNL     1       1.093   9.992  19.130  0.00  0.00    +0.000 A 
ATOM      3  C   UNL     1       1.549   9.496  17.836  0.00  0.00    +0.000 A 
ATOM      4  C   UNL     1       2.118   8.295  17.711  0.00  0.00    +0.000 A 
ATOM      5  N   UNL     1       2.220   7.446  18.791  0.00  0.00    +0.000 N 
ATOM      6  C   UNL     1       1.716   7.789  20.049  0.00  0.00    +0.000 A 
ATOM      7  O   UNL     1       1.662   6.978  20.972  0.00  0.00    +0.000 OA
ENDROOT
BRANCH   2   8
ATOM      8  C   UNL     1       0.569  11.377  19.199  0.00  0.00    +0.000 A 
ATOM      9  C   UNL     1      -0.803  11.623  19.062  0.00  0.00    +0.000 A 
ATOM     10  C   UNL     1      -1.292  12.930  19.127  0.00  0.00    +0.000 A 
ATOM     11  C   UNL     1      -0.417  13.995  19.343  0.00  0.00    +0.000 A 
ATOM     12  C   UNL     1       0.946  13.755  19.508  0.00  0.00    +0.000 A 
ATOM     13  C   UNL     1       1.438  12.449  19.445  0.00  0.00    +0.000 A 
ENDBRANCH   2   8
BRANCH   1  15
ATOM     14  O   UNL     1       1.677   9.860  22.505  0.00  0.00    +0.000 OA
ATOM     15  C   UNL     1       0.875   9.684  21.605  0.00  0.00    +0.000 C 
BRANCH  15  16
ATOM     16  O   UNL     1      -0.474   9.793  21.730  0.00  0.00    +0.000 OA
BRANCH  16  17
ATOM     17  C   UNL     1      -0.966  10.353  22.955  0.00  0.00    +0.000 C 
BRANCH  17  18
ATOM     18  C   UNL     1      -1.461  11.773  22.809  0.00  0.00    +0.000 A 
ATOM     19  C   UNL     1      -2.831  12.060  22.741  0.00  0.00    +0.000 A 
ATOM     20  C   UNL     1      -3.277  13.384  22.661  0.00  0.00    +0.000 A 
ATOM     21  C   UNL     1      -2.360  14.433  22.646  0.00  0.00    +0.000 A 
ATOM     22  C   UNL     1      -0.996  14.162  22.722  0.00  0.00    +0.000 A 
ATOM     23  C   UNL     1      -0.550  12.840  22.806  0.00  0.00    +0.000 A 
ENDBRANCH  17  18
ENDBRANCH  16  17
ENDBRANCH  15  16
ENDBRANCH   1  15
BRANCH   5  24
ATOM     24  C   UNL     1       2.727   6.087  18.584  0.00  0.00    +0.000 C 
BRANCH  24  25
ATOM     25  C   UNL     1       4.221   5.984  18.341  0.00  0.00    +0.000 A 
ATOM     26  C   UNL     1       4.827   6.631  17.252  0.00  0.00    +0.000 A 
ATOM     27  C   UNL     1       6.219   6.661  17.126  0.00  0.00    +0.000 A 
ATOM     28  C   UNL     1       7.023   6.048  18.084  0.00  0.00    +0.000 A 
ATOM     29  C   UNL     1       6.436   5.384  19.158  0.00  0.00    +0.000 A 
ATOM     30  C   UNL     1       5.044   5.348  19.283  0.00  0.00    +0.000 A 
ENDBRANCH  24  25
ENDBRANCH   5  24
TORSDOF 7
ENDMDL
MODEL 5
REMARK VINA RESULT:      -7.0      2.457      8.374
REMARK  Name = 
REMARK  7 active torsions:
REMARK  status: ('A' for Active; 'I' for Inactive)
REMARK    1  A    between atoms: C_2  and  O_3
REMARK    2  A    between atoms: C_2  and  C_11
REMARK    3  A    between atoms: O_3  and  C_4
REMARK    4  A    between atoms: C_4  and  C_5
REMARK    5  A    between atoms: C_12  and  C_13
REMARK    6  A    between atoms: N_21  and  C_22
REMARK    7  A    between atoms: C_22  and  C_23
REMARK                            x       y       z     vdW  Elec       q    Type
REMARK                         _______ _______ _______ _____ _____    ______ ____
ROOT
ATOM      1  C   UNL     1       1.325   8.903  20.197  0.00  0.00    +0.000 A 
ATOM      2  C   UNL     1       1.231   9.583  19.027  0.00  0.00    +0.000 A 
ATOM      3  C   UNL     1       1.691   8.954  17.794  0.00  0.00    +0.000 A 
ATOM      4  C   UNL     1       2.248   7.740  17.796  0.00  0.00    +0.000 A 
ATOM      5  N   UNL     1       2.332   7.004  18.957  0.00  0.00    +0.000 N 
ATOM      6  C   UNL     1       1.822   7.478  20.170  0.00  0.00    +0.000 A 
ATOM      7  O   UNL     1       1.751   6.766  21.169  0.00  0.00    +0.000 OA
ENDROOT
BRANCH   2   8
ATOM      8  C   UNL     1       0.723  10.973  18.950  0.00  0.00    +0.000 A 
ATOM      9  C   UNL     1       1.598  12.057  19.098  0.00  0.00    +0.000 A 
ATOM     10  C   UNL     1       1.115  13.365  19.026  0.00  0.00    +0.000 A 
ATOM     11  C   UNL     1      -0.240  13.599  18.794  0.00  0.00    +0.000 A 
ATOM     12  C   UNL     1      -1.113  12.527  18.618  0.00  0.00    +0.000 A 
ATOM     13  C   UNL     1      -0.633  11.216  18.688  0.00  0.00    +0.000 A 
ENDBRANCH   2   8
BRANCH   1  15
ATOM     14  O   UNL     1       1.793   9.831  22.384  0.00  0.00    +0.000 OA
ATOM     15  C   UNL     1       0.990   9.529  21.518  0.00  0.00    +0.000 C 
BRANCH  15  16
ATOM     16  O   UNL     1      -0.361   9.608  21.646  0.00  0.00    +0.000 OA
BRANCH  16  17
ATOM     17  C   UNL     1      -0.864  10.101  22.895  0.00  0.00    +0.000 C 
BRANCH  17  18
ATOM     18  C   UNL     1      -1.368  11.524  22.819  0.00  0.00    +0.000 A 
ATOM     19  C   UNL     1      -2.642  11.868  23.291  0.00  0.00    +0.000 A 
ATOM     20  C   UNL     1      -3.075  13.198  23.264  0.00  0.00    +0.000 A 
ATOM     21  C   UNL     1      -2.240  14.196  22.765  0.00  0.00    +0.000 A 
ATOM     22  C   UNL     1      -0.969  13.869  22.302  0.00  0.00    +0.000 A 
ATOM     23  C   UNL     1      -0.534  12.541  22.331  0.00  0.00    +0.000 A 
ENDBRANCH  17  18
ENDBRANCH  16  17
ENDBRANCH  15  16
ENDBRANCH   1  15
BRANCH   5  24
ATOM     24  C   UNL     1       2.826   5.626  18.893  0.00  0.00    +0.000 C 
BRANCH  24  25
ATOM     25  C   UNL     1       3.999   5.402  17.959  0.00  0.00    +0.000 A 
ATOM     26  C   UNL     1       5.199   6.112  18.114  0.00  0.00    +0.000 A 
ATOM     27  C   UNL     1       6.324   5.786  17.351  0.00  0.00    +0.000 A 
ATOM     28  C   UNL     1       6.265   4.748  16.424  0.00  0.00    +0.000 A 
ATOM     29  C   UNL     1       5.075   4.049  16.242  0.00  0.00    +0.000 A 
ATOM     30  C   UNL     1       3.948   4.376  17.001  0.00  0.00    +0.000 A 
ENDBRANCH  24  25
ENDBRANCH   5  24
TORSDOF 7
ENDMDL
MODEL 6
REMARK VINA RESULT:      -7.0      2.516      8.560
REMARK  Name = 
REMARK  7 active torsions:
REMARK  status: ('A' for Active; 'I' for Inactive)
REMARK    1  A    between atoms: C_2  and  O_3
REMARK    2  A    between atoms: C_2  and  C_11
REMARK    3  A    between atoms: O_3  and  C_4
REMARK    4  A    between atoms: C_4  and  C_5
REMARK    5  A    between atoms: C_12  and  C_13
REMARK    6  A    between atoms: N_21  and  C_22
REMARK    7  A    between atoms: C_22  and  C_23
REMARK                            x       y       z     vdW  Elec       q    Type
REMARK                         _______ _______ _______ _____ _____    ______ ____
ROOT
ATOM      1  C   UNL     1       1.197   9.199  20.232  0.00  0.00    +0.000 A 
ATOM      2  C   UNL     1       1.065   9.981  19.131  0.00  0.00    +0.000 A 
ATOM      3  C   UNL     1       1.506   9.476  17.836  0.00  0.00    +0.000 A 
ATOM      4  C   UNL     1       2.081   8.277  17.714  0.00  0.00    +0.000 A 
ATOM      5  N   UNL     1       2.204   7.439  18.800  0.00  0.00    +0.000 N 
ATOM      6  C   UNL     1       1.716   7.791  20.062  0.00  0.00    +0.000 A 
ATOM      7  O   UNL     1       1.680   6.989  20.994  0.00  0.00    +0.000 OA
ENDROOT
BRANCH   2   8
ATOM      8  C   UNL     1       0.533  11.363  19.195  0.00  0.00    +0.000 A 
ATOM      9  C   UNL     1       1.399  12.446  19.394  0.00  0.00    +0.000 A 
ATOM     10  C   UNL     1       0.894  13.747  19.454  0.00  0.00    +0.000 A 
ATOM     11  C   UNL     1      -0.474  13.974  19.302  0.00  0.00    +0.000 A 
ATOM     12  C   UNL     1      -1.338  12.905  19.076  0.00  0.00    +0.000 A 
ATOM     13  C   UNL     1      -0.836  11.602  19.014  0.00  0.00    +0.000 A 
ENDBRANCH   2   8
BRANCH   1  15
ATOM     14  O   UNL     1       1.693   9.848  22.511  0.00  0.00    +0.000 OA
ATOM     15  C   UNL     1       0.885   9.695  21.612  0.00  0.00    +0.000 C 
BRANCH  15  16
ATOM     16  O   UNL     1      -0.460   9.843  21.739  0.00  0.00    +0.000 OA
BRANCH  16  17
ATOM     17  C   UNL     1      -0.937  10.382  22.981  0.00  0.00    +0.000 C 
BRANCH  17  18
ATOM     18  C   UNL     1      -1.450  11.798  22.863  0.00  0.00    +0.000 A 
ATOM     19  C   UNL     1      -0.569  12.886  22.800  0.00  0.00    +0.000 A 
ATOM     20  C   UNL     1      -1.056  14.187  22.636  0.00  0.00    +0.000 A 
ATOM     21  C   UNL     1      -2.428  14.414  22.535  0.00  0.00    +0.000 A 
ATOM     22  C   UNL     1      -3.313  13.340  22.586  0.00  0.00    +0.000 A 
ATOM     23  C   UNL     1      -2.827  12.040  22.746  0.00  0.00    +0.000 A 
ENDBRANCH  17  18
ENDBRANCH  16  17
ENDBRANCH  15  16
ENDBRANCH   1  15
BRANCH   5  24
ATOM     24  C   UNL     1       2.718   6.082  18.599  0.00  0.00    +0.000 C 
BRANCH  24  25
ATOM     25  C   UNL     1       4.212   5.984  18.359  0.00  0.00    +0.000 A 
ATOM     26  C   UNL     1       4.818   6.637  17.274  0.00  0.00    +0.000 A 
ATOM     27  C   UNL     1       6.210   6.672  17.151  0.00  0.00    +0.000 A 
ATOM     28  C   UNL     1       7.014   6.057  18.108  0.00  0.00    +0.000 A 
ATOM     29  C   UNL     1       6.426   5.386  19.178  0.00  0.00    +0.000 A 
ATOM     30  C   UNL     1       5.035   5.346  19.300  0.00  0.00    +0.000 A 
ENDBRANCH  24  25
ENDBRANCH   5  24
TORSDOF 7
ENDMDL
MODEL 7
REMARK VINA RESULT:      -6.9      2.415      8.580
REMARK  Name = 
REMARK  7 active torsions:
REMARK  status: ('A' for Active; 'I' for Inactive)
REMARK    1  A    between atoms: C_2  and  O_3
REMARK    2  A    between atoms: C_2  and  C_11
REMARK    3  A    between atoms: O_3  and  C_4
REMARK    4  A    between atoms: C_4  and  C_5
REMARK    5  A    between atoms: C_12  and  C_13
REMARK    6  A    between atoms: N_21  and  C_22
REMARK    7  A    between atoms: C_22  and  C_23
REMARK                            x       y       z     vdW  Elec       q    Type
REMARK                         _______ _______ _______ _____ _____    ______ ____
ROOT
ATOM      1  C   UNL     1       0.939  10.045  19.645  0.00  0.00    +0.000 A 
ATOM      2  C   UNL     1       0.644  10.017  20.969  0.00  0.00    +0.000 A 
ATOM      3  C   UNL     1       1.024   8.854  21.763  0.00  0.00    +0.000 A 
ATOM      4  C   UNL     1       1.615   7.793  21.208  0.00  0.00    +0.000 A 
ATOM      5  N   UNL     1       1.962   7.796  19.875  0.00  0.00    +0.000 N 
ATOM      6  C   UNL     1       1.735   8.905  19.055  0.00  0.00    +0.000 A 
ATOM      7  O   UNL     1       2.182   8.973  17.912  0.00  0.00    +0.000 OA
ENDROOT
BRANCH   2   8
ATOM      8  C   UNL     1      -0.103  11.106  21.642  0.00  0.00    +0.000 A 
ATOM      9  C   UNL     1      -1.198  10.811  22.464  0.00  0.00    +0.000 A 
ATOM     10  C   UNL     1      -1.899  11.840  23.097  0.00  0.00    +0.000 A 
ATOM     11  C   UNL     1      -1.503  13.166  22.923  0.00  0.00    +0.000 A 
ATOM     12  C   UNL     1      -0.398  13.466  22.129  0.00  0.00    +0.000 A 
ATOM     13  C   UNL     1       0.307  12.439  21.497  0.00  0.00    +0.000 A 
ENDBRANCH   2   8
BRANCH   1  15
ATOM     14  O   UNL     1       1.136  12.103  18.385  0.00  0.00    +0.000 OA
ATOM     15  C   UNL     1       0.471  11.146  18.741  0.00  0.00    +0.000 C 
BRANCH  15  16
ATOM     16  O   UNL     1      -0.849  10.970  18.468  0.00  0.00    +0.000 OA
BRANCH  16  17
ATOM     17  C   UNL     1      -1.653  12.153  18.371  0.00  0.00    +0.000 C 
BRANCH  17  18
ATOM     18  C   UNL     1      -3.100  11.927  18.742  0.00  0.00    +0.000 A 
ATOM     19  C   UNL     1      -3.661  12.533  19.875  0.00  0.00    +0.000 A 
ATOM     20  C   UNL     1      -5.016  12.359  20.177  0.00  0.00    +0.000 A 
ATOM     21  C   UNL     1      -5.823  11.578  19.351  0.00  0.00    +0.000 A 
ATOM     22  C   UNL     1      -5.280  10.979  18.218  0.00  0.00    +0.000 A 
ATOM     23  C   UNL     1      -3.927  11.155  17.913  0.00  0.00    +0.000 A 
ENDBRANCH  17  18
ENDBRANCH  16  17
ENDBRANCH  15  16
ENDBRANCH   1  15
BRANCH   5  24
ATOM     24  C   UNL     1       2.728   6.670  19.336  0.00  0.00    +0.000 C 
BRANCH  24  25
ATOM     25  C   UNL     1       1.994   5.343  19.306  0.00  0.00    +0.000 A 
ATOM     26  C   UNL     1       1.853   4.616  18.113  0.00  0.00    +0.000 A 
ATOM     27  C   UNL     1       1.316   3.326  18.124  0.00  0.00    +0.000 A 
ATOM     28  C   UNL     1       0.914   2.744  19.324  0.00  0.00    +0.000 A 
ATOM     29  C   UNL     1       1.027   3.461  20.512  0.00  0.00    +0.000 A 
ATOM     30  C   UNL     1       1.559   4.753  20.503  0.00  0.00    +0.000 A 
ENDBRANCH  24  25
ENDBRANCH   5  24
TORSDOF 7
ENDMDL
MODEL 8
REMARK VINA RESULT:      -6.9      2.385      8.189
REMARK  Name = 
REMARK  7 active torsions:
REMARK  status: ('A' for Active; 'I' for Inactive)
REMARK    1  A    between atoms: C_2  and  O_3
REMARK    2  A    between atoms: C_2  and  C_11
REMARK    3  A    between atoms: O_3  and  C_4
REMARK    4  A    between atoms: C_4  and  C_5
REMARK    5  A    between atoms: C_12  and  C_13
REMARK    6  A    between atoms: N_21  and  C_22
REMARK    7  A    between atoms: C_22  and  C_23
REMARK                            x       y       z     vdW  Elec       q    Type
REMARK                         _______ _______ _______ _____ _____    ______ ____
ROOT
ATOM      1  C   UNL     1       1.341   8.900  20.299  0.00  0.00    +0.000 A 
ATOM      2  C   UNL     1       1.134   9.463  19.083  0.00  0.00    +0.000 A 
ATOM      3  C   UNL     1       1.661   8.807  17.890  0.00  0.00    +0.000 A 
ATOM      4  C   UNL     1       2.384   7.688  17.972  0.00  0.00    +0.000 A 
ATOM      5  N   UNL     1       2.589   7.067  19.184  0.00  0.00    +0.000 N 
ATOM      6  C   UNL     1       2.036   7.560  20.370  0.00  0.00    +0.000 A 
ATOM      7  O   UNL     1       2.082   6.928  21.423  0.00  0.00    +0.000 OA
ENDROOT
BRANCH   2   8
ATOM      8  C   UNL     1       0.433  10.757  18.912  0.00  0.00    +0.000 A 
ATOM      9  C   UNL     1       1.151  11.960  18.928  0.00  0.00    +0.000 A 
ATOM     10  C   UNL     1       0.486  13.177  18.768  0.00  0.00    +0.000 A 
ATOM     11  C   UNL     1      -0.896  13.200  18.577  0.00  0.00    +0.000 A 
ATOM     12  C   UNL     1      -1.613  12.007  18.533  0.00  0.00    +0.000 A 
ATOM     13  C   UNL     1      -0.951  10.787  18.691  0.00  0.00    +0.000 A 
ENDBRANCH   2   8
BRANCH   1  15
ATOM     14  O   UNL     1       1.704   9.958  22.446  0.00  0.00    +0.000 OA
ATOM     15  C   UNL     1       0.941   9.577  21.576  0.00  0.00    +0.000 C 
BRANCH  15  16
ATOM     16  O   UNL     1      -0.415   9.601  21.663  0.00  0.00    +0.000 OA
BRANCH  16  17
ATOM     17  C   UNL     1      -0.976  10.111  22.881  0.00  0.00    +0.000 C 
BRANCH  17  18
ATOM     18  C   UNL     1      -1.440  11.545  22.774  0.00  0.00    +0.000 A 
ATOM     19  C   UNL     1      -2.698  11.937  23.250  0.00  0.00    +0.000 A 
ATOM     20  C   UNL     1      -3.093  13.278  23.194  0.00  0.00    +0.000 A 
ATOM     21  C   UNL     1      -2.236  14.239  22.661  0.00  0.00    +0.000 A 
ATOM     22  C   UNL     1      -0.980  13.864  22.193  0.00  0.00    +0.000 A 
ATOM     23  C   UNL     1      -0.583  12.525  22.252  0.00  0.00    +0.000 A 
ENDBRANCH  17  18
ENDBRANCH  16  17
ENDBRANCH  15  16
ENDBRANCH   1  15
BRANCH   5  24
ATOM     24  C   UNL     1       3.272   5.771  19.215  0.00  0.00    +0.000 C 
BRANCH  24  25
ATOM     25  C   UNL     1       2.387   4.566  18.964  0.00  0.00    +0.000 A 
ATOM     26  C   UNL     1       2.624   3.702  17.884  0.00  0.00    +0.000 A 
ATOM     27  C   UNL     1       1.903   2.511  17.753  0.00  0.00    +0.000 A 
ATOM     28  C   UNL     1       0.938   2.168  18.697  0.00  0.00    +0.000 A 
ATOM     29  C   UNL     1       0.676   3.027  19.762  0.00  0.00    +0.000 A 
ATOM     30  C   UNL     1       1.392   4.220  19.892  0.00  0.00    +0.000 A 
ENDBRANCH  24  25
ENDBRANCH   5  24
TORSDOF 7
ENDMDL
MODEL 9
REMARK VINA RESULT:      -6.9      2.546      8.579
REMARK  Name = 
REMARK  7 active torsions:
REMARK  status: ('A' for Active; 'I' for Inactive)
REMARK    1  A    between atoms: C_2  and  O_3
REMARK    2  A    between atoms: C_2  and  C_11
REMARK    3  A    between atoms: O_3  and  C_4
REMARK    4  A    between atoms: C_4  and  C_5
REMARK    5  A    between atoms: C_12  and  C_13
REMARK    6  A    between atoms: N_21  and  C_22
REMARK    7  A    between atoms: C_22  and  C_23
REMARK                            x       y       z     vdW  Elec       q    Type
REMARK                         _______ _______ _______ _____ _____    ______ ____
ROOT
ATOM      1  C   UNL     1       1.235   9.372  20.274  0.00  0.00    +0.000 A 
ATOM      2  C   UNL     1       1.282  10.254  19.245  0.00  0.00    +0.000 A 
ATOM      3  C   UNL     1       1.771   9.813  17.944  0.00  0.00    +0.000 A 
ATOM      4  C   UNL     1       2.221   8.570  17.753  0.00  0.00    +0.000 A 
ATOM      5  N   UNL     1       2.161   7.635  18.762  0.00  0.00    +0.000 N 
ATOM      6  C   UNL     1       1.610   7.933  20.013  0.00  0.00    +0.000 A 
ATOM      7  O   UNL     1       1.409   7.065  20.860  0.00  0.00    +0.000 OA
ENDROOT
BRANCH   2   8
ATOM      8  C   UNL     1       0.900  11.679  19.398  0.00  0.00    +0.000 A 
ATOM      9  C   UNL     1      -0.198  12.197  18.699  0.00  0.00    +0.000 A 
ATOM     10  C   UNL     1      -0.553  13.539  18.845  0.00  0.00    +0.000 A 
ATOM     11  C   UNL     1       0.175  14.367  19.699  0.00  0.00    +0.000 A 
ATOM     12  C   UNL     1       1.252  13.853  20.418  0.00  0.00    +0.000 A 
ATOM     13  C   UNL     1       1.609  12.510  20.276  0.00  0.00    +0.000 A 
ENDBRANCH   2   8
BRANCH   1  15
ATOM     14  O   UNL     1       1.611   9.782  22.631  0.00  0.00    +0.000 OA
ATOM     15  C   UNL     1       0.864   9.783  21.668  0.00  0.00    +0.000 C 
BRANCH  15  16
ATOM     16  O   UNL     1      -0.467  10.054  21.714  0.00  0.00    +0.000 OA
BRANCH  16  17
ATOM     17  C   UNL     1      -0.949  10.728  22.885  0.00  0.00    +0.000 C 
BRANCH  17  18
ATOM     18  C   UNL     1      -1.583  12.067  22.588  0.00  0.00    +0.000 A 
ATOM     19  C   UNL     1      -1.128  13.239  23.208  0.00  0.00    +0.000 A 
ATOM     20  C   UNL     1      -1.688  14.479  22.882  0.00  0.00    +0.000 A 
ATOM     21  C   UNL     1      -2.707  14.561  21.935  0.00  0.00    +0.000 A 
ATOM     22  C   UNL     1      -3.161  13.405  21.305  0.00  0.00    +0.000 A 
ATOM     23  C   UNL     1      -2.600  12.166  21.627  0.00  0.00    +0.000 A 
ENDBRANCH  17  18
ENDBRANCH  16  17
ENDBRANCH  15  16
ENDBRANCH   1  15
BRANCH   5  24
ATOM     24  C   UNL     1       2.538   6.249  18.474  0.00  0.00    +0.000 C 
BRANCH  24  25
ATOM     25  C   UNL     1       4.021   6.014  18.259  0.00  0.00    +0.000 A 
ATOM     26  C   UNL     1       4.846   5.568  19.303  0.00  0.00    +0.000 A 
ATOM     27  C   UNL     1       6.173   5.204  19.057  0.00  0.00    +0.000 A 
ATOM     28  C   UNL     1       6.693   5.279  17.766  0.00  0.00    +0.000 A 
ATOM     29  C   UNL     1       5.893   5.741  16.724  0.00  0.00    +0.000 A 
ATOM     30  C   UNL     1       4.568   6.110  16.969  0.00  0.00    +0.000 A 
ENDBRANCH  24  25
ENDBRANCH   5  24
TORSDOF 7
ENDMDL
