MODEL 1
REMARK VINA RESULT:      -8.4      0.000      0.000
REMARK  Name = 
REMARK  7 active torsions:
REMARK  status: ('A' for Active; 'I' for Inactive)
REMARK    1  A    between atoms: C_1  and  C_2
REMARK    2  A    between atoms: C_3  and  N_4
REMARK    3  A    between atoms: C_5  and  C_7
REMARK    4  A    between atoms: N_11  and  C_12
REMARK    5  A    between atoms: C_12  and  C_13
REMARK    6  A    between atoms: N_20  and  C_21
REMARK    7  A    between atoms: C_21  and  C_22
REMARK                            x       y       z     vdW  Elec       q    Type
REMARK                         _______ _______ _______ _____ _____    ______ ____
ROOT
ATOM      1  N   UNL     1       8.800   8.397  18.724  0.00  0.00    +0.000 N 
ATOM      2  C   UNL     1       8.721   9.771  18.569  0.00  0.00    +0.000 C 
ATOM      3  O   UNL     1       7.988  10.370  17.788  0.00  0.00    +0.000 OA
ATOM      4  H   UNL     1       9.459   8.003  19.375  0.00  0.00    +0.000 HD
ENDROOT
BRANCH   1   7
ATOM      5  C   UNL     1       8.030   5.480  19.733  0.00  0.00    +0.000 C 
ATOM      6  C   UNL     1       7.611   6.256  18.545  0.00  0.00    +0.000 A 
ATOM      7  C   UNL     1       7.952   7.514  18.085  0.00  0.00    +0.000 A 
ATOM      8  N   UNL     1       7.326   7.758  16.903  0.00  0.00    +0.000 NA
ATOM      9  N   UNL     1       6.578   6.709  16.605  0.00  0.00    +0.000 NA
ATOM     10  N   UNL     1       6.702   5.820  17.609  0.00  0.00    +0.000 N 
BRANCH  10  11
ATOM     11  C   UNL     1       5.908   4.600  17.566  0.00  0.00    +0.000 C 
BRANCH  11  12
ATOM     12  C   UNL     1       4.529   4.814  18.144  0.00  0.00    +0.000 A 
ATOM     13  C   UNL     1       4.364   5.226  19.480  0.00  0.00    +0.000 A 
ATOM     14  C   UNL     1       3.091   5.354  20.040  0.00  0.00    +0.000 A 
ATOM     15  C   UNL     1       1.963   5.094  19.267  0.00  0.00    +0.000 A 
ATOM     16  C   UNL     1       2.120   4.735  17.934  0.00  0.00    +0.000 A 
ATOM     17  F   UNL     1       1.035   4.502  17.183  0.00  0.00    +0.000 F 
ATOM     18  C   UNL     1       3.384   4.598  17.365  0.00  0.00    +0.000 A 
ENDBRANCH  11  12
ENDBRANCH  10  11
ENDBRANCH   1   7
BRANCH   2  19
ATOM     19  C   UNL     1       9.650  10.524  19.520  0.00  0.00    +0.000 C 
ATOM     20  C   UNL     1      10.757  11.289  18.789  0.00  0.00    +0.000 C 
ATOM     21  C   UNL     1      11.631  12.024  19.802  0.00  0.00    +0.000 C 
ATOM     22  C   UNL     1      10.804  12.911  20.737  0.00  0.00    +0.000 C 
ATOM     23  N   UNL     1       9.735  12.144  21.394  0.00  0.00    +0.000 NA
ATOM     24  C   UNL     1       8.852  11.503  20.396  0.00  0.00    +0.000 C 
BRANCH  23  25
ATOM     25  C   UNL     1       8.924  12.998  22.310  0.00  0.00    +0.000 C 
BRANCH  25  26
ATOM     26  C   UNL     1       7.961  12.322  23.315  0.00  0.00    +0.000 C 
ATOM     27  F   UNL     1       7.901  12.952  24.509  0.00  0.00    +0.000 F 
ATOM     28  F   UNL     1       6.702  12.283  22.815  0.00  0.00    +0.000 F 
ATOM     29  F   UNL     1       8.335  11.042  23.556  0.00  0.00    +0.000 F 
ENDBRANCH  25  26
ENDBRANCH  23  25
ENDBRANCH   2  19
TORSDOF 6
ENDMDL
MODEL 2
REMARK VINA RESULT:      -8.4      6.029      8.932
REMARK  Name = 
REMARK  7 active torsions:
REMARK  status: ('A' for Active; 'I' for Inactive)
REMARK    1  A    between atoms: C_1  and  C_2
REMARK    2  A    between atoms: C_3  and  N_4
REMARK    3  A    between atoms: C_5  and  C_7
REMARK    4  A    between atoms: N_11  and  C_12
REMARK    5  A    between atoms: C_12  and  C_13
REMARK    6  A    between atoms: N_20  and  C_21
REMARK    7  A    between atoms: C_21  and  C_22
REMARK                            x       y       z     vdW  Elec       q    Type
REMARK                         _______ _______ _______ _____ _____    ______ ____
ROOT
ATOM      1  N   UNL     1       2.335   7.348  20.247  0.00  0.00    +0.000 N 
ATOM      2  C   UNL     1       1.829   6.069  20.417  0.00  0.00    +0.000 C 
ATOM      3  O   UNL     1       0.661   5.781  20.664  0.00  0.00    +0.000 OA
ATOM      4  H   UNL     1       3.318   7.478  20.076  0.00  0.00    +0.000 HD
ENDROOT
BRANCH   1   7
ATOM      5  C   UNL     1       2.104   9.402  17.830  0.00  0.00    +0.000 C 
ATOM      6  C   UNL     1       1.436   9.351  19.149  0.00  0.00    +0.000 A 
ATOM      7  C   UNL     1       1.542   8.477  20.215  0.00  0.00    +0.000 A 
ATOM      8  N   UNL     1       0.744   8.894  21.234  0.00  0.00    +0.000 NA
ATOM      9  N   UNL     1       0.114   9.990  20.847  0.00  0.00    +0.000 NA
ATOM     10  N   UNL     1       0.484  10.247  19.578  0.00  0.00    +0.000 N 
BRANCH  10  11
ATOM     11  C   UNL     1      -0.135  11.365  18.881  0.00  0.00    +0.000 C 
BRANCH  11  12
ATOM     12  C   UNL     1      -1.543  11.036  18.441  0.00  0.00    +0.000 A 
ATOM     13  C   UNL     1      -1.792   9.964  17.564  0.00  0.00    +0.000 A 
ATOM     14  C   UNL     1      -3.082   9.702  17.098  0.00  0.00    +0.000 A 
ATOM     15  C   UNL     1      -4.146  10.492  17.520  0.00  0.00    +0.000 A 
ATOM     16  C   UNL     1      -3.914  11.522  18.424  0.00  0.00    +0.000 A 
ATOM     17  F   UNL     1      -4.940  12.273  18.845  0.00  0.00    +0.000 F 
ATOM     18  C   UNL     1      -2.630  11.797  18.892  0.00  0.00    +0.000 A 
ENDBRANCH  11  12
ENDBRANCH  10  11
ENDBRANCH   1   7
BRANCH   2  19
ATOM     19  C   UNL     1       2.891   4.987  20.235  0.00  0.00    +0.000 C 
ATOM     20  C   UNL     1       2.292   3.594  20.023  0.00  0.00    +0.000 C 
ATOM     21  C   UNL     1       3.411   2.574  19.836  0.00  0.00    +0.000 C 
ATOM     22  C   UNL     1       4.383   2.985  18.726  0.00  0.00    +0.000 C 
ATOM     23  N   UNL     1       4.911   4.339  18.953  0.00  0.00    +0.000 NA
ATOM     24  C   UNL     1       3.814   5.325  19.053  0.00  0.00    +0.000 C 
BRANCH  23  25
ATOM     25  C   UNL     1       5.860   4.750  17.878  0.00  0.00    +0.000 C 
BRANCH  25  26
ATOM     26  C   UNL     1       7.288   5.204  18.267  0.00  0.00    +0.000 C 
ATOM     27  F   UNL     1       7.675   6.344  17.654  0.00  0.00    +0.000 F 
ATOM     28  F   UNL     1       7.374   5.414  19.603  0.00  0.00    +0.000 F 
ATOM     29  F   UNL     1       8.200   4.251  17.954  0.00  0.00    +0.000 F 
ENDBRANCH  25  26
ENDBRANCH  23  25
ENDBRANCH   2  19
TORSDOF 6
ENDMDL
MODEL 3
REMARK VINA RESULT:      -8.3      5.829      8.798
REMARK  Name = 
REMARK  7 active torsions:
REMARK  status: ('A' for Active; 'I' for Inactive)
REMARK    1  A    between atoms: C_1  and  C_2
REMARK    2  A    between atoms: C_3  and  N_4
REMARK    3  A    between atoms: C_5  and  C_7
REMARK    4  A    between atoms: N_11  and  C_12
REMARK    5  A    between atoms: C_12  and  C_13
REMARK    6  A    between atoms: N_20  and  C_21
REMARK    7  A    between atoms: C_21  and  C_22
REMARK                            x       y       z     vdW  Elec       q    Type
REMARK                         _______ _______ _______ _____ _____    ______ ____
ROOT
ATOM      1  N   UNL     1       2.428   7.014  19.952  0.00  0.00    +0.000 N 
ATOM      2  C   UNL     1       1.916   5.751  20.204  0.00  0.00    +0.000 C 
ATOM      3  O   UNL     1       0.811   5.501  20.678  0.00  0.00    +0.000 OA
ATOM      4  H   UNL     1       3.362   7.112  19.589  0.00  0.00    +0.000 HD
ENDROOT
BRANCH   1   7
ATOM      5  C   UNL     1       2.224   9.377  17.833  0.00  0.00    +0.000 C 
ATOM      6  C   UNL     1       1.596   9.182  19.158  0.00  0.00    +0.000 A 
ATOM      7  C   UNL     1       1.691   8.172  20.096  0.00  0.00    +0.000 A 
ATOM      8  N   UNL     1       0.946   8.486  21.190  0.00  0.00    +0.000 NA
ATOM      9  N   UNL     1       0.359   9.651  20.971  0.00  0.00    +0.000 NA
ATOM     10  N   UNL     1       0.702  10.056  19.734  0.00  0.00    +0.000 N 
BRANCH  10  11
ATOM     11  C   UNL     1       0.117  11.282  19.211  0.00  0.00    +0.000 C 
BRANCH  11  12
ATOM     12  C   UNL     1      -1.227  11.028  18.568  0.00  0.00    +0.000 A 
ATOM     13  C   UNL     1      -2.391  11.644  19.066  0.00  0.00    +0.000 A 
ATOM     14  C   UNL     1      -3.644  11.356  18.521  0.00  0.00    +0.000 A 
ATOM     15  C   UNL     1      -3.751  10.466  17.458  0.00  0.00    +0.000 A 
ATOM     16  C   UNL     1      -2.599   9.892  16.931  0.00  0.00    +0.000 A 
ATOM     17  F   UNL     1      -2.698   9.048  15.896  0.00  0.00    +0.000 F 
ATOM     18  C   UNL     1      -1.344  10.168  17.469  0.00  0.00    +0.000 A 
ENDBRANCH  11  12
ENDBRANCH  10  11
ENDBRANCH   1   7
BRANCH   2  19
ATOM     19  C   UNL     1       2.876   4.635  19.797  0.00  0.00    +0.000 C 
ATOM     20  C   UNL     1       2.154   3.394  19.265  0.00  0.00    +0.000 C 
ATOM     21  C   UNL     1       3.177   2.333  18.868  0.00  0.00    +0.000 C 
ATOM     22  C   UNL     1       4.225   2.882  17.895  0.00  0.00    +0.000 C 
ATOM     23  N   UNL     1       4.871   4.090  18.431  0.00  0.00    +0.000 NA
ATOM     24  C   UNL     1       3.870   5.135  18.737  0.00  0.00    +0.000 C 
BRANCH  23  25
ATOM     25  C   UNL     1       5.895   4.633  17.493  0.00  0.00    +0.000 C 
BRANCH  25  26
ATOM     26  C   UNL     1       7.255   5.112  18.056  0.00  0.00    +0.000 C 
ATOM     27  F   UNL     1       7.236   5.334  19.389  0.00  0.00    +0.000 F 
ATOM     28  F   UNL     1       8.222   4.194  17.813  0.00  0.00    +0.000 F 
ATOM     29  F   UNL     1       7.643   6.267  17.463  0.00  0.00    +0.000 F 
ENDBRANCH  25  26
ENDBRANCH  23  25
ENDBRANCH   2  19
TORSDOF 6
ENDMDL
MODEL 4
REMARK VINA RESULT:      -8.1      6.662      9.478
REMARK  Name = 
REMARK  7 active torsions:
REMARK  status: ('A' for Active; 'I' for Inactive)
REMARK    1  A    between atoms: C_1  and  C_2
REMARK    2  A    between atoms: C_3  and  N_4
REMARK    3  A    between atoms: C_5  and  C_7
REMARK    4  A    between atoms: N_11  and  C_12
REMARK    5  A    between atoms: C_12  and  C_13
REMARK    6  A    between atoms: N_20  and  C_21
REMARK    7  A    between atoms: C_21  and  C_22
REMARK                            x       y       z     vdW  Elec       q    Type
REMARK                         _______ _______ _______ _____ _____    ______ ____
ROOT
ATOM      1  N   UNL     1       2.385   7.246  20.086  0.00  0.00    +0.000 N 
ATOM      2  C   UNL     1       1.883   5.980  20.339  0.00  0.00    +0.000 C 
ATOM      3  O   UNL     1       0.752   5.717  20.738  0.00  0.00    +0.000 OA
ATOM      4  H   UNL     1       3.340   7.356  19.789  0.00  0.00    +0.000 HD
ENDROOT
BRANCH   1   7
ATOM      5  C   UNL     1       2.088   9.412  17.776  0.00  0.00    +0.000 C 
ATOM      6  C   UNL     1       1.479   9.313  19.121  0.00  0.00    +0.000 A 
ATOM      7  C   UNL     1       1.614   8.390  20.141  0.00  0.00    +0.000 A 
ATOM      8  N   UNL     1       0.870   8.774  21.212  0.00  0.00    +0.000 NA
ATOM      9  N   UNL     1       0.246   9.899  20.903  0.00  0.00    +0.000 NA
ATOM     10  N   UNL     1       0.564  10.206  19.631  0.00  0.00    +0.000 N 
BRANCH  10  11
ATOM     11  C   UNL     1      -0.063  11.365  19.013  0.00  0.00    +0.000 C 
BRANCH  11  12
ATOM     12  C   UNL     1      -1.457  11.049  18.524  0.00  0.00    +0.000 A 
ATOM     13  C   UNL     1      -1.678  10.006  17.605  0.00  0.00    +0.000 A 
ATOM     14  C   UNL     1      -2.954   9.757  17.095  0.00  0.00    +0.000 A 
ATOM     15  C   UNL     1      -4.031  10.533  17.511  0.00  0.00    +0.000 A 
ATOM     16  C   UNL     1      -3.826  11.533  18.454  0.00  0.00    +0.000 A 
ATOM     17  F   UNL     1      -4.866  12.269  18.869  0.00  0.00    +0.000 F 
ATOM     18  C   UNL     1      -2.558  11.794  18.967  0.00  0.00    +0.000 A 
ENDBRANCH  11  12
ENDBRANCH  10  11
ENDBRANCH   1   7
BRANCH   2  19
ATOM     19  C   UNL     1       2.894   4.875  20.037  0.00  0.00    +0.000 C 
ATOM     20  C   UNL     1       2.532   3.540  20.696  0.00  0.00    +0.000 C 
ATOM     21  C   UNL     1       3.578   2.489  20.338  0.00  0.00    +0.000 C 
ATOM     22  C   UNL     1       3.784   2.376  18.824  0.00  0.00    +0.000 C 
ATOM     23  N   UNL     1       4.099   3.684  18.229  0.00  0.00    +0.000 NA
ATOM     24  C   UNL     1       3.036   4.669  18.521  0.00  0.00    +0.000 C 
BRANCH  23  25
ATOM     25  C   UNL     1       4.305   3.586  16.755  0.00  0.00    +0.000 C 
BRANCH  25  26
ATOM     26  C   UNL     1       5.549   4.253  16.121  0.00  0.00    +0.000 C 
ATOM     27  F   UNL     1       6.427   4.728  17.032  0.00  0.00    +0.000 F 
ATOM     28  F   UNL     1       6.216   3.370  15.339  0.00  0.00    +0.000 F 
ATOM     29  F   UNL     1       5.189   5.293  15.331  0.00  0.00    +0.000 F 
ENDBRANCH  25  26
ENDBRANCH  23  25
ENDBRANCH   2  19
TORSDOF 6
ENDMDL
MODEL 5
REMARK VINA RESULT:      -8.1      6.957     10.117
REMARK  Name = 
REMARK  7 active torsions:
REMARK  status: ('A' for Active; 'I' for Inactive)
REMARK    1  A    between atoms: C_1  and  C_2
REMARK    2  A    between atoms: C_3  and  N_4
REMARK    3  A    between atoms: C_5  and  C_7
REMARK    4  A    between atoms: N_11  and  C_12
REMARK    5  A    between atoms: C_12  and  C_13
REMARK    6  A    between atoms: N_20  and  C_21
REMARK    7  A    between atoms: C_21  and  C_22
REMARK                            x       y       z     vdW  Elec       q    Type
REMARK                         _______ _______ _______ _____ _____    ______ ____
ROOT
ATOM      1  N   UNL     1       1.069   9.189  19.622  0.00  0.00    +0.000 N 
ATOM      2  C   UNL     1       1.838   8.990  18.487  0.00  0.00    +0.000 C 
ATOM      3  O   UNL     1       2.198   9.858  17.697  0.00  0.00    +0.000 OA
ATOM      4  H   UNL     1       0.801   8.401  20.189  0.00  0.00    +0.000 HD
ENDROOT
BRANCH   1   7
ATOM      5  C   UNL     1      -1.239  11.022  18.426  0.00  0.00    +0.000 C 
ATOM      6  C   UNL     1      -0.312  11.217  19.563  0.00  0.00    +0.000 A 
ATOM      7  C   UNL     1       0.706  10.439  20.081  0.00  0.00    +0.000 A 
ATOM      8  N   UNL     1       1.303  11.089  21.115  0.00  0.00    +0.000 NA
ATOM      9  N   UNL     1       0.684  12.245  21.292  0.00  0.00    +0.000 NA
ATOM     10  N   UNL     1      -0.320  12.311  20.398  0.00  0.00    +0.000 N 
BRANCH  10  11
ATOM     11  C   UNL     1      -1.216  13.458  20.435  0.00  0.00    +0.000 C 
BRANCH  11  12
ATOM     12  C   UNL     1      -2.505  13.133  21.154  0.00  0.00    +0.000 A 
ATOM     13  C   UNL     1      -3.725  13.074  20.453  0.00  0.00    +0.000 A 
ATOM     14  C   UNL     1      -4.928  12.846  21.124  0.00  0.00    +0.000 A 
ATOM     15  C   UNL     1      -4.928  12.652  22.502  0.00  0.00    +0.000 A 
ATOM     16  C   UNL     1      -3.721  12.660  23.191  0.00  0.00    +0.000 A 
ATOM     17  F   UNL     1      -3.718  12.456  24.515  0.00  0.00    +0.000 F 
ATOM     18  C   UNL     1      -2.515  12.892  22.534  0.00  0.00    +0.000 A 
ENDBRANCH  11  12
ENDBRANCH  10  11
ENDBRANCH   1   7
BRANCH   2  19
ATOM     19  C   UNL     1       2.246   7.530  18.301  0.00  0.00    +0.000 C 
ATOM     20  C   UNL     1       3.629   7.375  17.661  0.00  0.00    +0.000 C 
ATOM     21  C   UNL     1       3.970   5.894  17.522  0.00  0.00    +0.000 C 
ATOM     22  C   UNL     1       3.837   5.148  18.852  0.00  0.00    +0.000 C 
ATOM     23  N   UNL     1       2.506   5.348  19.447  0.00  0.00    +0.000 NA
ATOM     24  C   UNL     1       2.226   6.786  19.645  0.00  0.00    +0.000 C 
BRANCH  23  25
ATOM     25  C   UNL     1       2.365   4.623  20.743  0.00  0.00    +0.000 C 
BRANCH  25  26
ATOM     26  C   UNL     1       1.611   3.271  20.772  0.00  0.00    +0.000 C 
ATOM     27  F   UNL     1       2.284   2.267  20.168  0.00  0.00    +0.000 F 
ATOM     28  F   UNL     1       1.371   2.887  22.049  0.00  0.00    +0.000 F 
ATOM     29  F   UNL     1       0.409   3.376  20.154  0.00  0.00    +0.000 F 
ENDBRANCH  25  26
ENDBRANCH  23  25
ENDBRANCH   2  19
TORSDOF 6
ENDMDL
MODEL 6
REMARK VINA RESULT:      -8.0      5.705      8.505
REMARK  Name = 
REMARK  7 active torsions:
REMARK  status: ('A' for Active; 'I' for Inactive)
REMARK    1  A    between atoms: C_1  and  C_2
REMARK    2  A    between atoms: C_3  and  N_4
REMARK    3  A    between atoms: C_5  and  C_7
REMARK    4  A    between atoms: N_11  and  C_12
REMARK    5  A    between atoms: C_12  and  C_13
REMARK    6  A    between atoms: N_20  and  C_21
REMARK    7  A    between atoms: C_21  and  C_22
REMARK                            x       y       z     vdW  Elec       q    Type
REMARK                         _______ _______ _______ _____ _____    ______ ____
ROOT
ATOM      1  N   UNL     1       2.388   7.283  19.656  0.00  0.00    +0.000 N 
ATOM      2  C   UNL     1       2.105   5.963  19.968  0.00  0.00    +0.000 C 
ATOM      3  O   UNL     1       1.143   5.563  20.616  0.00  0.00    +0.000 OA
ATOM      4  H   UNL     1       3.223   7.508  19.142  0.00  0.00    +0.000 HD
ENDROOT
BRANCH   1   7
ATOM      5  C   UNL     1       2.057   9.951  17.955  0.00  0.00    +0.000 C 
ATOM      6  C   UNL     1       1.384   9.473  19.184  0.00  0.00    +0.000 A 
ATOM      7  C   UNL     1       1.531   8.327  19.943  0.00  0.00    +0.000 A 
ATOM      8  N   UNL     1       0.704   8.379  21.021  0.00  0.00    +0.000 NA
ATOM      9  N   UNL     1       0.015   9.506  20.962  0.00  0.00    +0.000 NA
ATOM     10  N   UNL     1       0.379  10.149  19.836  0.00  0.00    +0.000 N 
BRANCH  10  11
ATOM     11  C   UNL     1      -0.298  11.391  19.489  0.00  0.00    +0.000 C 
BRANCH  11  12
ATOM     12  C   UNL     1      -1.551  11.135  18.684  0.00  0.00    +0.000 A 
ATOM     13  C   UNL     1      -2.772  11.737  19.041  0.00  0.00    +0.000 A 
ATOM     14  C   UNL     1      -3.947  11.447  18.344  0.00  0.00    +0.000 A 
ATOM     15  C   UNL     1      -3.915  10.567  17.266  0.00  0.00    +0.000 A 
ATOM     16  C   UNL     1      -2.703  10.008  16.879  0.00  0.00    +0.000 A 
ATOM     17  F   UNL     1      -2.667   9.175  15.831  0.00  0.00    +0.000 F 
ATOM     18  C   UNL     1      -1.525  10.285  17.570  0.00  0.00    +0.000 A 
ENDBRANCH  11  12
ENDBRANCH  10  11
ENDBRANCH   1   7
BRANCH   2  19
ATOM     19  C   UNL     1       3.128   4.989  19.386  0.00  0.00    +0.000 C 
ATOM     20  C   UNL     1       2.695   4.408  18.037  0.00  0.00    +0.000 C 
ATOM     21  C   UNL     1       3.771   3.459  17.515  0.00  0.00    +0.000 C 
ATOM     22  C   UNL     1       5.149   4.126  17.467  0.00  0.00    +0.000 C 
ATOM     23  N   UNL     1       5.512   4.697  18.773  0.00  0.00    +0.000 NA
ATOM     24  C   UNL     1       4.496   5.671  19.226  0.00  0.00    +0.000 C 
BRANCH  23  25
ATOM     25  C   UNL     1       6.854   5.347  18.739  0.00  0.00    +0.000 C 
BRANCH  25  26
ATOM     26  C   UNL     1       7.118   6.480  17.718  0.00  0.00    +0.000 C 
ATOM     27  F   UNL     1       6.032   7.245  17.472  0.00  0.00    +0.000 F 
ATOM     28  F   UNL     1       8.099   7.302  18.161  0.00  0.00    +0.000 F 
ATOM     29  F   UNL     1       7.528   5.973  16.529  0.00  0.00    +0.000 F 
ENDBRANCH  25  26
ENDBRANCH  23  25
ENDBRANCH   2  19
TORSDOF 6
ENDMDL
MODEL 7
REMARK VINA RESULT:      -8.0      5.854      8.773
REMARK  Name = 
REMARK  7 active torsions:
REMARK  status: ('A' for Active; 'I' for Inactive)
REMARK    1  A    between atoms: C_1  and  C_2
REMARK    2  A    between atoms: C_3  and  N_4
REMARK    3  A    between atoms: C_5  and  C_7
REMARK    4  A    between atoms: N_11  and  C_12
REMARK    5  A    between atoms: C_12  and  C_13
REMARK    6  A    between atoms: N_20  and  C_21
REMARK    7  A    between atoms: C_21  and  C_22
REMARK                            x       y       z     vdW  Elec       q    Type
REMARK                         _______ _______ _______ _____ _____    ______ ____
ROOT
ATOM      1  N   UNL     1       2.465   7.169  19.684  0.00  0.00    +0.000 N 
ATOM      2  C   UNL     1       2.156   5.851  19.977  0.00  0.00    +0.000 C 
ATOM      3  O   UNL     1       1.201   5.463  20.643  0.00  0.00    +0.000 OA
ATOM      4  H   UNL     1       3.293   7.383  19.153  0.00  0.00    +0.000 HD
ENDROOT
BRANCH   1   7
ATOM      5  C   UNL     1       2.000   9.788  17.940  0.00  0.00    +0.000 C 
ATOM      6  C   UNL     1       1.438   9.353  19.238  0.00  0.00    +0.000 A 
ATOM      7  C   UNL     1       1.646   8.230  20.015  0.00  0.00    +0.000 A 
ATOM      8  N   UNL     1       0.919   8.320  21.161  0.00  0.00    +0.000 NA
ATOM      9  N   UNL     1       0.236   9.452  21.131  0.00  0.00    +0.000 NA
ATOM     10  N   UNL     1       0.500  10.058  19.958  0.00  0.00    +0.000 N 
BRANCH  10  11
ATOM     11  C   UNL     1      -0.197  11.295  19.636  0.00  0.00    +0.000 C 
BRANCH  11  12
ATOM     12  C   UNL     1      -1.502  11.028  18.923  0.00  0.00    +0.000 A 
ATOM     13  C   UNL     1      -1.610   9.985  17.984  0.00  0.00    +0.000 A 
ATOM     14  C   UNL     1      -2.792   9.781  17.270  0.00  0.00    +0.000 A 
ATOM     15  C   UNL     1      -3.892  10.602  17.499  0.00  0.00    +0.000 A 
ATOM     16  C   UNL     1      -3.807  11.602  18.460  0.00  0.00    +0.000 A 
ATOM     17  F   UNL     1      -4.870  12.383  18.695  0.00  0.00    +0.000 F 
ATOM     18  C   UNL     1      -2.631  11.819  19.175  0.00  0.00    +0.000 A 
ENDBRANCH  11  12
ENDBRANCH  10  11
ENDBRANCH   1   7
BRANCH   2  19
ATOM     19  C   UNL     1       3.136   4.863  19.347  0.00  0.00    +0.000 C 
ATOM     20  C   UNL     1       2.589   4.212  18.073  0.00  0.00    +0.000 C 
ATOM     21  C   UNL     1       3.628   3.253  17.498  0.00  0.00    +0.000 C 
ATOM     22  C   UNL     1       4.984   3.933  17.290  0.00  0.00    +0.000 C 
ATOM     23  N   UNL     1       5.457   4.571  18.528  0.00  0.00    +0.000 NA
ATOM     24  C   UNL     1       4.472   5.553  19.028  0.00  0.00    +0.000 C 
BRANCH  23  25
ATOM     25  C   UNL     1       6.779   5.235  18.338  0.00  0.00    +0.000 C 
BRANCH  25  26
ATOM     26  C   UNL     1       6.975   6.197  17.141  0.00  0.00    +0.000 C 
ATOM     27  F   UNL     1       7.887   7.165  17.374  0.00  0.00    +0.000 F 
ATOM     28  F   UNL     1       7.381   5.514  16.044  0.00  0.00    +0.000 F 
ATOM     29  F   UNL     1       5.810   6.811  16.821  0.00  0.00    +0.000 F 
ENDBRANCH  25  26
ENDBRANCH  23  25
ENDBRANCH   2  19
TORSDOF 6
ENDMDL
MODEL 8
REMARK VINA RESULT:      -8.0      6.442      9.240
REMARK  Name = 
REMARK  7 active torsions:
REMARK  status: ('A' for Active; 'I' for Inactive)
REMARK    1  A    between atoms: C_1  and  C_2
REMARK    2  A    between atoms: C_3  and  N_4
REMARK    3  A    between atoms: C_5  and  C_7
REMARK    4  A    between atoms: N_11  and  C_12
REMARK    5  A    between atoms: C_12  and  C_13
REMARK    6  A    between atoms: N_20  and  C_21
REMARK    7  A    between atoms: C_21  and  C_22
REMARK                            x       y       z     vdW  Elec       q    Type
REMARK                         _______ _______ _______ _____ _____    ______ ____
ROOT
ATOM      1  N   UNL     1       2.522   6.623  19.600  0.00  0.00    +0.000 N 
ATOM      2  C   UNL     1       2.211   5.414  20.202  0.00  0.00    +0.000 C 
ATOM      3  O   UNL     1       1.381   5.241  21.089  0.00  0.00    +0.000 OA
ATOM      4  H   UNL     1       3.243   6.662  18.899  0.00  0.00    +0.000 HD
ENDROOT
BRANCH   1   7
ATOM      5  C   UNL     1       2.297   9.117  17.638  0.00  0.00    +0.000 C 
ATOM      6  C   UNL     1       1.724   8.860  18.978  0.00  0.00    +0.000 A 
ATOM      7  C   UNL     1       1.830   7.791  19.848  0.00  0.00    +0.000 A 
ATOM      8  N   UNL     1       1.147   8.060  20.993  0.00  0.00    +0.000 NA
ATOM      9  N   UNL     1       0.588   9.253  20.873  0.00  0.00    +0.000 NA
ATOM     10  N   UNL     1       0.887   9.722  19.647  0.00  0.00    +0.000 N 
BRANCH  10  11
ATOM     11  C   UNL     1       0.319  10.996  19.228  0.00  0.00    +0.000 C 
BRANCH  11  12
ATOM     12  C   UNL     1      -1.027  10.813  18.565  0.00  0.00    +0.000 A 
ATOM     13  C   UNL     1      -1.192   9.897  17.510  0.00  0.00    +0.000 A 
ATOM     14  C   UNL     1      -2.415   9.777  16.847  0.00  0.00    +0.000 A 
ATOM     15  C   UNL     1      -3.498  10.556  17.243  0.00  0.00    +0.000 A 
ATOM     16  C   UNL     1      -3.354  11.427  18.316  0.00  0.00    +0.000 A 
ATOM     17  F   UNL     1      -4.400  12.164  18.710  0.00  0.00    +0.000 F 
ATOM     18  C   UNL     1      -2.138  11.559  18.982  0.00  0.00    +0.000 A 
ENDBRANCH  11  12
ENDBRANCH  10  11
ENDBRANCH   1   7
BRANCH   2  19
ATOM     19  C   UNL     1       3.008   4.247  19.622  0.00  0.00    +0.000 C 
ATOM     20  C   UNL     1       2.181   2.964  19.499  0.00  0.00    +0.000 C 
ATOM     21  C   UNL     1       3.039   1.852  18.902  0.00  0.00    +0.000 C 
ATOM     22  C   UNL     1       3.690   2.276  17.582  0.00  0.00    +0.000 C 
ATOM     23  N   UNL     1       4.449   3.527  17.738  0.00  0.00    +0.000 NA
ATOM     24  C   UNL     1       3.582   4.612  18.244  0.00  0.00    +0.000 C 
BRANCH  23  25
ATOM     25  C   UNL     1       5.090   3.948  16.459  0.00  0.00    +0.000 C 
BRANCH  25  26
ATOM     26  C   UNL     1       6.469   4.649  16.502  0.00  0.00    +0.000 C 
ATOM     27  F   UNL     1       6.387   5.997  16.531  0.00  0.00    +0.000 F 
ATOM     28  F   UNL     1       7.165   4.263  17.598  0.00  0.00    +0.000 F 
ATOM     29  F   UNL     1       7.213   4.316  15.419  0.00  0.00    +0.000 F 
ENDBRANCH  25  26
ENDBRANCH  23  25
ENDBRANCH   2  19
TORSDOF 6
ENDMDL
MODEL 9
REMARK VINA RESULT:      -7.9      7.017     10.055
REMARK  Name = 
REMARK  7 active torsions:
REMARK  status: ('A' for Active; 'I' for Inactive)
REMARK    1  A    between atoms: C_1  and  C_2
REMARK    2  A    between atoms: C_3  and  N_4
REMARK    3  A    between atoms: C_5  and  C_7
REMARK    4  A    between atoms: N_11  and  C_12
REMARK    5  A    between atoms: C_12  and  C_13
REMARK    6  A    between atoms: N_20  and  C_21
REMARK    7  A    between atoms: C_21  and  C_22
REMARK                            x       y       z     vdW  Elec       q    Type
REMARK                         _______ _______ _______ _____ _____    ______ ____
ROOT
ATOM      1  N   UNL     1       1.103   9.227  19.639  0.00  0.00    +0.000 N 
ATOM      2  C   UNL     1       1.819   9.003  18.474  0.00  0.00    +0.000 C 
ATOM      3  O   UNL     1       2.138   9.851  17.646  0.00  0.00    +0.000 OA
ATOM      4  H   UNL     1       0.866   8.454  20.237  0.00  0.00    +0.000 HD
ENDROOT
BRANCH   1   7
ATOM      5  C   UNL     1      -1.240  11.039  18.478  0.00  0.00    +0.000 C 
ATOM      6  C   UNL     1      -0.277  11.257  19.581  0.00  0.00    +0.000 A 
ATOM      7  C   UNL     1       0.757  10.488  20.082  0.00  0.00    +0.000 A 
ATOM      8  N   UNL     1       1.387  11.159  21.083  0.00  0.00    +0.000 NA
ATOM      9  N   UNL     1       0.775  12.319  21.255  0.00  0.00    +0.000 NA
ATOM     10  N   UNL     1      -0.257  12.368  20.392  0.00  0.00    +0.000 N 
BRANCH  10  11
ATOM     11  C   UNL     1      -1.151  13.517  20.434  0.00  0.00    +0.000 C 
BRANCH  11  12
ATOM     12  C   UNL     1      -2.293  13.298  21.399  0.00  0.00    +0.000 A 
ATOM     13  C   UNL     1      -2.095  13.415  22.787  0.00  0.00    +0.000 A 
ATOM     14  C   UNL     1      -3.128  13.143  23.686  0.00  0.00    +0.000 A 
ATOM     15  C   UNL     1      -4.382  12.772  23.210  0.00  0.00    +0.000 A 
ATOM     16  C   UNL     1      -4.596  12.703  21.838  0.00  0.00    +0.000 A 
ATOM     17  F   UNL     1      -5.807  12.363  21.377  0.00  0.00    +0.000 F 
ATOM     18  C   UNL     1      -3.572  12.966  20.932  0.00  0.00    +0.000 A 
ENDBRANCH  11  12
ENDBRANCH  10  11
ENDBRANCH   1   7
BRANCH   2  19
ATOM     19  C   UNL     1       2.225   7.540  18.306  0.00  0.00    +0.000 C 
ATOM     20  C   UNL     1       3.612   7.375  17.677  0.00  0.00    +0.000 C 
ATOM     21  C   UNL     1       3.950   5.892  17.556  0.00  0.00    +0.000 C 
ATOM     22  C   UNL     1       3.805   5.159  18.893  0.00  0.00    +0.000 C 
ATOM     23  N   UNL     1       2.470   5.369  19.476  0.00  0.00    +0.000 NA
ATOM     24  C   UNL     1       2.192   6.809  19.657  0.00  0.00    +0.000 C 
BRANCH  23  25
ATOM     25  C   UNL     1       2.317   4.657  20.778  0.00  0.00    +0.000 C 
BRANCH  25  26
ATOM     26  C   UNL     1       1.608   3.281  20.806  0.00  0.00    +0.000 C 
ATOM     27  F   UNL     1       0.447   3.261  20.116  0.00  0.00    +0.000 F 
ATOM     28  F   UNL     1       2.409   2.323  20.280  0.00  0.00    +0.000 F 
ATOM     29  F   UNL     1       1.325   2.911  22.079  0.00  0.00    +0.000 F 
ENDBRANCH  25  26
ENDBRANCH  23  25
ENDBRANCH   2  19
TORSDOF 6
ENDMDL
