MODEL 1
REMARK VINA RESULT:      -6.2      0.000      0.000
REMARK  Name = 
REMARK  13 active torsions:
REMARK  status: ('A' for Active; 'I' for Inactive)
REMARK    1  A    between atoms: C_2  and  C_3
REMARK    2  A    between atoms: C_2  and  C_4
REMARK    3  A    between atoms: C_5  and  C_6
REMARK    4  A    between atoms: C_6  and  O_7
REMARK    5  A    between atoms: C_8  and  O_9
REMARK    6  A    between atoms: C_10  and  O_11
REMARK    7  A    between atoms: C_12  and  O_13
REMARK    8  A    between atoms: O_13  and  C_14
REMARK    9  A    between atoms: C_14  and  C_15
REMARK   10  A    between atoms: C_18  and  O_19
REMARK   11  A    between atoms: C_20  and  C_21
REMARK   12  A    between atoms: C_20  and  C_22
REMARK   13  A    between atoms: C_25  and  O_26
REMARK                            x       y       z     vdW  Elec       q    Type
REMARK                         _______ _______ _______ _____ _____    ______ ____
ROOT
ATOM      1  C   UNL     1       0.786   9.478  21.450  0.00  0.00    +0.000 C 
ATOM      2  C   UNL     1       1.079  10.243  20.146  0.00  0.00    +0.000 C 
ATOM      3  C   UNL     1       0.789  11.702  20.325  0.00  0.00    +0.000 C 
ATOM      4  C   UNL     1      -0.670  11.984  20.747  0.00  0.00    +0.000 C 
ATOM      5  C   UNL     1      -0.763  13.503  20.616  0.00  0.00    +0.000 C 
ATOM      6  C   UNL     1      -1.945  14.140  21.272  0.00  0.00    +0.000 C 
ATOM      7  C   UNL     1      -2.325  13.489  22.650  0.00  0.00    +0.000 C 
ATOM      8  C   UNL     1      -3.807  13.897  22.925  0.00  0.00    +0.000 C 
ATOM      9  C   UNL     1      -1.544  14.150  23.816  0.00  0.00    +0.000 C 
ATOM     10  O   UNL     1      -2.130  12.001  22.732  0.00  0.00    +0.000 OA
ATOM     11  C   UNL     1      -0.841  11.484  22.210  0.00  0.00    +0.000 C 
ATOM     12  C   UNL     1      -0.618   9.838  22.111  0.00  0.00    +0.000 C 
ENDROOT
BRANCH   1  14
ATOM     13  C   UNL     1       1.490   6.893  20.692  0.00  0.00    +0.000 C 
ATOM     14  C   UNL     1       1.048   8.062  21.070  0.00  0.00    +0.000 C 
BRANCH  13  16
ATOM     15  C   UNL     1       3.218   5.461  19.684  0.00  0.00    +0.000 C 
ATOM     16  C   UNL     1       2.005   5.533  20.251  0.00  0.00    +0.000 C 
ATOM     17  C   UNL     1       1.130   4.340  20.483  0.00  0.00    +0.000 C 
ENDBRANCH  13  16
ENDBRANCH   1  14
BRANCH   1  18
ATOM     18  O   UNL     1       1.766   9.875  22.444  0.00  0.00    +0.000 OA
ATOM     19  H   UNL     1       1.651  10.851  22.516  0.00  0.00    +0.000 HD
ENDBRANCH   1  18
BRANCH   2  20
ATOM     20  O   UNL     1       0.384   9.751  18.998  0.00  0.00    +0.000 OA
ATOM     21  H   UNL     1       0.973   9.164  18.499  0.00  0.00    +0.000 HD
ENDBRANCH   2  20
BRANCH   3  22
ATOM     22  O   UNL     1       1.709  12.293  21.266  0.00  0.00    +0.000 OA
ATOM     23  H   UNL     1       2.007  11.613  21.912  0.00  0.00    +0.000 HD
ENDBRANCH   3  22
BRANCH   6  24
ATOM     24  O   UNL     1      -3.001  14.158  20.309  0.00  0.00    +0.000 OA
ATOM     25  H   UNL     1      -3.861  14.149  20.746  0.00  0.00    +0.000 HD
ENDBRANCH   6  24
BRANCH  12  26
ATOM     26  O   UNL     1      -0.615   9.172  23.392  0.00  0.00    +0.000 OA
ATOM     27  H   UNL     1      -0.969   8.271  23.292  0.00  0.00    +0.000 HD
ENDBRANCH  12  26
BRANCH   4  28
ATOM     28  O   UNL     1      -1.765  11.284  19.941  0.00  0.00    +0.000 OA
BRANCH  28  29
ATOM     29  C   UNL     1      -2.096  11.617  18.644  0.00  0.00    +0.000 C 
ATOM     30  C   UNL     1      -3.562  11.488  18.277  0.00  0.00    +0.000 C 
ATOM     31  O   UNL     1      -1.300  11.970  17.836  0.00  0.00    +0.000 OA
ENDBRANCH  28  29
ENDBRANCH   4  28
TORSDOF 9
ENDMDL
MODEL 2
REMARK VINA RESULT:      -5.8      5.896      9.166
REMARK  Name = 
REMARK  13 active torsions:
REMARK  status: ('A' for Active; 'I' for Inactive)
REMARK    1  A    between atoms: C_2  and  C_3
REMARK    2  A    between atoms: C_2  and  C_4
REMARK    3  A    between atoms: C_5  and  C_6
REMARK    4  A    between atoms: C_6  and  O_7
REMARK    5  A    between atoms: C_8  and  O_9
REMARK    6  A    between atoms: C_10  and  O_11
REMARK    7  A    between atoms: C_12  and  O_13
REMARK    8  A    between atoms: O_13  and  C_14
REMARK    9  A    between atoms: C_14  and  C_15
REMARK   10  A    between atoms: C_18  and  O_19
REMARK   11  A    between atoms: C_20  and  C_21
REMARK   12  A    between atoms: C_20  and  C_22
REMARK   13  A    between atoms: C_25  and  O_26
REMARK                            x       y       z     vdW  Elec       q    Type
REMARK                         _______ _______ _______ _____ _____    ______ ____
ROOT
ATOM      1  C   UNL     1       6.186   4.616  16.855  0.00  0.00    +0.000 C 
ATOM      2  C   UNL     1       6.199   6.013  17.505  0.00  0.00    +0.000 C 
ATOM      3  C   UNL     1       5.568   5.957  18.863  0.00  0.00    +0.000 C 
ATOM      4  C   UNL     1       4.113   5.437  18.835  0.00  0.00    +0.000 C 
ATOM      5  C   UNL     1       3.638   5.713  20.261  0.00  0.00    +0.000 C 
ATOM      6  C   UNL     1       2.378   5.022  20.670  0.00  0.00    +0.000 C 
ATOM      7  C   UNL     1       2.258   3.556  20.118  0.00  0.00    +0.000 C 
ATOM      8  C   UNL     1       0.740   3.193  20.189  0.00  0.00    +0.000 C 
ATOM      9  C   UNL     1       2.920   2.538  21.081  0.00  0.00    +0.000 C 
ATOM     10  O   UNL     1       2.819   3.342  18.741  0.00  0.00    +0.000 OA
ATOM     11  C   UNL     1       4.162   3.921  18.488  0.00  0.00    +0.000 C 
ATOM     12  C   UNL     1       4.780   3.872  16.944  0.00  0.00    +0.000 C 
ENDROOT
BRANCH   1  14
ATOM     13  C   UNL     1       7.144   4.924  14.259  0.00  0.00    +0.000 C 
ATOM     14  C   UNL     1       6.767   4.873  15.507  0.00  0.00    +0.000 C 
BRANCH  13  16
ATOM     15  C   UNL     1       8.428   5.953  12.430  0.00  0.00    +0.000 C 
ATOM     16  C   UNL     1       7.582   4.983  12.804  0.00  0.00    +0.000 C 
ATOM     17  C   UNL     1       7.048   3.946  11.865  0.00  0.00    +0.000 C 
ENDBRANCH  13  16
ENDBRANCH   1  14
BRANCH   1  18
ATOM     18  O   UNL     1       7.096   3.759  17.592  0.00  0.00    +0.000 OA
ATOM     19  H   UNL     1       7.693   3.394  16.899  0.00  0.00    +0.000 HD
ENDBRANCH   1  18
BRANCH   2  20
ATOM     20  O   UNL     1       5.578   7.038  16.727  0.00  0.00    +0.000 OA
ATOM     21  H   UNL     1       4.955   7.526  17.288  0.00  0.00    +0.000 HD
ENDBRANCH   2  20
BRANCH   3  22
ATOM     22  O   UNL     1       6.369   5.166  19.766  0.00  0.00    +0.000 OA
ATOM     23  H   UNL     1       7.291   5.509  19.779  0.00  0.00    +0.000 HD
ENDBRANCH   3  22
BRANCH   6  24
ATOM     24  O   UNL     1       1.293   5.884  20.319  0.00  0.00    +0.000 OA
ATOM     25  H   UNL     1       1.414   6.758  20.708  0.00  0.00    +0.000 HD
ENDBRANCH   6  24
BRANCH  12  26
ATOM     26  O   UNL     1       5.027   2.536  16.457  0.00  0.00    +0.000 OA
ATOM     27  H   UNL     1       4.184   2.119  16.208  0.00  0.00    +0.000 HD
ENDBRANCH  12  26
BRANCH   4  28
ATOM     28  O   UNL     1       3.179   6.067  17.802  0.00  0.00    +0.000 OA
BRANCH  28  29
ATOM     29  C   UNL     1       2.770   7.384  17.838  0.00  0.00    +0.000 C 
ATOM     30  C   UNL     1       1.276   7.621  17.718  0.00  0.00    +0.000 C 
ATOM     31  O   UNL     1       3.520   8.299  17.940  0.00  0.00    +0.000 OA
ENDBRANCH  28  29
ENDBRANCH   4  28
TORSDOF 9
ENDMDL
MODEL 3
REMARK VINA RESULT:      -5.8      8.179      9.856
REMARK  Name = 
REMARK  13 active torsions:
REMARK  status: ('A' for Active; 'I' for Inactive)
REMARK    1  A    between atoms: C_2  and  C_3
REMARK    2  A    between atoms: C_2  and  C_4
REMARK    3  A    between atoms: C_5  and  C_6
REMARK    4  A    between atoms: C_6  and  O_7
REMARK    5  A    between atoms: C_8  and  O_9
REMARK    6  A    between atoms: C_10  and  O_11
REMARK    7  A    between atoms: C_12  and  O_13
REMARK    8  A    between atoms: O_13  and  C_14
REMARK    9  A    between atoms: C_14  and  C_15
REMARK   10  A    between atoms: C_18  and  O_19
REMARK   11  A    between atoms: C_20  and  C_21
REMARK   12  A    between atoms: C_20  and  C_22
REMARK   13  A    between atoms: C_25  and  O_26
REMARK                            x       y       z     vdW  Elec       q    Type
REMARK                         _______ _______ _______ _____ _____    ______ ____
ROOT
ATOM      1  C   UNL     1       9.492  11.404  18.897  0.00  0.00    +0.000 C 
ATOM      2  C   UNL     1       9.235  12.343  17.703  0.00  0.00    +0.000 C 
ATOM      3  C   UNL     1       9.694  13.732  18.029  0.00  0.00    +0.000 C 
ATOM      4  C   UNL     1       9.004  14.321  19.279  0.00  0.00    +0.000 C 
ATOM      5  C   UNL     1       9.446  15.783  19.241  0.00  0.00    +0.000 C 
ATOM      6  C   UNL     1       9.228  16.561  20.498  0.00  0.00    +0.000 C 
ATOM      7  C   UNL     1       9.508  15.735  21.804  0.00  0.00    +0.000 C 
ATOM      8  C   UNL     1       8.764  16.484  22.955  0.00  0.00    +0.000 C 
ATOM      9  C   UNL     1      11.000  15.827  22.216  0.00  0.00    +0.000 C 
ATOM     10  O   UNL     1       9.122  14.284  21.741  0.00  0.00    +0.000 OA
ATOM     11  C   UNL     1       9.542  13.552  20.520  0.00  0.00    +0.000 C 
ATOM     12  C   UNL     1       9.010  11.990  20.298  0.00  0.00    +0.000 C 
ENDROOT
BRANCH   1  14
ATOM     13  C   UNL     1       8.412   8.921  18.248  0.00  0.00    +0.000 C 
ATOM     14  C   UNL     1       8.912  10.112  18.433  0.00  0.00    +0.000 C 
BRANCH  13  16
ATOM     15  C   UNL     1       7.066   7.321  16.951  0.00  0.00    +0.000 C 
ATOM     16  C   UNL     1       7.830   7.534  18.032  0.00  0.00    +0.000 C 
ATOM     17  C   UNL     1       8.149   6.472  19.040  0.00  0.00    +0.000 C 
ENDBRANCH  13  16
ENDBRANCH   1  14
BRANCH   1  18
ATOM     18  O   UNL     1      10.925  11.236  19.049  0.00  0.00    +0.000 OA
ATOM     19  H   UNL     1      11.224  12.085  19.448  0.00  0.00    +0.000 HD
ENDBRANCH   1  18
BRANCH   2  20
ATOM     20  O   UNL     1       7.880  12.377  17.252  0.00  0.00    +0.000 OA
ATOM     21  H   UNL     1       7.444  11.546  17.497  0.00  0.00    +0.000 HD
ENDBRANCH   2  20
BRANCH   3  22
ATOM     22  O   UNL     1      11.129  13.774  18.178  0.00  0.00    +0.000 OA
ATOM     23  H   UNL     1      11.360  14.097  19.078  0.00  0.00    +0.000 HD
ENDBRANCH   3  22
BRANCH   6  24
ATOM     24  O   UNL     1       7.917  17.127  20.419  0.00  0.00    +0.000 OA
ATOM     25  H   UNL     1       7.549  17.013  19.535  0.00  0.00    +0.000 HD
ENDBRANCH   6  24
BRANCH  12  26
ATOM     26  O   UNL     1       9.503  11.061  21.287  0.00  0.00    +0.000 OA
ATOM     27  H   UNL     1       9.807  10.249  20.846  0.00  0.00    +0.000 HD
ENDBRANCH  12  26
BRANCH   4  28
ATOM     28  O   UNL     1       7.481  14.198  19.345  0.00  0.00    +0.000 OA
BRANCH  28  29
ATOM     29  C   UNL     1       6.619  14.858  18.494  0.00  0.00    +0.000 C 
ATOM     30  C   UNL     1       5.296  15.296  19.095  0.00  0.00    +0.000 C 
ATOM     31  O   UNL     1       6.864  15.072  17.352  0.00  0.00    +0.000 OA
ENDBRANCH  28  29
ENDBRANCH   4  28
TORSDOF 9
ENDMDL
MODEL 4
REMARK VINA RESULT:      -5.6      8.574     10.306
REMARK  Name = 
REMARK  13 active torsions:
REMARK  status: ('A' for Active; 'I' for Inactive)
REMARK    1  A    between atoms: C_2  and  C_3
REMARK    2  A    between atoms: C_2  and  C_4
REMARK    3  A    between atoms: C_5  and  C_6
REMARK    4  A    between atoms: C_6  and  O_7
REMARK    5  A    between atoms: C_8  and  O_9
REMARK    6  A    between atoms: C_10  and  O_11
REMARK    7  A    between atoms: C_12  and  O_13
REMARK    8  A    between atoms: O_13  and  C_14
REMARK    9  A    between atoms: C_14  and  C_15
REMARK   10  A    between atoms: C_18  and  O_19
REMARK   11  A    between atoms: C_20  and  C_21
REMARK   12  A    between atoms: C_20  and  C_22
REMARK   13  A    between atoms: C_25  and  O_26
REMARK                            x       y       z     vdW  Elec       q    Type
REMARK                         _______ _______ _______ _____ _____    ______ ____
ROOT
ATOM      1  C   UNL     1       9.680  11.474  18.898  0.00  0.00    +0.000 C 
ATOM      2  C   UNL     1       9.213  12.211  17.629  0.00  0.00    +0.000 C 
ATOM      3  C   UNL     1       9.741  13.614  17.621  0.00  0.00    +0.000 C 
ATOM      4  C   UNL     1       9.307  14.432  18.857  0.00  0.00    +0.000 C 
ATOM      5  C   UNL     1       9.750  15.846  18.486  0.00  0.00    +0.000 C 
ATOM      6  C   UNL     1       9.783  16.832  19.609  0.00  0.00    +0.000 C 
ATOM      7  C   UNL     1      10.296  16.223  20.963  0.00  0.00    +0.000 C 
ATOM      8  C   UNL     1       9.792  17.186  22.086  0.00  0.00    +0.000 C 
ATOM      9  C   UNL     1      11.840  16.318  21.070  0.00  0.00    +0.000 C 
ATOM     10  O   UNL     1       9.888  14.800  21.223  0.00  0.00    +0.000 OA
ATOM     11  C   UNL     1      10.061  13.858  20.090  0.00  0.00    +0.000 C 
ATOM     12  C   UNL     1       9.480  12.306  20.242  0.00  0.00    +0.000 C 
ENDROOT
BRANCH   1  14
ATOM     13  C   UNL     1       8.528   8.976  18.471  0.00  0.00    +0.000 C 
ATOM     14  C   UNL     1       9.009  10.149  18.778  0.00  0.00    +0.000 C 
BRANCH  13  16
ATOM     15  C   UNL     1       8.176   6.590  18.958  0.00  0.00    +0.000 C 
ATOM     16  C   UNL     1       7.967   7.609  18.113  0.00  0.00    +0.000 C 
ATOM     17  C   UNL     1       7.201   7.476  16.832  0.00  0.00    +0.000 C 
ENDBRANCH  13  16
ENDBRANCH   1  14
BRANCH   1  18
ATOM     18  O   UNL     1      11.115  11.272  18.809  0.00  0.00    +0.000 OA
ATOM     19  H   UNL     1      11.480  11.828  19.534  0.00  0.00    +0.000 HD
ENDBRANCH   1  18
BRANCH   2  20
ATOM     20  O   UNL     1       7.797  12.228  17.436  0.00  0.00    +0.000 OA
ATOM     21  H   UNL     1       7.596  12.692  16.608  0.00  0.00    +0.000 HD
ENDBRANCH   2  20
BRANCH   3  22
ATOM     22  O   UNL     1      11.178  13.617  17.493  0.00  0.00    +0.000 OA
ATOM     23  H   UNL     1      11.528  12.711  17.652  0.00  0.00    +0.000 HD
ENDBRANCH   3  22
BRANCH   6  24
ATOM     24  O   UNL     1       8.487  17.434  19.678  0.00  0.00    +0.000 OA
ATOM     25  H   UNL     1       8.502  18.317  19.291  0.00  0.00    +0.000 HD
ENDBRANCH   6  24
BRANCH  12  26
ATOM     26  O   UNL     1      10.140  11.534  21.267  0.00  0.00    +0.000 OA
ATOM     27  H   UNL     1       9.734  11.725  22.131  0.00  0.00    +0.000 HD
ENDBRANCH  12  26
BRANCH   4  28
ATOM     28  O   UNL     1       7.823  14.388  19.223  0.00  0.00    +0.000 OA
BRANCH  28  29
ATOM     29  C   UNL     1       6.825  14.957  18.458  0.00  0.00    +0.000 C 
ATOM     30  C   UNL     1       5.697  15.621  19.224  0.00  0.00    +0.000 C 
ATOM     31  O   UNL     1       6.816  14.930  17.271  0.00  0.00    +0.000 OA
ENDBRANCH  28  29
ENDBRANCH   4  28
TORSDOF 9
ENDMDL
MODEL 5
REMARK VINA RESULT:      -5.2      3.580      5.751
REMARK  Name = 
REMARK  13 active torsions:
REMARK  status: ('A' for Active; 'I' for Inactive)
REMARK    1  A    between atoms: C_2  and  C_3
REMARK    2  A    between atoms: C_2  and  C_4
REMARK    3  A    between atoms: C_5  and  C_6
REMARK    4  A    between atoms: C_6  and  O_7
REMARK    5  A    between atoms: C_8  and  O_9
REMARK    6  A    between atoms: C_10  and  O_11
REMARK    7  A    between atoms: C_12  and  O_13
REMARK    8  A    between atoms: O_13  and  C_14
REMARK    9  A    between atoms: C_14  and  C_15
REMARK   10  A    between atoms: C_18  and  O_19
REMARK   11  A    between atoms: C_20  and  C_21
REMARK   12  A    between atoms: C_20  and  C_22
REMARK   13  A    between atoms: C_25  and  O_26
REMARK                            x       y       z     vdW  Elec       q    Type
REMARK                         _______ _______ _______ _____ _____    ______ ____
ROOT
ATOM      1  C   UNL     1       2.745  14.173  19.173  0.00  0.00    +0.000 C 
ATOM      2  C   UNL     1       1.938  13.674  17.959  0.00  0.00    +0.000 C 
ATOM      3  C   UNL     1       0.554  13.287  18.382  0.00  0.00    +0.000 C 
ATOM      4  C   UNL     1       0.536  12.193  19.472  0.00  0.00    +0.000 C 
ATOM      5  C   UNL     1      -0.942  11.815  19.535  0.00  0.00    +0.000 C 
ATOM      6  C   UNL     1      -1.359  11.019  20.729  0.00  0.00    +0.000 C 
ATOM      7  C   UNL     1      -0.648  11.461  22.058  0.00  0.00    +0.000 C 
ATOM      8  C   UNL     1      -0.787  10.256  23.042  0.00  0.00    +0.000 C 
ATOM      9  C   UNL     1      -1.435  12.597  22.763  0.00  0.00    +0.000 C 
ATOM     10  O   UNL     1       0.782  11.897  21.906  0.00  0.00    +0.000 OA
ATOM     11  C   UNL     1       1.061  12.833  20.789  0.00  0.00    +0.000 C 
ATOM     12  C   UNL     1       2.642  13.231  20.452  0.00  0.00    +0.000 C 
ENDROOT
BRANCH   1  14
ATOM     13  C   UNL     1       5.349  14.532  18.254  0.00  0.00    +0.000 C 
ATOM     14  C   UNL     1       4.092  14.433  18.591  0.00  0.00    +0.000 C 
BRANCH  13  16
ATOM     15  C   UNL     1       7.421  15.833  17.998  0.00  0.00    +0.000 C 
ATOM     16  C   UNL     1       6.813  14.646  17.863  0.00  0.00    +0.000 C 
ATOM     17  C   UNL     1       7.504  13.419  17.352  0.00  0.00    +0.000 C 
ENDBRANCH  13  16
ENDBRANCH   1  14
BRANCH   1  18
ATOM     18  O   UNL     1       2.182  15.438  19.608  0.00  0.00    +0.000 OA
ATOM     19  H   UNL     1       1.240  15.390  19.326  0.00  0.00    +0.000 HD
ENDBRANCH   1  18
BRANCH   2  20
ATOM     20  O   UNL     1       2.543  12.595  17.244  0.00  0.00    +0.000 OA
ATOM     21  H   UNL     1       3.507  12.709  17.255  0.00  0.00    +0.000 HD
ENDBRANCH   2  20
BRANCH   3  22
ATOM     22  O   UNL     1      -0.189  14.445  18.817  0.00  0.00    +0.000 OA
ATOM     23  H   UNL     1      -0.473  14.970  18.035  0.00  0.00    +0.000 HD
ENDBRANCH   3  22
BRANCH   6  24
ATOM     24  O   UNL     1      -1.191   9.639  20.393  0.00  0.00    +0.000 OA
ATOM     25  H   UNL     1      -1.834   9.371  19.725  0.00  0.00    +0.000 HD
ENDBRANCH   6  24
BRANCH  12  26
ATOM     26  O   UNL     1       3.298  13.958  21.512  0.00  0.00    +0.000 OA
ATOM     27  H   UNL     1       3.030  13.592  22.373  0.00  0.00    +0.000 HD
ENDBRANCH  12  26
BRANCH   4  28
ATOM     28  O   UNL     1       1.418  10.967  19.229  0.00  0.00    +0.000 OA
BRANCH  28  29
ATOM     29  C   UNL     1       1.125   9.981  18.310  0.00  0.00    +0.000 C 
ATOM     30  C   UNL     1       2.266   9.048  17.950  0.00  0.00    +0.000 C 
ATOM     31  O   UNL     1       0.059   9.855  17.803  0.00  0.00    +0.000 OA
ENDBRANCH  28  29
ENDBRANCH   4  28
TORSDOF 9
ENDMDL
MODEL 6
REMARK VINA RESULT:      -5.1      1.894      3.803
REMARK  Name = 
REMARK  13 active torsions:
REMARK  status: ('A' for Active; 'I' for Inactive)
REMARK    1  A    between atoms: C_2  and  C_3
REMARK    2  A    between atoms: C_2  and  C_4
REMARK    3  A    between atoms: C_5  and  C_6
REMARK    4  A    between atoms: C_6  and  O_7
REMARK    5  A    between atoms: C_8  and  O_9
REMARK    6  A    between atoms: C_10  and  O_11
REMARK    7  A    between atoms: C_12  and  O_13
REMARK    8  A    between atoms: O_13  and  C_14
REMARK    9  A    between atoms: C_14  and  C_15
REMARK   10  A    between atoms: C_18  and  O_19
REMARK   11  A    between atoms: C_20  and  C_21
REMARK   12  A    between atoms: C_20  and  C_22
REMARK   13  A    between atoms: C_25  and  O_26
REMARK                            x       y       z     vdW  Elec       q    Type
REMARK                         _______ _______ _______ _____ _____    ______ ____
ROOT
ATOM      1  C   UNL     1       0.674  11.265  18.891  0.00  0.00    +0.000 C 
ATOM      2  C   UNL     1      -0.657  10.689  19.410  0.00  0.00    +0.000 C 
ATOM      3  C   UNL     1      -1.519  11.787  19.954  0.00  0.00    +0.000 C 
ATOM      4  C   UNL     1      -0.844  12.581  21.094  0.00  0.00    +0.000 C 
ATOM      5  C   UNL     1      -1.991  13.440  21.621  0.00  0.00    +0.000 C 
ATOM      6  C   UNL     1      -1.598  14.575  22.510  0.00  0.00    +0.000 C 
ATOM      7  C   UNL     1      -0.276  15.295  22.062  0.00  0.00    +0.000 C 
ATOM      8  C   UNL     1       0.245  16.060  23.321  0.00  0.00    +0.000 C 
ATOM      9  C   UNL     1      -0.572  16.428  21.045  0.00  0.00    +0.000 C 
ATOM     10  O   UNL     1       0.778  14.396  21.479  0.00  0.00    +0.000 OA
ATOM     11  C   UNL     1       0.309  13.416  20.468  0.00  0.00    +0.000 C 
ATOM     12  C   UNL     1       1.380  12.277  19.898  0.00  0.00    +0.000 C 
ENDROOT
BRANCH   1  14
ATOM     13  C   UNL     1       2.034   8.905  18.315  0.00  0.00    +0.000 C 
ATOM     14  C   UNL     1       1.422  10.046  18.470  0.00  0.00    +0.000 C 
BRANCH  13  16
ATOM     15  C   UNL     1       2.317   6.517  18.837  0.00  0.00    +0.000 C 
ATOM     16  C   UNL     1       2.747   7.574  18.133  0.00  0.00    +0.000 C 
ATOM     17  C   UNL     1       3.891   7.514  17.168  0.00  0.00    +0.000 C 
ENDBRANCH  13  16
ENDBRANCH   1  14
BRANCH   1  18
ATOM     18  O   UNL     1       0.398  12.063  17.711  0.00  0.00    +0.000 OA
ATOM     19  H   UNL     1       1.095  12.758  17.725  0.00  0.00    +0.000 HD
ENDBRANCH   1  18
BRANCH   2  20
ATOM     20  O   UNL     1      -0.517   9.657  20.389  0.00  0.00    +0.000 OA
ATOM     21  H   UNL     1      -0.538  10.055  21.273  0.00  0.00    +0.000 HD
ENDBRANCH   2  20
BRANCH   3  22
ATOM     22  O   UNL     1      -1.936  12.678  18.898  0.00  0.00    +0.000 OA
ATOM     23  H   UNL     1      -2.910  12.813  18.943  0.00  0.00    +0.000 HD
ENDBRANCH   3  22
BRANCH   6  24
ATOM     24  O   UNL     1      -1.580  14.072  23.849  0.00  0.00    +0.000 OA
ATOM     25  H   UNL     1      -2.044  13.228  23.902  0.00  0.00    +0.000 HD
ENDBRANCH   6  24
BRANCH  12  26
ATOM     26  O   UNL     1       2.488  12.835  19.160  0.00  0.00    +0.000 OA
ATOM     27  H   UNL     1       3.254  12.939  19.751  0.00  0.00    +0.000 HD
ENDBRANCH  12  26
BRANCH   4  28
ATOM     28  O   UNL     1      -0.199  11.761  22.213  0.00  0.00    +0.000 OA
BRANCH  28  29
ATOM     29  C   UNL     1      -0.897  10.898  23.033  0.00  0.00    +0.000 C 
ATOM     30  C   UNL     1      -0.179   9.617  23.413  0.00  0.00    +0.000 C 
ATOM     31  O   UNL     1      -1.999  11.112  23.420  0.00  0.00    +0.000 OA
ENDBRANCH  28  29
ENDBRANCH   4  28
TORSDOF 9
ENDMDL
MODEL 7
REMARK VINA RESULT:      -5.0      3.540      5.398
REMARK  Name = 
REMARK  13 active torsions:
REMARK  status: ('A' for Active; 'I' for Inactive)
REMARK    1  A    between atoms: C_2  and  C_3
REMARK    2  A    between atoms: C_2  and  C_4
REMARK    3  A    between atoms: C_5  and  C_6
REMARK    4  A    between atoms: C_6  and  O_7
REMARK    5  A    between atoms: C_8  and  O_9
REMARK    6  A    between atoms: C_10  and  O_11
REMARK    7  A    between atoms: C_12  and  O_13
REMARK    8  A    between atoms: O_13  and  C_14
REMARK    9  A    between atoms: C_14  and  C_15
REMARK   10  A    between atoms: C_18  and  O_19
REMARK   11  A    between atoms: C_20  and  C_21
REMARK   12  A    between atoms: C_20  and  C_22
REMARK   13  A    between atoms: C_25  and  O_26
REMARK                            x       y       z     vdW  Elec       q    Type
REMARK                         _______ _______ _______ _____ _____    ______ ____
ROOT
ATOM      1  C   UNL     1       0.099  12.706  19.926  0.00  0.00    +0.000 C 
ATOM      2  C   UNL     1       0.965  13.287  21.060  0.00  0.00    +0.000 C 
ATOM      3  C   UNL     1       0.635  14.733  21.274  0.00  0.00    +0.000 C 
ATOM      4  C   UNL     1       0.835  15.595  20.007  0.00  0.00    +0.000 C 
ATOM      5  C   UNL     1       0.680  17.015  20.548  0.00  0.00    +0.000 C 
ATOM      6  C   UNL     1       0.482  18.083  19.522  0.00  0.00    +0.000 C 
ATOM      7  C   UNL     1      -0.433  17.641  18.325  0.00  0.00    +0.000 C 
ATOM      8  C   UNL     1      -0.120  18.629  17.156  0.00  0.00    +0.000 C 
ATOM      9  C   UNL     1      -1.929  17.909  18.635  0.00  0.00    +0.000 C 
ATOM     10  O   UNL     1      -0.286  16.207  17.900  0.00  0.00    +0.000 OA
ATOM     11  C   UNL     1      -0.277  15.203  18.992  0.00  0.00    +0.000 C 
ATOM     12  C   UNL     1       0.049  13.614  18.618  0.00  0.00    +0.000 C 
ENDROOT
BRANCH   1  14
ATOM     13  C   UNL     1       1.076  10.139  19.469  0.00  0.00    +0.000 C 
ATOM     14  C   UNL     1       0.609  11.311  19.801  0.00  0.00    +0.000 C 
BRANCH  13  16
ATOM     15  C   UNL     1       1.956   8.558  17.802  0.00  0.00    +0.000 C 
ATOM     16  C   UNL     1       1.620   8.773  19.082  0.00  0.00    +0.000 C 
ATOM     17  C   UNL     1       1.759   7.740  20.158  0.00  0.00    +0.000 C 
ENDBRANCH  13  16
ENDBRANCH   1  14
BRANCH   1  18
ATOM     18  O   UNL     1      -1.278  12.652  20.382  0.00  0.00    +0.000 OA
ATOM     19  H   UNL     1      -1.671  13.492  20.052  0.00  0.00    +0.000 HD
ENDBRANCH   1  18
BRANCH   2  20
ATOM     20  O   UNL     1       2.373  13.137  20.871  0.00  0.00    +0.000 OA
ATOM     21  H   UNL     1       2.786  14.015  20.863  0.00  0.00    +0.000 HD
ENDBRANCH   2  20
BRANCH   3  22
ATOM     22  O   UNL     1      -0.709  14.880  21.778  0.00  0.00    +0.000 OA
ATOM     23  H   UNL     1      -0.695  14.893  22.762  0.00  0.00    +0.000 HD
ENDBRANCH   3  22
BRANCH   6  24
ATOM     24  O   UNL     1       1.781  18.546  19.142  0.00  0.00    +0.000 OA
ATOM     25  H   UNL     1       2.401  18.460  19.876  0.00  0.00    +0.000 HD
ENDBRANCH   6  24
BRANCH  12  26
ATOM     26  O   UNL     1      -0.943  13.000  17.769  0.00  0.00    +0.000 OA
ATOM     27  H   UNL     1      -0.552  12.808  16.898  0.00  0.00    +0.000 HD
ENDBRANCH  12  26
BRANCH   4  28
ATOM     28  O   UNL     1       2.157  15.420  19.260  0.00  0.00    +0.000 OA
BRANCH  28  29
ATOM     29  C   UNL     1       3.377  15.841  19.748  0.00  0.00    +0.000 C 
ATOM     30  C   UNL     1       4.349  16.393  18.723  0.00  0.00    +0.000 C 
ATOM     31  O   UNL     1       3.681  15.773  20.894  0.00  0.00    +0.000 OA
ENDBRANCH  28  29
ENDBRANCH   4  28
TORSDOF 9
ENDMDL
MODEL 8
REMARK VINA RESULT:      -5.0      2.892      4.868
REMARK  Name = 
REMARK  13 active torsions:
REMARK  status: ('A' for Active; 'I' for Inactive)
REMARK    1  A    between atoms: C_2  and  C_3
REMARK    2  A    between atoms: C_2  and  C_4
REMARK    3  A    between atoms: C_5  and  C_6
REMARK    4  A    between atoms: C_6  and  O_7
REMARK    5  A    between atoms: C_8  and  O_9
REMARK    6  A    between atoms: C_10  and  O_11
REMARK    7  A    between atoms: C_12  and  O_13
REMARK    8  A    between atoms: O_13  and  C_14
REMARK    9  A    between atoms: C_14  and  C_15
REMARK   10  A    between atoms: C_18  and  O_19
REMARK   11  A    between atoms: C_20  and  C_21
REMARK   12  A    between atoms: C_20  and  C_22
REMARK   13  A    between atoms: C_25  and  O_26
REMARK                            x       y       z     vdW  Elec       q    Type
REMARK                         _______ _______ _______ _____ _____    ______ ____
ROOT
ATOM      1  C   UNL     1      -0.296  12.112  19.693  0.00  0.00    +0.000 C 
ATOM      2  C   UNL     1       0.244  12.324  21.120  0.00  0.00    +0.000 C 
ATOM      3  C   UNL     1      -0.241  13.632  21.667  0.00  0.00    +0.000 C 
ATOM      4  C   UNL     1       0.168  14.842  20.799  0.00  0.00    +0.000 C 
ATOM      5  C   UNL     1      -0.217  16.027  21.682  0.00  0.00    +0.000 C 
ATOM      6  C   UNL     1      -0.264  17.356  21.002  0.00  0.00    +0.000 C 
ATOM      7  C   UNL     1      -0.850  17.295  19.546  0.00  0.00    +0.000 C 
ATOM      8  C   UNL     1      -0.363  18.597  18.832  0.00  0.00    +0.000 C 
ATOM      9  C   UNL     1      -2.394  17.444  19.556  0.00  0.00    +0.000 C 
ATOM     10  O   UNL     1      -0.496  16.062  18.763  0.00  0.00    +0.000 OA
ATOM     11  C   UNL     1      -0.652  14.771  19.478  0.00  0.00    +0.000 C 
ATOM     12  C   UNL     1      -0.124  13.376  18.740  0.00  0.00    +0.000 C 
ENDROOT
BRANCH   1  14
ATOM     13  C   UNL     1       1.040   9.742  19.102  0.00  0.00    +0.000 C 
ATOM     14  C   UNL     1       0.339  10.827  19.286  0.00  0.00    +0.000 C 
BRANCH  13  16
ATOM     15  C   UNL     1       2.429   8.281  17.691  0.00  0.00    +0.000 C 
ATOM     16  C   UNL     1       1.857   8.478  18.887  0.00  0.00    +0.000 C 
ATOM     17  C   UNL     1       1.986   7.520  20.032  0.00  0.00    +0.000 C 
ENDBRANCH  13  16
ENDBRANCH   1  14
BRANCH   1  18
ATOM     18  O   UNL     1      -1.731  11.910  19.771  0.00  0.00    +0.000 OA
ATOM     19  H   UNL     1      -1.951  12.122  20.707  0.00  0.00    +0.000 HD
ENDBRANCH   1  18
BRANCH   2  20
ATOM     20  O   UNL     1       1.666  12.250  21.236  0.00  0.00    +0.000 OA
ATOM     21  H   UNL     1       1.903  12.176  22.174  0.00  0.00    +0.000 HD
ENDBRANCH   2  20
BRANCH   3  22
ATOM     22  O   UNL     1      -1.671  13.607  21.857  0.00  0.00    +0.000 OA
ATOM     23  H   UNL     1      -2.014  14.528  21.915  0.00  0.00    +0.000 HD
ENDBRANCH   3  22
BRANCH   6  24
ATOM     24  O   UNL     1       1.045  17.924  21.096  0.00  0.00    +0.000 OA
ATOM     25  H   UNL     1       1.711  17.295  20.794  0.00  0.00    +0.000 HD
ENDBRANCH   6  24
BRANCH  12  26
ATOM     26  O   UNL     1      -0.848  13.044  17.536  0.00  0.00    +0.000 OA
ATOM     27  H   UNL     1      -1.407  13.797  17.274  0.00  0.00    +0.000 HD
ENDBRANCH  12  26
BRANCH   4  28
ATOM     28  O   UNL     1       1.634  14.915  20.370  0.00  0.00    +0.000 OA
BRANCH  28  29
ATOM     29  C   UNL     1       2.678  15.148  21.241  0.00  0.00    +0.000 C 
ATOM     30  C   UNL     1       3.795  16.034  20.720  0.00  0.00    +0.000 C 
ATOM     31  O   UNL     1       2.735  14.684  22.333  0.00  0.00    +0.000 OA
ENDBRANCH  28  29
ENDBRANCH   4  28
TORSDOF 9
ENDMDL
MODEL 9
REMARK VINA RESULT:      -4.9      1.366      1.460
REMARK  Name = 
REMARK  13 active torsions:
REMARK  status: ('A' for Active; 'I' for Inactive)
REMARK    1  A    between atoms: C_2  and  C_3
REMARK    2  A    between atoms: C_2  and  C_4
REMARK    3  A    between atoms: C_5  and  C_6
REMARK    4  A    between atoms: C_6  and  O_7
REMARK    5  A    between atoms: C_8  and  O_9
REMARK    6  A    between atoms: C_10  and  O_11
REMARK    7  A    between atoms: C_12  and  O_13
REMARK    8  A    between atoms: O_13  and  C_14
REMARK    9  A    between atoms: C_14  and  C_15
REMARK   10  A    between atoms: C_18  and  O_19
REMARK   11  A    between atoms: C_20  and  C_21
REMARK   12  A    between atoms: C_20  and  C_22
REMARK   13  A    between atoms: C_25  and  O_26
REMARK                            x       y       z     vdW  Elec       q    Type
REMARK                         _______ _______ _______ _____ _____    ______ ____
ROOT
ATOM      1  C   UNL     1       0.985   9.909  19.932  0.00  0.00    +0.000 C 
ATOM      2  C   UNL     1       0.815  10.856  18.729  0.00  0.00    +0.000 C 
ATOM      3  C   UNL     1       0.255  12.170  19.180  0.00  0.00    +0.000 C 
ATOM      4  C   UNL     1      -1.106  12.035  19.898  0.00  0.00    +0.000 C 
ATOM      5  C   UNL     1      -1.559  13.488  20.022  0.00  0.00    +0.000 C 
ATOM      6  C   UNL     1      -2.685  13.739  20.972  0.00  0.00    +0.000 C 
ATOM      7  C   UNL     1      -2.608  12.872  22.279  0.00  0.00    +0.000 C 
ATOM      8  C   UNL     1      -4.051  12.869  22.879  0.00  0.00    +0.000 C 
ATOM      9  C   UNL     1      -1.763  13.579  23.371  0.00  0.00    +0.000 C 
ATOM     10  O   UNL     1      -2.076  11.479  22.095  0.00  0.00    +0.000 OA
ATOM     11  C   UNL     1      -0.846  11.356  21.274  0.00  0.00    +0.000 C 
ATOM     12  C   UNL     1      -0.290   9.837  20.885  0.00  0.00    +0.000 C 
ENDROOT
BRANCH   1  14
ATOM     13  C   UNL     1       2.097   7.616  18.810  0.00  0.00    +0.000 C 
ATOM     14  C   UNL     1       1.467   8.650  19.298  0.00  0.00    +0.000 C 
BRANCH  13  16
ATOM     15  C   UNL     1       4.090   6.575  17.813  0.00  0.00    +0.000 C 
ATOM     16  C   UNL     1       2.831   6.412  18.242  0.00  0.00    +0.000 C 
ATOM     17  C   UNL     1       2.107   5.101  18.201  0.00  0.00    +0.000 C 
ENDBRANCH  13  16
ENDBRANCH   1  14
BRANCH   1  18
ATOM     18  O   UNL     1       2.041  10.429  20.780  0.00  0.00    +0.000 OA
ATOM     19  H   UNL     1       1.759  11.352  20.973  0.00  0.00    +0.000 HD
ENDBRANCH   1  18
BRANCH   2  20
ATOM     20  O   UNL     1       0.018  10.332  17.665  0.00  0.00    +0.000 OA
ATOM     21  H   UNL     1      -0.915  10.529  17.842  0.00  0.00    +0.000 HD
ENDBRANCH   2  20
BRANCH   3  22
ATOM     22  O   UNL     1       1.200  12.868  20.017  0.00  0.00    +0.000 OA
ATOM     23  H   UNL     1       2.009  13.080  19.499  0.00  0.00    +0.000 HD
ENDBRANCH   3  22
BRANCH   6  24
ATOM     24  O   UNL     1      -3.900  13.597  20.231  0.00  0.00    +0.000 OA
ATOM     25  H   UNL     1      -4.532  14.282  20.479  0.00  0.00    +0.000 HD
ENDBRANCH   6  24
BRANCH  12  26
ATOM     26  O   UNL     1       0.134   9.061  22.026  0.00  0.00    +0.000 OA
ATOM     27  H   UNL     1      -0.608   8.518  22.344  0.00  0.00    +0.000 HD
ENDBRANCH  12  26
BRANCH   4  28
ATOM     28  O   UNL     1      -2.165  11.174  19.207  0.00  0.00    +0.000 OA
BRANCH  28  29
ATOM     29  C   UNL     1      -2.740  11.491  17.994  0.00  0.00    +0.000 C 
ATOM     30  C   UNL     1      -4.241  11.293  17.898  0.00  0.00    +0.000 C 
ATOM     31  O   UNL     1      -2.121  11.883  17.060  0.00  0.00    +0.000 OA
ENDBRANCH  28  29
ENDBRANCH   4  28
TORSDOF 9
ENDMDL
