MODEL 1
REMARK VINA RESULT:      -8.8      0.000      0.000
REMARK  Name = 
REMARK  3 active torsions:
REMARK  status: ('A' for Active; 'I' for Inactive)
REMARK    1  A    between atoms: C_2  and  C_13
REMARK    2  A    between atoms: N_3  and  N_4
REMARK    3  A    between atoms: C_5  and  C_6
REMARK                            x       y       z     vdW  Elec       q    Type
REMARK                         _______ _______ _______ _____ _____    ______ ____
ROOT
ATOM      1  C   UNL     1       5.460   4.601  17.932  0.00  0.00    +0.000 A 
ATOM      2  C   UNL     1       5.160   4.072  16.682  0.00  0.00    +0.000 A 
ATOM      3  C   UNL     1       6.003   4.435  15.628  0.00  0.00    +0.000 A 
ATOM      4  C   UNL     1       7.069   5.290  15.894  0.00  0.00    +0.000 A 
ATOM      5  C   UNL     1       7.297   5.821  17.160  0.00  0.00    +0.000 A 
ATOM      6  N   UNL     1       6.478   5.473  18.184  0.00  0.00    +0.000 NA
ATOM      7  N   UNL     1       7.762   5.442  14.713  0.00  0.00    +0.000 N 
ATOM      8  C   UNL     1       7.162   4.734  13.695  0.00  0.00    +0.000 A 
ATOM      9  C   UNL     1       7.524   4.596  12.349  0.00  0.00    +0.000 A 
ATOM     10  C   UNL     1       6.700   3.813  11.533  0.00  0.00    +0.000 A 
ATOM     11  C   UNL     1       5.561   3.195  12.042  0.00  0.00    +0.000 A 
ATOM     12  C   UNL     1       5.221   3.332  13.393  0.00  0.00    +0.000 A 
ATOM     13  C   UNL     1       6.039   4.111  14.237  0.00  0.00    +0.000 A 
ATOM     14  H   UNL     1       8.603   5.990  14.602  0.00  0.00    +0.000 HD
ENDROOT
BRANCH   1  16
ATOM     15  O   UNL     1       4.852   3.154  19.703  0.00  0.00    +0.000 OA
ATOM     16  C   UNL     1       4.605   4.192  19.090  0.00  0.00    +0.000 C 
ATOM     17  N   UNL     1       3.544   5.038  19.347  0.00  0.00    +0.000 N 
ATOM     18  H   UNL     1       3.432   5.876  18.781  0.00  0.00    +0.000 HD
BRANCH  17  19
ATOM     19  N   UNL     1       2.677   4.750  20.356  0.00  0.00    +0.000 NA
ATOM     20  C   UNL     1       1.904   5.680  20.827  0.00  0.00    +0.000 C 
BRANCH  20  21
ATOM     21  C   UNL     1       1.661   7.049  20.326  0.00  0.00    +0.000 A 
ATOM     22  C   UNL     1       2.044   7.448  19.041  0.00  0.00    +0.000 A 
ATOM     23  C   UNL     1       1.805   8.754  18.614  0.00  0.00    +0.000 A 
ATOM     24  C   UNL     1       1.144   9.647  19.457  0.00  0.00    +0.000 A 
ATOM     25 CL   UNL     1       0.862  11.260  18.934  0.00  0.00    +0.000 Cl
ATOM     26  C   UNL     1       0.704   9.236  20.715  0.00  0.00    +0.000 A 
ATOM     27  C   UNL     1       0.958   7.933  21.151  0.00  0.00    +0.000 A 
ENDBRANCH  20  21
ENDBRANCH  17  19
ENDBRANCH   1  16
TORSDOF 3
ENDMDL
MODEL 2
REMARK VINA RESULT:      -8.7      3.340      8.494
REMARK  Name = 
REMARK  3 active torsions:
REMARK  status: ('A' for Active; 'I' for Inactive)
REMARK    1  A    between atoms: C_2  and  C_13
REMARK    2  A    between atoms: N_3  and  N_4
REMARK    3  A    between atoms: C_5  and  C_6
REMARK                            x       y       z     vdW  Elec       q    Type
REMARK                         _______ _______ _______ _____ _____    ______ ____
ROOT
ATOM      1  C   UNL     1       2.398   7.322  18.971  0.00  0.00    +0.000 A 
ATOM      2  C   UNL     1       1.811   7.662  20.183  0.00  0.00    +0.000 A 
ATOM      3  C   UNL     1       1.091   8.860  20.219  0.00  0.00    +0.000 A 
ATOM      4  C   UNL     1       1.011   9.622  19.056  0.00  0.00    +0.000 A 
ATOM      5  C   UNL     1       1.654   9.250  17.879  0.00  0.00    +0.000 A 
ATOM      6  N   UNL     1       2.357   8.090  17.843  0.00  0.00    +0.000 NA
ATOM      7  N   UNL     1       0.212  10.706  19.345  0.00  0.00    +0.000 N 
ATOM      8  C   UNL     1      -0.202  10.678  20.658  0.00  0.00    +0.000 A 
ATOM      9  C   UNL     1      -1.022  11.561  21.371  0.00  0.00    +0.000 A 
ATOM     10  C   UNL     1      -1.259  11.280  22.721  0.00  0.00    +0.000 A 
ATOM     11  C   UNL     1      -0.698  10.161  23.332  0.00  0.00    +0.000 A 
ATOM     12  C   UNL     1       0.108   9.282  22.602  0.00  0.00    +0.000 A 
ATOM     13  C   UNL     1       0.357   9.540  21.238  0.00  0.00    +0.000 A 
ATOM     14  H   UNL     1      -0.047  11.425  18.685  0.00  0.00    +0.000 HD
ENDROOT
BRANCH   1  16
ATOM     15  O   UNL     1       3.494   5.449  19.914  0.00  0.00    +0.000 OA
ATOM     16  C   UNL     1       3.134   6.022  18.887  0.00  0.00    +0.000 C 
ATOM     17  N   UNL     1       3.388   5.589  17.600  0.00  0.00    +0.000 N 
ATOM     18  H   UNL     1       3.040   6.137  16.816  0.00  0.00    +0.000 HD
BRANCH  17  19
ATOM     19  N   UNL     1       4.081   4.435  17.399  0.00  0.00    +0.000 NA
ATOM     20  C   UNL     1       5.380   4.457  17.384  0.00  0.00    +0.000 C 
BRANCH  20  21
ATOM     21  C   UNL     1       6.308   5.553  17.730  0.00  0.00    +0.000 A 
ATOM     22  C   UNL     1       7.245   5.435  18.762  0.00  0.00    +0.000 A 
ATOM     23  C   UNL     1       8.094   6.501  19.061  0.00  0.00    +0.000 A 
ATOM     24  C   UNL     1       8.033   7.668  18.300  0.00  0.00    +0.000 A 
ATOM     25 CL   UNL     1       9.070   8.985  18.678  0.00  0.00    +0.000 Cl
ATOM     26  C   UNL     1       7.143   7.768  17.230  0.00  0.00    +0.000 A 
ATOM     27  C   UNL     1       6.280   6.708  16.940  0.00  0.00    +0.000 A 
ENDBRANCH  20  21
ENDBRANCH  17  19
ENDBRANCH   1  16
TORSDOF 3
ENDMDL
MODEL 3
REMARK VINA RESULT:      -8.7      0.513      1.094
REMARK  Name = 
REMARK  3 active torsions:
REMARK  status: ('A' for Active; 'I' for Inactive)
REMARK    1  A    between atoms: C_2  and  C_13
REMARK    2  A    between atoms: N_3  and  N_4
REMARK    3  A    between atoms: C_5  and  C_6
REMARK                            x       y       z     vdW  Elec       q    Type
REMARK                         _______ _______ _______ _____ _____    ______ ____
ROOT
ATOM      1  C   UNL     1       4.878   4.548  17.785  0.00  0.00    +0.000 A 
ATOM      2  C   UNL     1       4.767   4.073  16.484  0.00  0.00    +0.000 A 
ATOM      3  C   UNL     1       5.765   4.462  15.587  0.00  0.00    +0.000 A 
ATOM      4  C   UNL     1       6.788   5.287  16.046  0.00  0.00    +0.000 A 
ATOM      5  C   UNL     1       6.825   5.766  17.353  0.00  0.00    +0.000 A 
ATOM      6  N   UNL     1       5.855   5.393  18.225  0.00  0.00    +0.000 NA
ATOM      7  N   UNL     1       7.655   5.472  14.992  0.00  0.00    +0.000 N 
ATOM      8  C   UNL     1       7.210   4.814  13.867  0.00  0.00    +0.000 A 
ATOM      9  C   UNL     1       7.772   4.721  12.587  0.00  0.00    +0.000 A 
ATOM     10  C   UNL     1       7.074   3.984  11.624  0.00  0.00    +0.000 A 
ATOM     11  C   UNL     1       5.863   3.367  11.929  0.00  0.00    +0.000 A 
ATOM     12  C   UNL     1       5.323   3.458  13.216  0.00  0.00    +0.000 A 
ATOM     13  C   UNL     1       6.011   4.190  14.205  0.00  0.00    +0.000 A 
ATOM     14  H   UNL     1       8.509   6.009  15.033  0.00  0.00    +0.000 HD
ENDROOT
BRANCH   1  16
ATOM     15  O   UNL     1       3.344   2.993  18.696  0.00  0.00    +0.000 OA
ATOM     16  C   UNL     1       3.852   4.110  18.782  0.00  0.00    +0.000 C 
ATOM     17  N   UNL     1       3.526   5.065  19.726  0.00  0.00    +0.000 N 
ATOM     18  H   UNL     1       4.010   5.960  19.712  0.00  0.00    +0.000 HD
BRANCH  17  19
ATOM     19  N   UNL     1       2.578   4.793  20.665  0.00  0.00    +0.000 NA
ATOM     20  C   UNL     1       1.763   5.728  21.049  0.00  0.00    +0.000 C 
BRANCH  20  21
ATOM     21  C   UNL     1       1.557   7.083  20.499  0.00  0.00    +0.000 A 
ATOM     22  C   UNL     1       0.937   8.098  21.236  0.00  0.00    +0.000 A 
ATOM     23  C   UNL     1       0.753   9.360  20.670  0.00  0.00    +0.000 A 
ATOM     24  C   UNL     1       1.227   9.618  19.385  0.00  0.00    +0.000 A 
ATOM     25 CL   UNL     1       0.988  11.169  18.685  0.00  0.00    +0.000 Cl
ATOM     26  C   UNL     1       1.902   8.628  18.669  0.00  0.00    +0.000 A 
ATOM     27  C   UNL     1       2.072   7.358  19.227  0.00  0.00    +0.000 A 
ENDBRANCH  20  21
ENDBRANCH  17  19
ENDBRANCH   1  16
TORSDOF 3
ENDMDL
MODEL 4
REMARK VINA RESULT:      -8.5      3.087      8.570
REMARK  Name = 
REMARK  3 active torsions:
REMARK  status: ('A' for Active; 'I' for Inactive)
REMARK    1  A    between atoms: C_2  and  C_13
REMARK    2  A    between atoms: N_3  and  N_4
REMARK    3  A    between atoms: C_5  and  C_6
REMARK                            x       y       z     vdW  Elec       q    Type
REMARK                         _______ _______ _______ _____ _____    ______ ____
ROOT
ATOM      1  C   UNL     1       2.119   7.406  19.517  0.00  0.00    +0.000 A 
ATOM      2  C   UNL     1       1.384   8.215  20.374  0.00  0.00    +0.000 A 
ATOM      3  C   UNL     1       0.981   9.456  19.875  0.00  0.00    +0.000 A 
ATOM      4  C   UNL     1       1.336   9.796  18.572  0.00  0.00    +0.000 A 
ATOM      5  C   UNL     1       2.110   8.960  17.772  0.00  0.00    +0.000 A 
ATOM      6  N   UNL     1       2.506   7.757  18.256  0.00  0.00    +0.000 NA
ATOM      7  N   UNL     1       0.777  11.028  18.315  0.00  0.00    +0.000 N 
ATOM      8  C   UNL     1       0.096  11.499  19.415  0.00  0.00    +0.000 A 
ATOM      9  C   UNL     1      -0.623  12.688  19.598  0.00  0.00    +0.000 A 
ATOM     10  C   UNL     1      -1.205  12.908  20.852  0.00  0.00    +0.000 A 
ATOM     11  C   UNL     1      -1.072  11.977  21.880  0.00  0.00    +0.000 A 
ATOM     12  C   UNL     1      -0.362  10.789  21.676  0.00  0.00    +0.000 A 
ATOM     13  C   UNL     1       0.228  10.542  20.420  0.00  0.00    +0.000 A 
ATOM     14  H   UNL     1       0.844  11.522  17.437  0.00  0.00    +0.000 HD
ENDROOT
BRANCH   1  16
ATOM     15  O   UNL     1       1.851   5.476  20.860  0.00  0.00    +0.000 OA
ATOM     16  C   UNL     1       2.524   6.050  20.005  0.00  0.00    +0.000 C 
ATOM     17  N   UNL     1       3.694   5.568  19.452  0.00  0.00    +0.000 N 
ATOM     18  H   UNL     1       4.173   6.122  18.746  0.00  0.00    +0.000 HD
BRANCH  17  19
ATOM     19  N   UNL     1       4.181   4.359  19.845  0.00  0.00    +0.000 NA
ATOM     20  C   UNL     1       4.899   3.654  19.025  0.00  0.00    +0.000 C 
BRANCH  20  21
ATOM     21  C   UNL     1       5.459   4.022  17.708  0.00  0.00    +0.000 A 
ATOM     22  C   UNL     1       4.696   3.975  16.536  0.00  0.00    +0.000 A 
ATOM     23  C   UNL     1       5.272   4.320  15.313  0.00  0.00    +0.000 A 
ATOM     24  C   UNL     1       6.596   4.753  15.270  0.00  0.00    +0.000 A 
ATOM     25 CL   UNL     1       7.306   5.165  13.760  0.00  0.00    +0.000 Cl
ATOM     26  C   UNL     1       7.343   4.861  16.443  0.00  0.00    +0.000 A 
ATOM     27  C   UNL     1       6.774   4.500  17.667  0.00  0.00    +0.000 A 
ENDBRANCH  20  21
ENDBRANCH  17  19
ENDBRANCH   1  16
TORSDOF 3
ENDMDL
MODEL 5
REMARK VINA RESULT:      -8.5      3.109      8.594
REMARK  Name = 
REMARK  3 active torsions:
REMARK  status: ('A' for Active; 'I' for Inactive)
REMARK    1  A    between atoms: C_2  and  C_13
REMARK    2  A    between atoms: N_3  and  N_4
REMARK    3  A    between atoms: C_5  and  C_6
REMARK                            x       y       z     vdW  Elec       q    Type
REMARK                         _______ _______ _______ _____ _____    ______ ____
ROOT
ATOM      1  C   UNL     1       2.010   7.479  19.523  0.00  0.00    +0.000 A 
ATOM      2  C   UNL     1       1.382   8.334  20.419  0.00  0.00    +0.000 A 
ATOM      3  C   UNL     1       1.037   9.602  19.941  0.00  0.00    +0.000 A 
ATOM      4  C   UNL     1       1.341   9.919  18.620  0.00  0.00    +0.000 A 
ATOM      5  C   UNL     1       2.009   9.034  17.778  0.00  0.00    +0.000 A 
ATOM      6  N   UNL     1       2.348   7.805  18.241  0.00  0.00    +0.000 NA
ATOM      7  N   UNL     1       0.854  11.187  18.393  0.00  0.00    +0.000 N 
ATOM      8  C   UNL     1       0.270  11.702  19.529  0.00  0.00    +0.000 A 
ATOM      9  C   UNL     1      -0.354  12.937  19.750  0.00  0.00    +0.000 A 
ATOM     10  C   UNL     1      -0.848  13.193  21.034  0.00  0.00    +0.000 A 
ATOM     11  C   UNL     1      -0.721  12.253  22.054  0.00  0.00    +0.000 A 
ATOM     12  C   UNL     1      -0.107  11.020  21.813  0.00  0.00    +0.000 A 
ATOM     13  C   UNL     1       0.393  10.736  20.525  0.00  0.00    +0.000 A 
ATOM     14  H   UNL     1       0.906  11.678  17.511  0.00  0.00    +0.000 HD
ENDROOT
BRANCH   1  16
ATOM     15  O   UNL     1       1.520   5.438  20.616  0.00  0.00    +0.000 OA
ATOM     16  C   UNL     1       2.347   6.098  19.989  0.00  0.00    +0.000 C 
ATOM     17  N   UNL     1       3.634   5.691  19.693  0.00  0.00    +0.000 N 
ATOM     18  H   UNL     1       4.239   6.313  19.163  0.00  0.00    +0.000 HD
BRANCH  17  19
ATOM     19  N   UNL     1       4.066   4.465  20.098  0.00  0.00    +0.000 NA
ATOM     20  C   UNL     1       4.789   3.740  19.300  0.00  0.00    +0.000 C 
BRANCH  20  21
ATOM     21  C   UNL     1       5.406   4.092  18.004  0.00  0.00    +0.000 A 
ATOM     22  C   UNL     1       6.694   4.633  17.917  0.00  0.00    +0.000 A 
ATOM     23  C   UNL     1       7.231   4.962  16.672  0.00  0.00    +0.000 A 
ATOM     24  C   UNL     1       6.497   4.711  15.514  0.00  0.00    +0.000 A 
ATOM     25 CL   UNL     1       7.155   5.129  13.983  0.00  0.00    +0.000 Cl
ATOM     26  C   UNL     1       5.237   4.115  15.591  0.00  0.00    +0.000 A 
ATOM     27  C   UNL     1       4.691   3.800  16.838  0.00  0.00    +0.000 A 
ENDBRANCH  20  21
ENDBRANCH  17  19
ENDBRANCH   1  16
TORSDOF 3
ENDMDL
MODEL 6
REMARK VINA RESULT:      -8.4      3.565      5.626
REMARK  Name = 
REMARK  3 active torsions:
REMARK  status: ('A' for Active; 'I' for Inactive)
REMARK    1  A    between atoms: C_2  and  C_13
REMARK    2  A    between atoms: N_3  and  N_4
REMARK    3  A    between atoms: C_5  and  C_6
REMARK                            x       y       z     vdW  Elec       q    Type
REMARK                         _______ _______ _______ _____ _____    ______ ____
ROOT
ATOM      1  C   UNL     1       1.620   7.516  20.537  0.00  0.00    +0.000 A 
ATOM      2  C   UNL     1       2.487   7.617  19.455  0.00  0.00    +0.000 A 
ATOM      3  C   UNL     1       2.899   6.418  18.867  0.00  0.00    +0.000 A 
ATOM      4  C   UNL     1       2.423   5.221  19.394  0.00  0.00    +0.000 A 
ATOM      5  C   UNL     1       1.587   5.179  20.506  0.00  0.00    +0.000 A 
ATOM      6  N   UNL     1       1.189   6.341  21.081  0.00  0.00    +0.000 NA
ATOM      7  N   UNL     1       2.931   4.210  18.608  0.00  0.00    +0.000 N 
ATOM      8  C   UNL     1       3.735   4.717  17.612  0.00  0.00    +0.000 A 
ATOM      9  C   UNL     1       4.441   4.063  16.593  0.00  0.00    +0.000 A 
ATOM     10  C   UNL     1       5.201   4.851  15.722  0.00  0.00    +0.000 A 
ATOM     11  C   UNL     1       5.253   6.236  15.864  0.00  0.00    +0.000 A 
ATOM     12  C   UNL     1       4.531   6.874  16.878  0.00  0.00    +0.000 A 
ATOM     13  C   UNL     1       3.753   6.102  17.766  0.00  0.00    +0.000 A 
ATOM     14  H   UNL     1       2.738   3.226  18.734  0.00  0.00    +0.000 HD
ENDROOT
BRANCH   1  16
ATOM     15  O   UNL     1       1.501   9.110  22.282  0.00  0.00    +0.000 OA
ATOM     16  C   UNL     1       1.122   8.782  21.158  0.00  0.00    +0.000 C 
ATOM     17  N   UNL     1       0.207   9.476  20.390  0.00  0.00    +0.000 N 
ATOM     18  H   UNL     1      -0.036   9.121  19.468  0.00  0.00    +0.000 HD
BRANCH  17  19
ATOM     19  N   UNL     1      -0.342  10.627  20.867  0.00  0.00    +0.000 NA
ATOM     20  C   UNL     1      -1.140  11.322  20.113  0.00  0.00    +0.000 C 
BRANCH  20  21
ATOM     21  C   UNL     1      -1.728  10.985  18.801  0.00  0.00    +0.000 A 
ATOM     22  C   UNL     1      -1.131  10.064  17.933  0.00  0.00    +0.000 A 
ATOM     23  C   UNL     1      -1.716   9.786  16.697  0.00  0.00    +0.000 A 
ATOM     24  C   UNL     1      -2.920  10.397  16.350  0.00  0.00    +0.000 A 
ATOM     25 CL   UNL     1      -3.633  10.062  14.822  0.00  0.00    +0.000 Cl
ATOM     26  C   UNL     1      -3.553  11.268  17.237  0.00  0.00    +0.000 A 
ATOM     27  C   UNL     1      -2.959  11.561  18.468  0.00  0.00    +0.000 A 
ENDBRANCH  20  21
ENDBRANCH  17  19
ENDBRANCH   1  16
TORSDOF 3
ENDMDL
MODEL 7
REMARK VINA RESULT:      -8.2      3.314      8.642
REMARK  Name = 
REMARK  3 active torsions:
REMARK  status: ('A' for Active; 'I' for Inactive)
REMARK    1  A    between atoms: C_2  and  C_13
REMARK    2  A    between atoms: N_3  and  N_4
REMARK    3  A    between atoms: C_5  and  C_6
REMARK                            x       y       z     vdW  Elec       q    Type
REMARK                         _______ _______ _______ _____ _____    ______ ____
ROOT
ATOM      1  C   UNL     1       1.714   6.835  20.170  0.00  0.00    +0.000 A 
ATOM      2  C   UNL     1       0.985   7.523  21.132  0.00  0.00    +0.000 A 
ATOM      3  C   UNL     1       0.705   8.867  20.866  0.00  0.00    +0.000 A 
ATOM      4  C   UNL     1       1.168   9.418  19.674  0.00  0.00    +0.000 A 
ATOM      5  C   UNL     1       1.929   8.690  18.764  0.00  0.00    +0.000 A 
ATOM      6  N   UNL     1       2.206   7.387  19.022  0.00  0.00    +0.000 NA
ATOM      7  N   UNL     1       0.716  10.719  19.635  0.00  0.00    +0.000 N 
ATOM      8  C   UNL     1       0.001  11.026  20.771  0.00  0.00    +0.000 A 
ATOM      9  C   UNL     1      -0.641  12.213  21.148  0.00  0.00    +0.000 A 
ATOM     10  C   UNL     1      -1.285  12.237  22.389  0.00  0.00    +0.000 A 
ATOM     11  C   UNL     1      -1.286  11.120  23.221  0.00  0.00    +0.000 A 
ATOM     12  C   UNL     1      -0.651   9.938  22.824  0.00  0.00    +0.000 A 
ATOM     13  C   UNL     1      -0.000   9.887  21.574  0.00  0.00    +0.000 A 
ATOM     14  H   UNL     1       0.875  11.364  18.875  0.00  0.00    +0.000 HD
ENDROOT
BRANCH   1  16
ATOM     15  O   UNL     1       2.545   5.017  21.437  0.00  0.00    +0.000 OA
ATOM     16  C   UNL     1       1.988   5.382  20.403  0.00  0.00    +0.000 C 
ATOM     17  N   UNL     1       1.608   4.554  19.365  0.00  0.00    +0.000 N 
ATOM     18  H   UNL     1       1.148   4.958  18.552  0.00  0.00    +0.000 HD
BRANCH  17  19
ATOM     19  N   UNL     1       1.839   3.215  19.448  0.00  0.00    +0.000 NA
ATOM     20  C   UNL     1       2.844   2.693  18.813  0.00  0.00    +0.000 C 
BRANCH  20  21
ATOM     21  C   UNL     1       3.955   3.355  18.099  0.00  0.00    +0.000 A 
ATOM     22  C   UNL     1       3.932   3.559  16.715  0.00  0.00    +0.000 A 
ATOM     23  C   UNL     1       5.010   4.179  16.082  0.00  0.00    +0.000 A 
ATOM     24  C   UNL     1       6.089   4.632  16.839  0.00  0.00    +0.000 A 
ATOM     25 CL   UNL     1       7.421   5.383  16.055  0.00  0.00    +0.000 Cl
ATOM     26  C   UNL     1       6.090   4.486  18.226  0.00  0.00    +0.000 A 
ATOM     27  C   UNL     1       5.019   3.851  18.861  0.00  0.00    +0.000 A 
ENDBRANCH  20  21
ENDBRANCH  17  19
ENDBRANCH   1  16
TORSDOF 3
ENDMDL
MODEL 8
REMARK VINA RESULT:      -8.2      6.039      9.526
REMARK  Name = 
REMARK  3 active torsions:
REMARK  status: ('A' for Active; 'I' for Inactive)
REMARK    1  A    between atoms: C_2  and  C_13
REMARK    2  A    between atoms: N_3  and  N_4
REMARK    3  A    between atoms: C_5  and  C_6
REMARK                            x       y       z     vdW  Elec       q    Type
REMARK                         _______ _______ _______ _____ _____    ______ ____
ROOT
ATOM      1  C   UNL     1      -0.640  11.475  22.253  0.00  0.00    +0.000 A 
ATOM      2  C   UNL     1      -0.090  11.186  21.010  0.00  0.00    +0.000 A 
ATOM      3  C   UNL     1       0.566   9.958  20.884  0.00  0.00    +0.000 A 
ATOM      4  C   UNL     1       0.624   9.118  21.993  0.00  0.00    +0.000 A 
ATOM      5  C   UNL     1       0.089   9.479  23.226  0.00  0.00    +0.000 A 
ATOM      6  N   UNL     1      -0.544  10.672  23.353  0.00  0.00    +0.000 NA
ATOM      7  N   UNL     1       1.267   7.970  21.589  0.00  0.00    +0.000 N 
ATOM      8  C   UNL     1       1.643   8.054  20.267  0.00  0.00    +0.000 A 
ATOM      9  C   UNL     1       2.305   7.128  19.450  0.00  0.00    +0.000 A 
ATOM     10  C   UNL     1       2.573   7.503  18.129  0.00  0.00    +0.000 A 
ATOM     11  C   UNL     1       2.196   8.754  17.646  0.00  0.00    +0.000 A 
ATOM     12  C   UNL     1       1.524   9.662  18.471  0.00  0.00    +0.000 A 
ATOM     13  C   UNL     1       1.237   9.304  19.805  0.00  0.00    +0.000 A 
ATOM     14  H   UNL     1       1.436   7.164  22.175  0.00  0.00    +0.000 HD
ENDROOT
BRANCH   1  16
ATOM     15  O   UNL     1      -0.962  13.791  21.890  0.00  0.00    +0.000 OA
ATOM     16  C   UNL     1      -1.391  12.760  22.407  0.00  0.00    +0.000 C 
ATOM     17  N   UNL     1      -2.527  12.671  23.188  0.00  0.00    +0.000 N 
ATOM     18  H   UNL     1      -2.797  11.765  23.565  0.00  0.00    +0.000 HD
BRANCH  17  19
ATOM     19  N   UNL     1      -3.273  13.783  23.427  0.00  0.00    +0.000 NA
ATOM     20  C   UNL     1      -4.306  14.040  22.684  0.00  0.00    +0.000 C 
BRANCH  20  21
ATOM     21  C   UNL     1      -4.960  13.203  21.658  0.00  0.00    +0.000 A 
ATOM     22  C   UNL     1      -6.172  12.546  21.896  0.00  0.00    +0.000 A 
ATOM     23  C   UNL     1      -6.747  11.756  20.900  0.00  0.00    +0.000 A 
ATOM     24  C   UNL     1      -6.131  11.659  19.653  0.00  0.00    +0.000 A 
ATOM     25 CL   UNL     1      -6.834  10.675  18.432  0.00  0.00    +0.000 Cl
ATOM     26  C   UNL     1      -4.955  12.362  19.389  0.00  0.00    +0.000 A 
ATOM     27  C   UNL     1      -4.369  13.140  20.391  0.00  0.00    +0.000 A 
ENDBRANCH  20  21
ENDBRANCH  17  19
ENDBRANCH   1  16
TORSDOF 3
ENDMDL
MODEL 9
REMARK VINA RESULT:      -8.1      4.634      6.890
REMARK  Name = 
REMARK  3 active torsions:
REMARK  status: ('A' for Active; 'I' for Inactive)
REMARK    1  A    between atoms: C_2  and  C_13
REMARK    2  A    between atoms: N_3  and  N_4
REMARK    3  A    between atoms: C_5  and  C_6
REMARK                            x       y       z     vdW  Elec       q    Type
REMARK                         _______ _______ _______ _____ _____    ______ ____
ROOT
ATOM      1  C   UNL     1       1.369   8.539  19.841  0.00  0.00    +0.000 A 
ATOM      2  C   UNL     1       1.474   7.315  20.490  0.00  0.00    +0.000 A 
ATOM      3  C   UNL     1       2.233   6.329  19.853  0.00  0.00    +0.000 A 
ATOM      4  C   UNL     1       2.825   6.633  18.630  0.00  0.00    +0.000 A 
ATOM      5  C   UNL     1       2.653   7.866  18.007  0.00  0.00    +0.000 A 
ATOM      6  N   UNL     1       1.913   8.823  18.621  0.00  0.00    +0.000 NA
ATOM      7  N   UNL     1       3.549   5.524  18.252  0.00  0.00    +0.000 N 
ATOM      8  C   UNL     1       3.421   4.513  19.178  0.00  0.00    +0.000 A 
ATOM      9  C   UNL     1       3.983   3.229  19.205  0.00  0.00    +0.000 A 
ATOM     10  C   UNL     1       3.655   2.401  20.283  0.00  0.00    +0.000 A 
ATOM     11  C   UNL     1       2.799   2.837  21.292  0.00  0.00    +0.000 A 
ATOM     12  C   UNL     1       2.258   4.126  21.257  0.00  0.00    +0.000 A 
ATOM     13  C   UNL     1       2.579   4.983  20.183  0.00  0.00    +0.000 A 
ATOM     14  H   UNL     1       4.109   5.457  17.414  0.00  0.00    +0.000 HD
ENDROOT
BRANCH   1  16
ATOM     15  O   UNL     1       0.816   9.889  21.704  0.00  0.00    +0.000 OA
ATOM     16  C   UNL     1       0.604   9.631  20.520  0.00  0.00    +0.000 C 
ATOM     17  N   UNL     1      -0.343  10.247  19.725  0.00  0.00    +0.000 N 
ATOM     18  H   UNL     1      -0.435   9.961  18.753  0.00  0.00    +0.000 HD
BRANCH  17  19
ATOM     19  N   UNL     1      -1.125  11.232  20.245  0.00  0.00    +0.000 NA
ATOM     20  C   UNL     1      -2.078  11.746  19.527  0.00  0.00    +0.000 C 
BRANCH  20  21
ATOM     21  C   UNL     1      -2.608  11.316  18.217  0.00  0.00    +0.000 A 
ATOM     22  C   UNL     1      -3.842  11.761  17.732  0.00  0.00    +0.000 A 
ATOM     23  C   UNL     1      -4.308  11.318  16.494  0.00  0.00    +0.000 A 
ATOM     24  C   UNL     1      -3.520  10.463  15.724  0.00  0.00    +0.000 A 
ATOM     25 CL   UNL     1      -4.102   9.908  14.205  0.00  0.00    +0.000 Cl
ATOM     26  C   UNL     1      -2.262  10.065  16.175  0.00  0.00    +0.000 A 
ATOM     27  C   UNL     1      -1.801  10.494  17.422  0.00  0.00    +0.000 A 
ENDBRANCH  20  21
ENDBRANCH  17  19
ENDBRANCH   1  16
TORSDOF 3
ENDMDL
