MODEL 1
REMARK VINA RESULT:      -7.6      0.000      0.000
REMARK  Name = 
REMARK  1 active torsions:
REMARK  status: ('A' for Active; 'I' for Inactive)
REMARK    1  A    between atoms: C_2  and  C_3
REMARK                            x       y       z     vdW  Elec       q    Type
REMARK                         _______ _______ _______ _____ _____    ______ ____
ROOT
ATOM      1  C   UNL     1       5.321   5.925  17.147  0.00  0.00    +0.000 A 
ATOM      2  N   UNL     1       4.334   6.875  17.193  0.00  0.00    +0.000 N 
ATOM      3  N   UNL     1       3.327   6.600  18.042  0.00  0.00    +0.000 NA
ATOM      4  C   UNL     1       3.663   5.404  18.533  0.00  0.00    +0.000 A 
ATOM      5  C   UNL     1       4.886   4.945  18.020  0.00  0.00    +0.000 A 
ATOM      6  C   UNL     1       5.405   3.613  18.407  0.00  0.00    +0.000 C 
ATOM      7  O   UNL     1       4.882   3.119  19.672  0.00  0.00    +0.000 OA
ATOM      8  C   UNL     1       3.584   3.465  19.988  0.00  0.00    +0.000 A 
ATOM      9  C   UNL     1       2.935   2.656  20.920  0.00  0.00    +0.000 A 
ATOM     10  C   UNL     1       1.616   2.939  21.288  0.00  0.00    +0.000 A 
ATOM     11  C   UNL     1       0.951   4.039  20.740  0.00  0.00    +0.000 A 
ATOM     12  C   UNL     1       1.606   4.874  19.834  0.00  0.00    +0.000 A 
ATOM     13  C   UNL     1       2.922   4.591  19.465  0.00  0.00    +0.000 A 
ATOM     14  H   UNL     1       4.271   7.720  16.636  0.00  0.00    +0.000 HD
ENDROOT
BRANCH   1  16
ATOM     15  O   UNL     1       7.351   6.762  16.379  0.00  0.00    +0.000 OA
ATOM     16  C   UNL     1       6.450   5.934  16.254  0.00  0.00    +0.000 C 
ATOM     17  N   UNL     1       6.491   4.953  15.267  0.00  0.00    +0.000 N 
ATOM     18  C   UNL     1       7.674   4.808  14.431  0.00  0.00    +0.000 C 
ATOM     19  C   UNL     1       7.123   4.658  13.022  0.00  0.00    +0.000 C 
ATOM     20  C   UNL     1       5.827   3.893  13.249  0.00  0.00    +0.000 C 
ATOM     21  C   UNL     1       5.310   4.449  14.571  0.00  0.00    +0.000 C 
ENDBRANCH   1  16
TORSDOF 1
ENDMDL
MODEL 2
REMARK VINA RESULT:      -7.5      1.719      2.026
REMARK  Name = 
REMARK  1 active torsions:
REMARK  status: ('A' for Active; 'I' for Inactive)
REMARK    1  A    between atoms: C_2  and  C_3
REMARK                            x       y       z     vdW  Elec       q    Type
REMARK                         _______ _______ _______ _____ _____    ______ ____
ROOT
ATOM      1  C   UNL     1       6.151   4.672  17.413  0.00  0.00    +0.000 A 
ATOM      2  N   UNL     1       6.763   4.204  18.546  0.00  0.00    +0.000 N 
ATOM      3  N   UNL     1       5.923   3.734  19.486  0.00  0.00    +0.000 NA
ATOM      4  C   UNL     1       4.719   3.944  18.948  0.00  0.00    +0.000 A 
ATOM      5  C   UNL     1       4.802   4.514  17.668  0.00  0.00    +0.000 A 
ATOM      6  C   UNL     1       3.570   4.869  16.928  0.00  0.00    +0.000 C 
ATOM      7  O   UNL     1       2.391   4.129  17.352  0.00  0.00    +0.000 OA
ATOM      8  C   UNL     1       2.313   3.792  18.687  0.00  0.00    +0.000 A 
ATOM      9  C   UNL     1       1.040   3.511  19.184  0.00  0.00    +0.000 A 
ATOM     10  C   UNL     1       0.878   3.166  20.529  0.00  0.00    +0.000 A 
ATOM     11  C   UNL     1       1.987   3.084  21.375  0.00  0.00    +0.000 A 
ATOM     12  C   UNL     1       3.267   3.328  20.877  0.00  0.00    +0.000 A 
ATOM     13  C   UNL     1       3.430   3.674  19.534  0.00  0.00    +0.000 A 
ATOM     14  H   UNL     1       7.755   4.215  18.756  0.00  0.00    +0.000 HD
ENDROOT
BRANCH   1  16
ATOM     15  O   UNL     1       7.264   6.453  16.411  0.00  0.00    +0.000 OA
ATOM     16  C   UNL     1       6.815   5.312  16.307  0.00  0.00    +0.000 C 
ATOM     17  N   UNL     1       6.953   4.577  15.133  0.00  0.00    +0.000 N 
ATOM     18  C   UNL     1       7.747   5.102  14.032  0.00  0.00    +0.000 C 
ATOM     19  C   UNL     1       6.894   4.852  12.799  0.00  0.00    +0.000 C 
ATOM     20  C   UNL     1       6.198   3.541  13.135  0.00  0.00    +0.000 C 
ATOM     21  C   UNL     1       5.947   3.642  14.635  0.00  0.00    +0.000 C 
ENDBRANCH   1  16
TORSDOF 1
ENDMDL
MODEL 3
REMARK VINA RESULT:      -7.5      3.446      4.816
REMARK  Name = 
REMARK  1 active torsions:
REMARK  status: ('A' for Active; 'I' for Inactive)
REMARK    1  A    between atoms: C_2  and  C_3
REMARK                            x       y       z     vdW  Elec       q    Type
REMARK                         _______ _______ _______ _____ _____    ______ ____
ROOT
ATOM      1  C   UNL     1       3.261   5.465  18.706  0.00  0.00    +0.000 A 
ATOM      2  N   UNL     1       2.820   4.927  19.888  0.00  0.00    +0.000 N 
ATOM      3  N   UNL     1       2.067   5.754  20.636  0.00  0.00    +0.000 NA
ATOM      4  C   UNL     1       2.057   6.882  19.922  0.00  0.00    +0.000 A 
ATOM      5  C   UNL     1       2.771   6.757  18.721  0.00  0.00    +0.000 A 
ATOM      6  C   UNL     1       2.918   7.919  17.815  0.00  0.00    +0.000 C 
ATOM      7  O   UNL     1       1.885   8.931  17.979  0.00  0.00    +0.000 OA
ATOM      8  C   UNL     1       1.390   9.116  19.253  0.00  0.00    +0.000 A 
ATOM      9  C   UNL     1       0.772  10.340  19.507  0.00  0.00    +0.000 A 
ATOM     10  C   UNL     1       0.249  10.606  20.777  0.00  0.00    +0.000 A 
ATOM     11  C   UNL     1       0.327   9.644  21.787  0.00  0.00    +0.000 A 
ATOM     12  C   UNL     1       0.912   8.404  21.529  0.00  0.00    +0.000 A 
ATOM     13  C   UNL     1       1.435   8.138  20.263  0.00  0.00    +0.000 A 
ATOM     14  H   UNL     1       3.032   4.008  20.260  0.00  0.00    +0.000 HD
ENDROOT
BRANCH   1  16
ATOM     15  O   UNL     1       3.762   3.936  17.026  0.00  0.00    +0.000 OA
ATOM     16  C   UNL     1       4.157   4.824  17.779  0.00  0.00    +0.000 C 
ATOM     17  N   UNL     1       5.475   5.273  17.752  0.00  0.00    +0.000 N 
ATOM     18  C   UNL     1       6.393   4.780  16.736  0.00  0.00    +0.000 C 
ATOM     19  C   UNL     1       7.667   4.462  17.502  0.00  0.00    +0.000 C 
ATOM     20  C   UNL     1       7.684   5.532  18.583  0.00  0.00    +0.000 C 
ATOM     21  C   UNL     1       6.211   5.708  18.936  0.00  0.00    +0.000 C 
ENDBRANCH   1  16
TORSDOF 1
ENDMDL
MODEL 4
REMARK VINA RESULT:      -7.4      1.952      2.545
REMARK  Name = 
REMARK  1 active torsions:
REMARK  status: ('A' for Active; 'I' for Inactive)
REMARK    1  A    between atoms: C_2  and  C_3
REMARK                            x       y       z     vdW  Elec       q    Type
REMARK                         _______ _______ _______ _____ _____    ______ ____
ROOT
ATOM      1  C   UNL     1       5.625   4.648  16.265  0.00  0.00    +0.000 A 
ATOM      2  N   UNL     1       5.342   3.388  16.726  0.00  0.00    +0.000 N 
ATOM      3  N   UNL     1       4.436   3.344  17.719  0.00  0.00    +0.000 NA
ATOM      4  C   UNL     1       4.153   4.632  17.930  0.00  0.00    +0.000 A 
ATOM      5  C   UNL     1       4.853   5.478  17.056  0.00  0.00    +0.000 A 
ATOM      6  C   UNL     1       4.711   6.948  17.167  0.00  0.00    +0.000 C 
ATOM      7  O   UNL     1       3.478   7.377  17.810  0.00  0.00    +0.000 OA
ATOM      8  C   UNL     1       2.980   6.564  18.807  0.00  0.00    +0.000 A 
ATOM      9  C   UNL     1       2.104   7.161  19.714  0.00  0.00    +0.000 A 
ATOM     10  C   UNL     1       1.560   6.405  20.757  0.00  0.00    +0.000 A 
ATOM     11  C   UNL     1       1.877   5.050  20.885  0.00  0.00    +0.000 A 
ATOM     12  C   UNL     1       2.724   4.438  19.961  0.00  0.00    +0.000 A 
ATOM     13  C   UNL     1       3.268   5.192  18.920  0.00  0.00    +0.000 A 
ATOM     14  H   UNL     1       5.767   2.517  16.429  0.00  0.00    +0.000 HD
ENDROOT
BRANCH   1  16
ATOM     15  O   UNL     1       7.431   5.882  15.472  0.00  0.00    +0.000 OA
ATOM     16  C   UNL     1       6.624   4.973  15.281  0.00  0.00    +0.000 C 
ATOM     17  N   UNL     1       6.656   4.199  14.124  0.00  0.00    +0.000 N 
ATOM     18  C   UNL     1       7.734   4.370  13.161  0.00  0.00    +0.000 C 
ATOM     19  C   UNL     1       7.033   4.400  11.812  0.00  0.00    +0.000 C 
ATOM     20  C   UNL     1       5.874   3.435  12.016  0.00  0.00    +0.000 C 
ATOM     21  C   UNL     1       5.465   3.669  13.466  0.00  0.00    +0.000 C 
ENDBRANCH   1  16
TORSDOF 1
ENDMDL
MODEL 5
REMARK VINA RESULT:      -7.2      3.673      5.391
REMARK  Name = 
REMARK  1 active torsions:
REMARK  status: ('A' for Active; 'I' for Inactive)
REMARK    1  A    between atoms: C_2  and  C_3
REMARK                            x       y       z     vdW  Elec       q    Type
REMARK                         _______ _______ _______ _____ _____    ______ ____
ROOT
ATOM      1  C   UNL     1       3.543   6.331  18.775  0.00  0.00    +0.000 A 
ATOM      2  N   UNL     1       3.702   7.031  17.608  0.00  0.00    +0.000 N 
ATOM      3  N   UNL     1       2.940   8.136  17.506  0.00  0.00    +0.000 NA
ATOM      4  C   UNL     1       2.235   8.121  18.640  0.00  0.00    +0.000 A 
ATOM      5  C   UNL     1       2.572   7.034  19.461  0.00  0.00    +0.000 A 
ATOM      6  C   UNL     1       1.861   6.817  20.742  0.00  0.00    +0.000 C 
ATOM      7  O   UNL     1       1.250   8.019  21.290  0.00  0.00    +0.000 OA
ATOM      8  C   UNL     1       0.763   8.940  20.386  0.00  0.00    +0.000 A 
ATOM      9  C   UNL     1      -0.199   9.830  20.862  0.00  0.00    +0.000 A 
ATOM     10  C   UNL     1      -0.745  10.789  20.005  0.00  0.00    +0.000 A 
ATOM     11  C   UNL     1      -0.319  10.873  18.677  0.00  0.00    +0.000 A 
ATOM     12  C   UNL     1       0.669  10.009  18.203  0.00  0.00    +0.000 A 
ATOM     13  C   UNL     1       1.214   9.050  19.058  0.00  0.00    +0.000 A 
ATOM     14  H   UNL     1       4.290   6.784  16.819  0.00  0.00    +0.000 HD
ENDROOT
BRANCH   1  16
ATOM     15  O   UNL     1       5.344   5.012  19.430  0.00  0.00    +0.000 OA
ATOM     16  C   UNL     1       4.166   5.070  19.084  0.00  0.00    +0.000 C 
ATOM     17  N   UNL     1       3.371   3.929  19.003  0.00  0.00    +0.000 N 
ATOM     18  C   UNL     1       3.890   2.645  19.450  0.00  0.00    +0.000 C 
ATOM     19  C   UNL     1       3.489   1.674  18.352  0.00  0.00    +0.000 C 
ATOM     20  C   UNL     1       2.148   2.225  17.890  0.00  0.00    +0.000 C 
ATOM     21  C   UNL     1       2.324   3.735  18.003  0.00  0.00    +0.000 C 
ENDBRANCH   1  16
TORSDOF 1
ENDMDL
MODEL 6
REMARK VINA RESULT:      -7.1      1.867      2.253
REMARK  Name = 
REMARK  1 active torsions:
REMARK  status: ('A' for Active; 'I' for Inactive)
REMARK    1  A    between atoms: C_2  and  C_3
REMARK                            x       y       z     vdW  Elec       q    Type
REMARK                         _______ _______ _______ _____ _____    ______ ____
ROOT
ATOM      1  C   UNL     1       5.422   4.404  16.268  0.00  0.00    +0.000 A 
ATOM      2  N   UNL     1       5.397   3.037  16.366  0.00  0.00    +0.000 N 
ATOM      3  N   UNL     1       4.515   2.553  17.260  0.00  0.00    +0.000 NA
ATOM      4  C   UNL     1       3.979   3.658  17.785  0.00  0.00    +0.000 A 
ATOM      5  C   UNL     1       4.497   4.826  17.205  0.00  0.00    +0.000 A 
ATOM      6  C   UNL     1       4.062   6.156  17.690  0.00  0.00    +0.000 C 
ATOM      7  O   UNL     1       2.766   6.150  18.351  0.00  0.00    +0.000 OA
ATOM      8  C   UNL     1       2.438   5.019  19.071  0.00  0.00    +0.000 A 
ATOM      9  C   UNL     1       1.457   5.169  20.051  0.00  0.00    +0.000 A 
ATOM     10  C   UNL     1       1.074   4.071  20.826  0.00  0.00    +0.000 A 
ATOM     11  C   UNL     1       1.656   2.819  20.612  0.00  0.00    +0.000 A 
ATOM     12  C   UNL     1       2.612   2.653  19.609  0.00  0.00    +0.000 A 
ATOM     13  C   UNL     1       2.996   3.750  18.835  0.00  0.00    +0.000 A 
ATOM     14  H   UNL     1       5.989   2.377  15.875  0.00  0.00    +0.000 HD
ENDROOT
BRANCH   1  16
ATOM     15  O   UNL     1       6.693   6.296  15.802  0.00  0.00    +0.000 OA
ATOM     16  C   UNL     1       6.338   5.168  15.463  0.00  0.00    +0.000 C 
ATOM     17  N   UNL     1       6.826   4.567  14.306  0.00  0.00    +0.000 N 
ATOM     18  C   UNL     1       7.871   5.217  13.529  0.00  0.00    +0.000 C 
ATOM     19  C   UNL     1       7.403   5.091  12.088  0.00  0.00    +0.000 C 
ATOM     20  C   UNL     1       6.696   3.743  12.083  0.00  0.00    +0.000 C 
ATOM     21  C   UNL     1       6.036   3.679  13.455  0.00  0.00    +0.000 C 
ENDBRANCH   1  16
TORSDOF 1
ENDMDL
MODEL 7
REMARK VINA RESULT:      -7.1      4.377      6.200
REMARK  Name = 
REMARK  1 active torsions:
REMARK  status: ('A' for Active; 'I' for Inactive)
REMARK    1  A    between atoms: C_2  and  C_3
REMARK                            x       y       z     vdW  Elec       q    Type
REMARK                         _______ _______ _______ _____ _____    ______ ____
ROOT
ATOM      1  C   UNL     1       2.492   6.497  19.623  0.00  0.00    +0.000 A 
ATOM      2  N   UNL     1       1.945   6.490  20.880  0.00  0.00    +0.000 N 
ATOM      3  N   UNL     1       1.296   7.620  21.217  0.00  0.00    +0.000 NA
ATOM      4  C   UNL     1       1.467   8.398  20.146  0.00  0.00    +0.000 A 
ATOM      5  C   UNL     1       2.191   7.753  19.131  0.00  0.00    +0.000 A 
ATOM      6  C   UNL     1       2.527   8.472  17.881  0.00  0.00    +0.000 C 
ATOM      7  O   UNL     1       1.645   9.591  17.586  0.00  0.00    +0.000 OA
ATOM      8  C   UNL     1       1.144  10.291  18.664  0.00  0.00    +0.000 A 
ATOM      9  C   UNL     1       0.700  11.588  18.410  0.00  0.00    +0.000 A 
ATOM     10  C   UNL     1       0.184  12.365  19.452  0.00  0.00    +0.000 A 
ATOM     11  C   UNL     1       0.096  11.841  20.744  0.00  0.00    +0.000 A 
ATOM     12  C   UNL     1       0.505  10.532  20.999  0.00  0.00    +0.000 A 
ATOM     13  C   UNL     1       1.021   9.756  19.960  0.00  0.00    +0.000 A 
ATOM     14  H   UNL     1       2.014   5.755  21.575  0.00  0.00    +0.000 HD
ENDROOT
BRANCH   1  16
ATOM     15  O   UNL     1       4.419   5.707  18.586  0.00  0.00    +0.000 OA
ATOM     16  C   UNL     1       3.314   5.455  19.064  0.00  0.00    +0.000 C 
ATOM     17  N   UNL     1       2.818   4.155  19.113  0.00  0.00    +0.000 N 
ATOM     18  C   UNL     1       3.659   3.038  18.710  0.00  0.00    +0.000 C 
ATOM     19  C   UNL     1       2.755   2.184  17.835  0.00  0.00    +0.000 C 
ATOM     20  C   UNL     1       1.391   2.364  18.487  0.00  0.00    +0.000 C 
ATOM     21  C   UNL     1       1.407   3.815  18.953  0.00  0.00    +0.000 C 
ENDBRANCH   1  16
TORSDOF 1
ENDMDL
MODEL 8
REMARK VINA RESULT:      -7.0      5.239      7.576
REMARK  Name = 
REMARK  1 active torsions:
REMARK  status: ('A' for Active; 'I' for Inactive)
REMARK    1  A    between atoms: C_2  and  C_3
REMARK                            x       y       z     vdW  Elec       q    Type
REMARK                         _______ _______ _______ _____ _____    ______ ____
ROOT
ATOM      1  C   UNL     1       1.101  10.006  19.050  0.00  0.00    +0.000 A 
ATOM      2  N   UNL     1       1.596  10.057  17.773  0.00  0.00    +0.000 N 
ATOM      3  N   UNL     1       2.251   8.950  17.379  0.00  0.00    +0.000 NA
ATOM      4  C   UNL     1       2.208   8.171  18.463  0.00  0.00    +0.000 A 
ATOM      5  C   UNL     1       1.505   8.771  19.519  0.00  0.00    +0.000 A 
ATOM      6  C   UNL     1       1.392   8.083  20.826  0.00  0.00    +0.000 C 
ATOM      7  O   UNL     1       1.558   6.639  20.751  0.00  0.00    +0.000 OA
ATOM      8  C   UNL     1       2.437   6.161  19.801  0.00  0.00    +0.000 A 
ATOM      9  C   UNL     1       2.944   4.880  20.013  0.00  0.00    +0.000 A 
ATOM     10  C   UNL     1       3.844   4.327  19.097  0.00  0.00    +0.000 A 
ATOM     11  C   UNL     1       4.225   5.045  17.961  0.00  0.00    +0.000 A 
ATOM     12  C   UNL     1       3.694   6.313  17.723  0.00  0.00    +0.000 A 
ATOM     13  C   UNL     1       2.796   6.867  18.638  0.00  0.00    +0.000 A 
ATOM     14  H   UNL     1       1.552  10.839  17.129  0.00  0.00    +0.000 HD
ENDROOT
BRANCH   1  16
ATOM     15  O   UNL     1       0.926  11.563  20.770  0.00  0.00    +0.000 OA
ATOM     16  C   UNL     1       0.451  11.091  19.739  0.00  0.00    +0.000 C 
ATOM     17  N   UNL     1      -0.715  11.599  19.172  0.00  0.00    +0.000 N 
ATOM     18  C   UNL     1      -1.337  12.791  19.727  0.00  0.00    +0.000 C 
ATOM     19  C   UNL     1      -2.817  12.449  19.793  0.00  0.00    +0.000 C 
ATOM     20  C   UNL     1      -3.011  11.568  18.567  0.00  0.00    +0.000 C 
ATOM     21  C   UNL     1      -1.709  10.779  18.484  0.00  0.00    +0.000 C 
ENDBRANCH   1  16
TORSDOF 1
ENDMDL
MODEL 9
REMARK VINA RESULT:      -6.8      1.232      1.580
REMARK  Name = 
REMARK  1 active torsions:
REMARK  status: ('A' for Active; 'I' for Inactive)
REMARK    1  A    between atoms: C_2  and  C_3
REMARK                            x       y       z     vdW  Elec       q    Type
REMARK                         _______ _______ _______ _____ _____    ______ ____
ROOT
ATOM      1  C   UNL     1       5.817   5.560  15.870  0.00  0.00    +0.000 A 
ATOM      2  N   UNL     1       5.340   6.841  15.966  0.00  0.00    +0.000 N 
ATOM      3  N   UNL     1       4.473   7.044  16.974  0.00  0.00    +0.000 NA
ATOM      4  C   UNL     1       4.360   5.833  17.525  0.00  0.00    +0.000 A 
ATOM      5  C   UNL     1       5.172   4.883  16.887  0.00  0.00    +0.000 A 
ATOM      6  C   UNL     1       5.147   3.467  17.321  0.00  0.00    +0.000 C 
ATOM      7  O   UNL     1       4.691   3.276  18.690  0.00  0.00    +0.000 OA
ATOM      8  C   UNL     1       3.731   4.151  19.156  0.00  0.00    +0.000 A 
ATOM      9  C   UNL     1       2.975   3.721  20.246  0.00  0.00    +0.000 A 
ATOM     10  C   UNL     1       1.979   4.549  20.772  0.00  0.00    +0.000 A 
ATOM     11  C   UNL     1       1.749   5.813  20.223  0.00  0.00    +0.000 A 
ATOM     12  C   UNL     1       2.526   6.265  19.156  0.00  0.00    +0.000 A 
ATOM     13  C   UNL     1       3.520   5.438  18.628  0.00  0.00    +0.000 A 
ATOM     14  H   UNL     1       5.539   7.618  15.345  0.00  0.00    +0.000 HD
ENDROOT
BRANCH   1  16
ATOM     15  O   UNL     1       7.838   5.450  14.723  0.00  0.00    +0.000 OA
ATOM     16  C   UNL     1       6.675   5.064  14.825  0.00  0.00    +0.000 C 
ATOM     17  N   UNL     1       6.143   4.112  13.960  0.00  0.00    +0.000 N 
ATOM     18  C   UNL     1       6.997   3.455  12.983  0.00  0.00    +0.000 C 
ATOM     19  C   UNL     1       6.189   3.485  11.695  0.00  0.00    +0.000 C 
ATOM     20  C   UNL     1       4.759   3.335  12.194  0.00  0.00    +0.000 C 
ATOM     21  C   UNL     1       4.754   4.111  13.506  0.00  0.00    +0.000 C 
ENDBRANCH   1  16
TORSDOF 1
ENDMDL
