MODEL 1
REMARK VINA RESULT:      -7.7      0.000      0.000
REMARK  Name = 
REMARK  7 active torsions:
REMARK  status: ('A' for Active; 'I' for Inactive)
REMARK    1  A    between atoms: C_1  and  N_2
REMARK    2  A    between atoms: N_2  and  C_3
REMARK    3  A    between atoms: N_2  and  C_4
REMARK    4  A    between atoms: C_4  and  C_5
REMARK    5  A    between atoms: C_5  and  C_6
REMARK    6  A    between atoms: C_6  and  C_7
REMARK    7  A    between atoms: N_23  and  C_24
REMARK                            x       y       z     vdW  Elec       q    Type
REMARK                         _______ _______ _______ _____ _____    ______ ____
ROOT
ATOM      1  C   UNL     1       4.646   4.521  17.221  0.00  0.00    +0.000 C 
ATOM      2  C   UNL     1       3.472   3.467  17.252  0.00  0.00    +0.000 C 
ATOM      3  C   UNL     1       2.633   3.564  18.499  0.00  0.00    +0.000 A 
ATOM      4  C   UNL     1       2.034   2.432  19.065  0.00  0.00    +0.000 A 
ATOM      5  C   UNL     1       1.261   2.551  20.225  0.00  0.00    +0.000 A 
ATOM      6  C   UNL     1       1.068   3.800  20.811  0.00  0.00    +0.000 A 
ATOM      7  C   UNL     1       1.642   4.934  20.236  0.00  0.00    +0.000 A 
ATOM      8  C   UNL     1       2.427   4.817  19.083  0.00  0.00    +0.000 A 
ATOM      9  C   UNL     1       3.029   6.033  18.474  0.00  0.00    +0.000 C 
ATOM     10  O   UNL     1       2.644   7.134  18.861  0.00  0.00    +0.000 OA
ATOM     11  N   UNL     1       3.990   5.860  17.464  0.00  0.00    +0.000 N 
ATOM     12  C   UNL     1       4.441   7.077  16.802  0.00  0.00    +0.000 C 
ENDROOT
BRANCH   1  13
ATOM     13  C   UNL     1       5.416   4.414  15.856  0.00  0.00    +0.000 A 
ATOM     14  C   UNL     1       6.761   4.815  15.707  0.00  0.00    +0.000 A 
ATOM     15  C   UNL     1       7.405   4.816  14.459  0.00  0.00    +0.000 A 
ATOM     16  C   UNL     1       6.722   4.414  13.319  0.00  0.00    +0.000 A 
ATOM     17 CL   UNL     1       7.488   4.472  11.784  0.00  0.00    +0.000 Cl
ATOM     18  C   UNL     1       5.415   3.969  13.427  0.00  0.00    +0.000 A 
ATOM     19  C   UNL     1       4.789   3.951  14.678  0.00  0.00    +0.000 A 
ENDBRANCH   1  13
BRANCH   1  20
ATOM     20  C   UNL     1       5.605   4.118  18.424  0.00  0.00    +0.000 C 
BRANCH  20  21
ATOM     21  C   UNL     1       6.215   5.255  19.255  0.00  0.00    +0.000 C 
BRANCH  21  23
ATOM     22  C   UNL     1       7.868   6.781  18.436  0.00  0.00    +0.000 C 
ATOM     23  N   UNL     1       7.664   5.474  19.077  0.00  0.00    +0.000 NA
ATOM     24  C   UNL     1       8.406   5.425  20.337  0.00  0.00    +0.000 C 
ENDBRANCH  21  23
ENDBRANCH  20  21
ENDBRANCH   1  20
TORSDOF 4
ENDMDL
MODEL 2
REMARK VINA RESULT:      -6.9      0.522      1.201
REMARK  Name = 
REMARK  7 active torsions:
REMARK  status: ('A' for Active; 'I' for Inactive)
REMARK    1  A    between atoms: C_1  and  N_2
REMARK    2  A    between atoms: N_2  and  C_3
REMARK    3  A    between atoms: N_2  and  C_4
REMARK    4  A    between atoms: C_4  and  C_5
REMARK    5  A    between atoms: C_5  and  C_6
REMARK    6  A    between atoms: C_6  and  C_7
REMARK    7  A    between atoms: N_23  and  C_24
REMARK                            x       y       z     vdW  Elec       q    Type
REMARK                         _______ _______ _______ _____ _____    ______ ____
ROOT
ATOM      1  C   UNL     1       4.486   4.625  17.151  0.00  0.00    +0.000 C 
ATOM      2  C   UNL     1       3.297   3.587  17.150  0.00  0.00    +0.000 C 
ATOM      3  C   UNL     1       2.507   3.604  18.431  0.00  0.00    +0.000 A 
ATOM      4  C   UNL     1       1.910   2.442  18.936  0.00  0.00    +0.000 A 
ATOM      5  C   UNL     1       1.183   2.487  20.130  0.00  0.00    +0.000 A 
ATOM      6  C   UNL     1       1.031   3.692  20.811  0.00  0.00    +0.000 A 
ATOM      7  C   UNL     1       1.602   4.857  20.299  0.00  0.00    +0.000 A 
ATOM      8  C   UNL     1       2.342   4.814  19.112  0.00  0.00    +0.000 A 
ATOM      9  C   UNL     1       2.941   6.063  18.570  0.00  0.00    +0.000 C 
ATOM     10  O   UNL     1       2.588   7.138  19.049  0.00  0.00    +0.000 OA
ATOM     11  N   UNL     1       3.861   5.951  17.514  0.00  0.00    +0.000 N 
ATOM     12  C   UNL     1       4.308   7.207  16.926  0.00  0.00    +0.000 C 
ENDROOT
BRANCH   1  13
ATOM     13  C   UNL     1       5.204   4.607  15.753  0.00  0.00    +0.000 A 
ATOM     14  C   UNL     1       4.652   3.971  14.621  0.00  0.00    +0.000 A 
ATOM     15  C   UNL     1       5.352   3.870  13.408  0.00  0.00    +0.000 A 
ATOM     16  C   UNL     1       6.628   4.403  13.290  0.00  0.00    +0.000 A 
ATOM     17 CL   UNL     1       7.508   4.227  11.827  0.00  0.00    +0.000 Cl
ATOM     18  C   UNL     1       7.190   5.076  14.361  0.00  0.00    +0.000 A 
ATOM     19  C   UNL     1       6.476   5.192  15.559  0.00  0.00    +0.000 A 
ENDBRANCH   1  13
BRANCH   1  20
ATOM     20  C   UNL     1       5.482   4.122  18.284  0.00  0.00    +0.000 C 
BRANCH  20  21
ATOM     21  C   UNL     1       6.110   5.184  19.197  0.00  0.00    +0.000 C 
BRANCH  21  23
ATOM     22  C   UNL     1       8.231   5.506  20.260  0.00  0.00    +0.000 C 
ATOM     23  N   UNL     1       7.540   5.468  18.963  0.00  0.00    +0.000 NA
ATOM     24  C   UNL     1       8.181   4.483  18.094  0.00  0.00    +0.000 C 
ENDBRANCH  21  23
ENDBRANCH  20  21
ENDBRANCH   1  20
TORSDOF 4
ENDMDL
MODEL 3
REMARK VINA RESULT:      -6.8      3.125      6.377
REMARK  Name = 
REMARK  7 active torsions:
REMARK  status: ('A' for Active; 'I' for Inactive)
REMARK    1  A    between atoms: C_1  and  N_2
REMARK    2  A    between atoms: N_2  and  C_3
REMARK    3  A    between atoms: N_2  and  C_4
REMARK    4  A    between atoms: C_4  and  C_5
REMARK    5  A    between atoms: C_5  and  C_6
REMARK    6  A    between atoms: C_6  and  C_7
REMARK    7  A    between atoms: N_23  and  C_24
REMARK                            x       y       z     vdW  Elec       q    Type
REMARK                         _______ _______ _______ _____ _____    ______ ____
ROOT
ATOM      1  C   UNL     1       4.441   4.533  17.661  0.00  0.00    +0.000 C 
ATOM      2  C   UNL     1       4.679   3.486  16.506  0.00  0.00    +0.000 C 
ATOM      3  C   UNL     1       5.602   4.000  15.433  0.00  0.00    +0.000 A 
ATOM      4  C   UNL     1       5.452   3.615  14.095  0.00  0.00    +0.000 A 
ATOM      5  C   UNL     1       6.323   4.110  13.119  0.00  0.00    +0.000 A 
ATOM      6  C   UNL     1       7.357   4.971  13.477  0.00  0.00    +0.000 A 
ATOM      7  C   UNL     1       7.525   5.338  14.812  0.00  0.00    +0.000 A 
ATOM      8  C   UNL     1       6.648   4.856  15.790  0.00  0.00    +0.000 A 
ATOM      9  C   UNL     1       6.840   5.247  17.212  0.00  0.00    +0.000 C 
ATOM     10  O   UNL     1       7.891   5.798  17.530  0.00  0.00    +0.000 OA
ATOM     11  N   UNL     1       5.820   4.938  18.127  0.00  0.00    +0.000 N 
ATOM     12  C   UNL     1       6.118   5.212  19.527  0.00  0.00    +0.000 C 
ENDROOT
BRANCH   1  13
ATOM     13  C   UNL     1       3.542   3.892  18.779  0.00  0.00    +0.000 A 
ATOM     14  C   UNL     1       2.166   4.178  18.906  0.00  0.00    +0.000 A 
ATOM     15  C   UNL     1       1.397   3.684  19.974  0.00  0.00    +0.000 A 
ATOM     16  C   UNL     1       1.984   2.886  20.947  0.00  0.00    +0.000 A 
ATOM     17 CL   UNL     1       1.060   2.332  22.284  0.00  0.00    +0.000 Cl
ATOM     18  C   UNL     1       3.320   2.544  20.837  0.00  0.00    +0.000 A 
ATOM     19  C   UNL     1       4.073   3.022  19.758  0.00  0.00    +0.000 A 
ENDBRANCH   1  13
BRANCH   1  20
ATOM     20  C   UNL     1       3.679   5.750  16.976  0.00  0.00    +0.000 C 
BRANCH  20  21
ATOM     21  C   UNL     1       3.692   7.098  17.710  0.00  0.00    +0.000 C 
BRANCH  21  23
ATOM     22  C   UNL     1       2.281   7.486  19.605  0.00  0.00    +0.000 C 
ATOM     23  N   UNL     1       2.375   7.607  18.144  0.00  0.00    +0.000 NA
ATOM     24  C   UNL     1       2.145   8.996  17.750  0.00  0.00    +0.000 C 
ENDBRANCH  21  23
ENDBRANCH  20  21
ENDBRANCH   1  20
TORSDOF 4
ENDMDL
MODEL 4
REMARK VINA RESULT:      -6.3      3.536      6.499
REMARK  Name = 
REMARK  7 active torsions:
REMARK  status: ('A' for Active; 'I' for Inactive)
REMARK    1  A    between atoms: C_1  and  N_2
REMARK    2  A    between atoms: N_2  and  C_3
REMARK    3  A    between atoms: N_2  and  C_4
REMARK    4  A    between atoms: C_4  and  C_5
REMARK    5  A    between atoms: C_5  and  C_6
REMARK    6  A    between atoms: C_6  and  C_7
REMARK    7  A    between atoms: N_23  and  C_24
REMARK                            x       y       z     vdW  Elec       q    Type
REMARK                         _______ _______ _______ _____ _____    ______ ____
ROOT
ATOM      1  C   UNL     1       3.297   6.084  18.486  0.00  0.00    +0.000 C 
ATOM      2  C   UNL     1       4.346   6.756  17.517  0.00  0.00    +0.000 C 
ATOM      3  C   UNL     1       5.225   5.751  16.822  0.00  0.00    +0.000 A 
ATOM      4  C   UNL     1       6.553   6.048  16.489  0.00  0.00    +0.000 A 
ATOM      5  C   UNL     1       7.347   5.093  15.845  0.00  0.00    +0.000 A 
ATOM      6  C   UNL     1       6.815   3.851  15.512  0.00  0.00    +0.000 A 
ATOM      7  C   UNL     1       5.485   3.559  15.819  0.00  0.00    +0.000 A 
ATOM      8  C   UNL     1       4.691   4.506  16.476  0.00  0.00    +0.000 A 
ATOM      9  C   UNL     1       3.273   4.188  16.792  0.00  0.00    +0.000 C 
ATOM     10  O   UNL     1       2.766   3.196  16.273  0.00  0.00    +0.000 OA
ATOM     11  N   UNL     1       2.575   5.057  17.647  0.00  0.00    +0.000 N 
ATOM     12  C   UNL     1       1.153   4.782  17.809  0.00  0.00    +0.000 C 
ENDROOT
BRANCH   1  13
ATOM     13  C   UNL     1       2.365   7.189  19.104  0.00  0.00    +0.000 A 
ATOM     14  C   UNL     1       1.976   8.343  18.391  0.00  0.00    +0.000 A 
ATOM     15  C   UNL     1       1.233   9.374  18.989  0.00  0.00    +0.000 A 
ATOM     16  C   UNL     1       0.855   9.280  20.321  0.00  0.00    +0.000 A 
ATOM     17 CL   UNL     1      -0.002  10.566  21.070  0.00  0.00    +0.000 Cl
ATOM     18  C   UNL     1       1.176   8.145  21.045  0.00  0.00    +0.000 A 
ATOM     19  C   UNL     1       1.897   7.113  20.435  0.00  0.00    +0.000 A 
ENDBRANCH   1  13
BRANCH   1  20
ATOM     20  C   UNL     1       4.162   5.396  19.630  0.00  0.00    +0.000 C 
BRANCH  20  21
ATOM     21  C   UNL     1       3.924   3.903  19.896  0.00  0.00    +0.000 C 
BRANCH  21  23
ATOM     22  C   UNL     1       2.282   2.161  19.869  0.00  0.00    +0.000 C 
ATOM     23  N   UNL     1       2.557   3.534  20.314  0.00  0.00    +0.000 NA
ATOM     24  C   UNL     1       2.359   3.630  21.760  0.00  0.00    +0.000 C 
ENDBRANCH  21  23
ENDBRANCH  20  21
ENDBRANCH   1  20
TORSDOF 4
ENDMDL
MODEL 5
REMARK VINA RESULT:      -6.3     10.160     11.829
REMARK  Name = 
REMARK  7 active torsions:
REMARK  status: ('A' for Active; 'I' for Inactive)
REMARK    1  A    between atoms: C_1  and  N_2
REMARK    2  A    between atoms: N_2  and  C_3
REMARK    3  A    between atoms: N_2  and  C_4
REMARK    4  A    between atoms: C_4  and  C_5
REMARK    5  A    between atoms: C_5  and  C_6
REMARK    6  A    between atoms: C_6  and  C_7
REMARK    7  A    between atoms: N_23  and  C_24
REMARK                            x       y       z     vdW  Elec       q    Type
REMARK                         _______ _______ _______ _____ _____    ______ ____
ROOT
ATOM      1  C   UNL     1       7.937  14.617  19.337  0.00  0.00    +0.000 C 
ATOM      2  C   UNL     1       8.366  13.523  18.284  0.00  0.00    +0.000 C 
ATOM      3  C   UNL     1       9.684  12.877  18.618  0.00  0.00    +0.000 A 
ATOM      4  C   UNL     1      10.555  12.434  17.614  0.00  0.00    +0.000 A 
ATOM      5  C   UNL     1      11.775  11.839  17.954  0.00  0.00    +0.000 A 
ATOM      6  C   UNL     1      12.118  11.664  19.292  0.00  0.00    +0.000 A 
ATOM      7  C   UNL     1      11.242  12.081  20.295  0.00  0.00    +0.000 A 
ATOM      8  C   UNL     1      10.028  12.689  19.959  0.00  0.00    +0.000 A 
ATOM      9  C   UNL     1       9.098  13.123  21.036  0.00  0.00    +0.000 C 
ATOM     10  O   UNL     1       9.310  12.737  22.183  0.00  0.00    +0.000 OA
ATOM     11  N   UNL     1       8.004  13.929  20.681  0.00  0.00    +0.000 N 
ATOM     12  C   UNL     1       7.047  14.206  21.744  0.00  0.00    +0.000 C 
ENDROOT
BRANCH   1  13
ATOM     13  C   UNL     1       6.517  15.179  18.967  0.00  0.00    +0.000 A 
ATOM     14  C   UNL     1       5.647  14.522  18.071  0.00  0.00    +0.000 A 
ATOM     15  C   UNL     1       4.427  15.088  17.665  0.00  0.00    +0.000 A 
ATOM     16  C   UNL     1       4.040  16.331  18.146  0.00  0.00    +0.000 A 
ATOM     17 CL   UNL     1       2.578  17.051  17.605  0.00  0.00    +0.000 Cl
ATOM     18  C   UNL     1       4.841  16.991  19.063  0.00  0.00    +0.000 A 
ATOM     19  C   UNL     1       6.043  16.409  19.478  0.00  0.00    +0.000 A 
ENDBRANCH   1  13
BRANCH   1  20
ATOM     20  C   UNL     1       9.029  15.767  19.218  0.00  0.00    +0.000 C 
BRANCH  20  21
ATOM     21  C   UNL     1       9.341  16.304  17.815  0.00  0.00    +0.000 C 
BRANCH  21  23
ATOM     22  C   UNL     1      11.043  17.924  17.356  0.00  0.00    +0.000 C 
ATOM     23  N   UNL     1      10.772  16.487  17.500  0.00  0.00    +0.000 NA
ATOM     24  C   UNL     1      11.656  15.920  18.518  0.00  0.00    +0.000 C 
ENDBRANCH  21  23
ENDBRANCH  20  21
ENDBRANCH   1  20
TORSDOF 4
ENDMDL
MODEL 6
REMARK VINA RESULT:      -6.3     10.183     11.942
REMARK  Name = 
REMARK  7 active torsions:
REMARK  status: ('A' for Active; 'I' for Inactive)
REMARK    1  A    between atoms: C_1  and  N_2
REMARK    2  A    between atoms: N_2  and  C_3
REMARK    3  A    between atoms: N_2  and  C_4
REMARK    4  A    between atoms: C_4  and  C_5
REMARK    5  A    between atoms: C_5  and  C_6
REMARK    6  A    between atoms: C_6  and  C_7
REMARK    7  A    between atoms: N_23  and  C_24
REMARK                            x       y       z     vdW  Elec       q    Type
REMARK                         _______ _______ _______ _____ _____    ______ ____
ROOT
ATOM      1  C   UNL     1       8.035  14.707  19.180  0.00  0.00    +0.000 C 
ATOM      2  C   UNL     1       8.424  13.540  18.193  0.00  0.00    +0.000 C 
ATOM      3  C   UNL     1       9.712  12.860  18.571  0.00  0.00    +0.000 A 
ATOM      4  C   UNL     1      10.570  12.327  17.600  0.00  0.00    +0.000 A 
ATOM      5  C   UNL     1      11.762  11.702  17.982  0.00  0.00    +0.000 A 
ATOM      6  C   UNL     1      12.091  11.587  19.330  0.00  0.00    +0.000 A 
ATOM      7  C   UNL     1      11.227  12.095  20.302  0.00  0.00    +0.000 A 
ATOM      8  C   UNL     1      10.041  12.733  19.924  0.00  0.00    +0.000 A 
ATOM      9  C   UNL     1       9.124  13.263  20.968  0.00  0.00    +0.000 C 
ATOM     10  O   UNL     1       9.314  12.934  22.137  0.00  0.00    +0.000 OA
ATOM     11  N   UNL     1       8.067  14.093  20.560  0.00  0.00    +0.000 N 
ATOM     12  C   UNL     1       7.116  14.468  21.599  0.00  0.00    +0.000 C 
ENDROOT
BRANCH   1  13
ATOM     13  C   UNL     1       6.642  15.306  18.769  0.00  0.00    +0.000 A 
ATOM     14  C   UNL     1       6.203  16.578  19.195  0.00  0.00    +0.000 A 
ATOM     15  C   UNL     1       4.913  17.056  18.911  0.00  0.00    +0.000 A 
ATOM     16  C   UNL     1       4.022  16.275  18.188  0.00  0.00    +0.000 A 
ATOM     17 CL   UNL     1       2.426  16.833  17.891  0.00  0.00    +0.000 Cl
ATOM     18  C   UNL     1       4.426  15.040  17.710  0.00  0.00    +0.000 A 
ATOM     19  C   UNL     1       5.720  14.581  17.980  0.00  0.00    +0.000 A 
ENDBRANCH   1  13
BRANCH   1  20
ATOM     20  C   UNL     1       9.175  15.803  19.006  0.00  0.00    +0.000 C 
BRANCH  20  21
ATOM     21  C   UNL     1       9.495  16.272  17.580  0.00  0.00    +0.000 C 
BRANCH  21  23
ATOM     22  C   UNL     1       9.362  18.522  18.384  0.00  0.00    +0.000 C 
ATOM     23  N   UNL     1      10.072  17.625  17.462  0.00  0.00    +0.000 NA
ATOM     24  C   UNL     1      11.505  17.659  17.750  0.00  0.00    +0.000 C 
ENDBRANCH  21  23
ENDBRANCH  20  21
ENDBRANCH   1  20
TORSDOF 4
ENDMDL
MODEL 7
REMARK VINA RESULT:      -6.2      3.552      6.367
REMARK  Name = 
REMARK  7 active torsions:
REMARK  status: ('A' for Active; 'I' for Inactive)
REMARK    1  A    between atoms: C_1  and  N_2
REMARK    2  A    between atoms: N_2  and  C_3
REMARK    3  A    between atoms: N_2  and  C_4
REMARK    4  A    between atoms: C_4  and  C_5
REMARK    5  A    between atoms: C_5  and  C_6
REMARK    6  A    between atoms: C_6  and  C_7
REMARK    7  A    between atoms: N_23  and  C_24
REMARK                            x       y       z     vdW  Elec       q    Type
REMARK                         _______ _______ _______ _____ _____    ______ ____
ROOT
ATOM      1  C   UNL     1       3.318   6.170  18.425  0.00  0.00    +0.000 C 
ATOM      2  C   UNL     1       4.348   6.753  17.382  0.00  0.00    +0.000 C 
ATOM      3  C   UNL     1       5.171   5.684  16.715  0.00  0.00    +0.000 A 
ATOM      4  C   UNL     1       6.494   5.922  16.318  0.00  0.00    +0.000 A 
ATOM      5  C   UNL     1       7.236   4.909  15.702  0.00  0.00    +0.000 A 
ATOM      6  C   UNL     1       6.656   3.666  15.460  0.00  0.00    +0.000 A 
ATOM      7  C   UNL     1       5.331   3.433  15.831  0.00  0.00    +0.000 A 
ATOM      8  C   UNL     1       4.590   4.439  16.460  0.00  0.00    +0.000 A 
ATOM      9  C   UNL     1       3.176   4.183  16.844  0.00  0.00    +0.000 C 
ATOM     10  O   UNL     1       2.622   3.179  16.402  0.00  0.00    +0.000 OA
ATOM     11  N   UNL     1       2.535   5.119  17.672  0.00  0.00    +0.000 N 
ATOM     12  C   UNL     1       1.114   4.897  17.901  0.00  0.00    +0.000 C 
ENDROOT
BRANCH   1  13
ATOM     13  C   UNL     1       2.441   7.335  19.011  0.00  0.00    +0.000 A 
ATOM     14  C   UNL     1       1.963   7.335  20.339  0.00  0.00    +0.000 A 
ATOM     15  C   UNL     1       1.092   8.328  20.818  0.00  0.00    +0.000 A 
ATOM     16  C   UNL     1       0.673   9.353  19.981  0.00  0.00    +0.000 A 
ATOM     17 CL   UNL     1      -0.438  10.533  20.547  0.00  0.00    +0.000 Cl
ATOM     18  C   UNL     1       1.154   9.417  18.684  0.00  0.00    +0.000 A 
ATOM     19  C   UNL     1       2.039   8.437  18.222  0.00  0.00    +0.000 A 
ENDBRANCH   1  13
BRANCH   1  20
ATOM     20  C   UNL     1       4.205   5.521  19.575  0.00  0.00    +0.000 C 
BRANCH  20  21
ATOM     21  C   UNL     1       3.485   4.667  20.628  0.00  0.00    +0.000 C 
BRANCH  21  23
ATOM     22  C   UNL     1       4.433   2.591  19.905  0.00  0.00    +0.000 C 
ATOM     23  N   UNL     1       3.176   3.279  20.229  0.00  0.00    +0.000 NA
ATOM     24  C   UNL     1       2.463   2.535  21.266  0.00  0.00    +0.000 C 
ENDBRANCH  21  23
ENDBRANCH  20  21
ENDBRANCH   1  20
TORSDOF 4
ENDMDL
MODEL 8
REMARK VINA RESULT:      -6.2      7.331      9.134
REMARK  Name = 
REMARK  7 active torsions:
REMARK  status: ('A' for Active; 'I' for Inactive)
REMARK    1  A    between atoms: C_1  and  N_2
REMARK    2  A    between atoms: N_2  and  C_3
REMARK    3  A    between atoms: N_2  and  C_4
REMARK    4  A    between atoms: C_4  and  C_5
REMARK    5  A    between atoms: C_5  and  C_6
REMARK    6  A    between atoms: C_6  and  C_7
REMARK    7  A    between atoms: N_23  and  C_24
REMARK                            x       y       z     vdW  Elec       q    Type
REMARK                         _______ _______ _______ _____ _____    ______ ____
ROOT
ATOM      1  C   UNL     1      -0.035  11.051  19.773  0.00  0.00    +0.000 C 
ATOM      2  C   UNL     1      -0.333  11.013  21.322  0.00  0.00    +0.000 C 
ATOM      3  C   UNL     1      -1.309  12.074  21.755  0.00  0.00    +0.000 A 
ATOM      4  C   UNL     1      -1.229  12.668  23.021  0.00  0.00    +0.000 A 
ATOM      5  C   UNL     1      -2.149  13.654  23.395  0.00  0.00    +0.000 A 
ATOM      6  C   UNL     1      -3.163  14.033  22.518  0.00  0.00    +0.000 A 
ATOM      7  C   UNL     1      -3.262  13.425  21.266  0.00  0.00    +0.000 A 
ATOM      8  C   UNL     1      -2.335  12.449  20.883  0.00  0.00    +0.000 A 
ATOM      9  C   UNL     1      -2.454  11.803  19.549  0.00  0.00    +0.000 C 
ATOM     10  O   UNL     1      -3.487  11.974  18.905  0.00  0.00    +0.000 OA
ATOM     11  N   UNL     1      -1.388  11.004  19.103  0.00  0.00    +0.000 N 
ATOM     12  C   UNL     1      -1.614  10.280  17.859  0.00  0.00    +0.000 C 
ENDROOT
BRANCH   1  13
ATOM     13  C   UNL     1       0.920   9.864  19.390  0.00  0.00    +0.000 A 
ATOM     14  C   UNL     1       1.539   9.762  18.126  0.00  0.00    +0.000 A 
ATOM     15  C   UNL     1       2.303   8.643  17.757  0.00  0.00    +0.000 A 
ATOM     16  C   UNL     1       2.473   7.589  18.646  0.00  0.00    +0.000 A 
ATOM     17 CL   UNL     1       3.356   6.194  18.175  0.00  0.00    +0.000 Cl
ATOM     18  C   UNL     1       1.921   7.667  19.913  0.00  0.00    +0.000 A 
ATOM     19  C   UNL     1       1.180   8.796  20.279  0.00  0.00    +0.000 A 
ENDBRANCH   1  13
BRANCH   1  20
ATOM     20  C   UNL     1       0.691  12.442  19.518  0.00  0.00    +0.000 C 
BRANCH  20  21
ATOM     21  C   UNL     1       2.006  12.702  20.265  0.00  0.00    +0.000 C 
BRANCH  21  23
ATOM     22  C   UNL     1       3.318  14.354  21.398  0.00  0.00    +0.000 C 
ATOM     23  N   UNL     1       1.971  13.780  21.274  0.00  0.00    +0.000 NA
ATOM     24  C   UNL     1       1.016  14.837  20.944  0.00  0.00    +0.000 C 
ENDBRANCH  21  23
ENDBRANCH  20  21
ENDBRANCH   1  20
TORSDOF 4
ENDMDL
MODEL 9
REMARK VINA RESULT:      -6.1      7.326     10.155
REMARK  Name = 
REMARK  7 active torsions:
REMARK  status: ('A' for Active; 'I' for Inactive)
REMARK    1  A    between atoms: C_1  and  N_2
REMARK    2  A    between atoms: N_2  and  C_3
REMARK    3  A    between atoms: N_2  and  C_4
REMARK    4  A    between atoms: C_4  and  C_5
REMARK    5  A    between atoms: C_5  and  C_6
REMARK    6  A    between atoms: C_6  and  C_7
REMARK    7  A    between atoms: N_23  and  C_24
REMARK                            x       y       z     vdW  Elec       q    Type
REMARK                         _______ _______ _______ _____ _____    ______ ____
ROOT
ATOM      1  C   UNL     1      -0.224  10.674  19.937  0.00  0.00    +0.000 C 
ATOM      2  C   UNL     1       0.582   9.612  20.781  0.00  0.00    +0.000 C 
ATOM      3  C   UNL     1       1.394   8.680  19.922  0.00  0.00    +0.000 A 
ATOM      4  C   UNL     1       1.622   7.350  20.299  0.00  0.00    +0.000 A 
ATOM      5  C   UNL     1       2.379   6.506  19.480  0.00  0.00    +0.000 A 
ATOM      6  C   UNL     1       2.928   6.990  18.296  0.00  0.00    +0.000 A 
ATOM      7  C   UNL     1       2.725   8.321  17.928  0.00  0.00    +0.000 A 
ATOM      8  C   UNL     1       1.957   9.164  18.738  0.00  0.00    +0.000 A 
ATOM      9  C   UNL     1       1.753  10.583  18.340  0.00  0.00    +0.000 C 
ATOM     10  O   UNL     1       2.444  11.043  17.434  0.00  0.00    +0.000 OA
ATOM     11  N   UNL     1       0.798  11.336  19.043  0.00  0.00    +0.000 N 
ATOM     12  C   UNL     1       0.739  12.754  18.713  0.00  0.00    +0.000 C 
ENDROOT
BRANCH   1  13
ATOM     13  C   UNL     1      -0.973  11.659  20.906  0.00  0.00    +0.000 A 
ATOM     14  C   UNL     1      -0.494  11.970  22.196  0.00  0.00    +0.000 A 
ATOM     15  C   UNL     1      -1.227  12.766  23.092  0.00  0.00    +0.000 A 
ATOM     16  C   UNL     1      -2.464  13.277  22.722  0.00  0.00    +0.000 A 
ATOM     17 CL   UNL     1      -3.388  14.199  23.837  0.00  0.00    +0.000 Cl
ATOM     18  C   UNL     1      -2.952  13.035  21.449  0.00  0.00    +0.000 A 
ATOM     19  C   UNL     1      -2.204  12.259  20.556  0.00  0.00    +0.000 A 
ENDBRANCH   1  13
BRANCH   1  20
ATOM     20  C   UNL     1      -1.276   9.831  19.093  0.00  0.00    +0.000 C 
BRANCH  20  21
ATOM     21  C   UNL     1      -1.606  10.325  17.678  0.00  0.00    +0.000 C 
BRANCH  21  23
ATOM     22  C   UNL     1      -3.973  10.681  17.639  0.00  0.00    +0.000 C 
ATOM     23  N   UNL     1      -2.883   9.848  17.112  0.00  0.00    +0.000 NA
ATOM     24  C   UNL     1      -2.905   9.879  15.650  0.00  0.00    +0.000 C 
ENDBRANCH  21  23
ENDBRANCH  20  21
ENDBRANCH   1  20
TORSDOF 4
ENDMDL
