MODEL 1
REMARK VINA RESULT:      -8.7      0.000      0.000
REMARK  Name = 
REMARK  7 active torsions:
REMARK  status: ('A' for Active; 'I' for Inactive)
REMARK    1  A    between atoms: C_2  and  C_18
REMARK    2  A    between atoms: N_3  and  C_4
REMARK    3  A    between atoms: C_4  and  C_5
REMARK    4  A    between atoms: C_5  and  N_6
REMARK    5  A    between atoms: C_7  and  C_9
REMARK    6  A    between atoms: N_20  and  C_21
REMARK    7  A    between atoms: C_21  and  C_22
REMARK                            x       y       z     vdW  Elec       q    Type
REMARK                         _______ _______ _______ _____ _____    ______ ____
ROOT
ATOM      1  O   UNL     1       5.969   7.787  16.920  0.00  0.00    +0.000 OA
ATOM      2  C   UNL     1       7.109   7.352  17.022  0.00  0.00    +0.000 C 
ATOM      3  N   UNL     1       7.659   6.348  16.254  0.00  0.00    +0.000 N 
ATOM      4  H   UNL     1       8.629   6.103  16.442  0.00  0.00    +0.000 HD
ENDROOT
BRANCH   2   5
ATOM      5  C   UNL     1       8.070   7.932  18.091  0.00  0.00    +0.000 C 
ATOM      6  O   UNL     1       8.574   7.194  18.925  0.00  0.00    +0.000 OA
ATOM      7  N   UNL     1       8.269   9.290  17.988  0.00  0.00    +0.000 N 
ATOM      8  H   UNL     1       7.686   9.792  17.325  0.00  0.00    +0.000 HD
BRANCH   7   9
ATOM      9  C   UNL     1       9.068  10.023  18.943  0.00  0.00    +0.000 C 
BRANCH   9  10
ATOM     10  C   UNL     1       9.549  11.347  18.391  0.00  0.00    +0.000 A 
ATOM     11  C   UNL     1      10.807  11.427  17.743  0.00  0.00    +0.000 A 
ATOM     12  C   UNL     1      11.309  12.648  17.275  0.00  0.00    +0.000 A 
ATOM     13  C   UNL     1      10.540  13.773  17.472  0.00  0.00    +0.000 A 
ATOM     14  C   UNL     1       9.318  13.711  18.100  0.00  0.00    +0.000 A 
ATOM     15  C   UNL     1       8.794  12.521  18.567  0.00  0.00    +0.000 A 
ATOM     16  O   UNL     1       8.729  14.933  18.206  0.00  0.00    +0.000 OA
ATOM     17  C   UNL     1       9.743  15.775  17.614  0.00  0.00    +0.000 C 
ATOM     18  O   UNL     1      10.875  15.038  17.109  0.00  0.00    +0.000 OA
ENDBRANCH   9  10
ENDBRANCH   7   9
ENDBRANCH   2   5
BRANCH   3  19
ATOM     19  C   UNL     1       6.929   5.678  15.198  0.00  0.00    +0.000 C 
BRANCH  19  20
ATOM     20  C   UNL     1       6.749   4.177  15.449  0.00  0.00    +0.000 C 
BRANCH  20  21
ATOM     21  N   UNL     1       5.732   3.908  16.450  0.00  0.00    +0.000 N 
ATOM     22  C   UNL     1       5.968   3.985  17.804  0.00  0.00    +0.000 C 
ATOM     23  O   UNL     1       7.068   4.272  18.267  0.00  0.00    +0.000 OA
ATOM     24  H   UNL     1       4.785   3.777  16.128  0.00  0.00    +0.000 HD
BRANCH  22  25
ATOM     25  C   UNL     1       4.815   3.723  18.640  0.00  0.00    +0.000 A 
ATOM     26  C   UNL     1       4.698   3.150  19.896  0.00  0.00    +0.000 A 
ATOM     27  C   UNL     1       3.324   3.105  20.250  0.00  0.00    +0.000 A 
ATOM     28  C   UNL     1       2.624   2.625  21.373  0.00  0.00    +0.000 A 
ATOM     29  C   UNL     1       1.231   2.729  21.406  0.00  0.00    +0.000 A 
ATOM     30  C   UNL     1       0.538   3.306  20.344  0.00  0.00    +0.000 A 
ATOM     31  C   UNL     1       1.214   3.798  19.221  0.00  0.00    +0.000 A 
ATOM     32  C   UNL     1       2.610   3.680  19.202  0.00  0.00    +0.000 A 
ATOM     33  N   UNL     1       3.533   4.060  18.251  0.00  0.00    +0.000 N 
ATOM     34  H   UNL     1       3.314   4.516  17.375  0.00  0.00    +0.000 HD
ENDBRANCH  22  25
ENDBRANCH  20  21
ENDBRANCH  19  20
ENDBRANCH   3  19
TORSDOF 7
ENDMDL
MODEL 2
REMARK VINA RESULT:      -8.1      2.920      3.418
REMARK  Name = 
REMARK  7 active torsions:
REMARK  status: ('A' for Active; 'I' for Inactive)
REMARK    1  A    between atoms: C_2  and  C_18
REMARK    2  A    between atoms: N_3  and  C_4
REMARK    3  A    between atoms: C_4  and  C_5
REMARK    4  A    between atoms: C_5  and  N_6
REMARK    5  A    between atoms: C_7  and  C_9
REMARK    6  A    between atoms: N_20  and  C_21
REMARK    7  A    between atoms: C_21  and  C_22
REMARK                            x       y       z     vdW  Elec       q    Type
REMARK                         _______ _______ _______ _____ _____    ______ ____
ROOT
ATOM      1  O   UNL     1       6.372   7.434  16.594  0.00  0.00    +0.000 OA
ATOM      2  C   UNL     1       7.150   6.716  17.211  0.00  0.00    +0.000 C 
ATOM      3  N   UNL     1       7.323   5.363  17.014  0.00  0.00    +0.000 N 
ATOM      4  H   UNL     1       8.022   4.900  17.592  0.00  0.00    +0.000 HD
ENDROOT
BRANCH   2   5
ATOM      5  C   UNL     1       8.044   7.316  18.326  0.00  0.00    +0.000 C 
ATOM      6  O   UNL     1       8.413   6.614  19.257  0.00  0.00    +0.000 OA
ATOM      7  N   UNL     1       8.346   8.646  18.148  0.00  0.00    +0.000 N 
ATOM      8  H   UNL     1       7.866   9.131  17.395  0.00  0.00    +0.000 HD
BRANCH   7   9
ATOM      9  C   UNL     1       9.101   9.399  19.123  0.00  0.00    +0.000 C 
BRANCH   9  10
ATOM     10  C   UNL     1       9.197  10.866  18.766  0.00  0.00    +0.000 A 
ATOM     11  C   UNL     1       8.318  11.417  17.801  0.00  0.00    +0.000 A 
ATOM     12  C   UNL     1       8.419  12.756  17.403  0.00  0.00    +0.000 A 
ATOM     13  C   UNL     1       9.409  13.520  17.979  0.00  0.00    +0.000 A 
ATOM     14  C   UNL     1      10.270  12.999  18.917  0.00  0.00    +0.000 A 
ATOM     15  C   UNL     1      10.191  11.684  19.333  0.00  0.00    +0.000 A 
ATOM     16  O   UNL     1      11.180  13.915  19.347  0.00  0.00    +0.000 OA
ATOM     17  C   UNL     1      10.821  15.056  18.538  0.00  0.00    +0.000 C 
ATOM     18  O   UNL     1       9.671  14.823  17.699  0.00  0.00    +0.000 OA
ENDBRANCH   9  10
ENDBRANCH   7   9
ENDBRANCH   2   5
BRANCH   3  19
ATOM     19  C   UNL     1       6.588   4.614  16.016  0.00  0.00    +0.000 C 
BRANCH  19  20
ATOM     20  C   UNL     1       5.212   4.150  16.505  0.00  0.00    +0.000 C 
BRANCH  20  21
ATOM     21  N   UNL     1       4.433   5.242  17.064  0.00  0.00    +0.000 N 
ATOM     22  C   UNL     1       3.410   5.053  17.965  0.00  0.00    +0.000 C 
ATOM     23  O   UNL     1       3.067   3.940  18.351  0.00  0.00    +0.000 OA
ATOM     24  H   UNL     1       4.741   6.182  16.868  0.00  0.00    +0.000 HD
BRANCH  22  25
ATOM     25  C   UNL     1       2.782   6.269  18.439  0.00  0.00    +0.000 A 
ATOM     26  C   UNL     1       2.433   7.441  17.787  0.00  0.00    +0.000 A 
ATOM     27  C   UNL     1       1.866   8.336  18.732  0.00  0.00    +0.000 A 
ATOM     28  C   UNL     1       1.359   9.647  18.648  0.00  0.00    +0.000 A 
ATOM     29  C   UNL     1       0.865  10.264  19.800  0.00  0.00    +0.000 A 
ATOM     30  C   UNL     1       0.864   9.590  21.019  0.00  0.00    +0.000 A 
ATOM     31  C   UNL     1       1.354   8.282  21.125  0.00  0.00    +0.000 A 
ATOM     32  C   UNL     1       1.852   7.682  19.961  0.00  0.00    +0.000 A 
ATOM     33  N   UNL     1       2.394   6.432  19.754  0.00  0.00    +0.000 N 
ATOM     34  H   UNL     1       2.509   5.721  20.465  0.00  0.00    +0.000 HD
ENDBRANCH  22  25
ENDBRANCH  20  21
ENDBRANCH  19  20
ENDBRANCH   3  19
TORSDOF 7
ENDMDL
MODEL 3
REMARK VINA RESULT:      -8.1      5.226      8.381
REMARK  Name = 
REMARK  7 active torsions:
REMARK  status: ('A' for Active; 'I' for Inactive)
REMARK    1  A    between atoms: C_2  and  C_18
REMARK    2  A    between atoms: N_3  and  C_4
REMARK    3  A    between atoms: C_4  and  C_5
REMARK    4  A    between atoms: C_5  and  N_6
REMARK    5  A    between atoms: C_7  and  C_9
REMARK    6  A    between atoms: N_20  and  C_21
REMARK    7  A    between atoms: C_21  and  C_22
REMARK                            x       y       z     vdW  Elec       q    Type
REMARK                         _______ _______ _______ _____ _____    ______ ____
ROOT
ATOM      1  O   UNL     1       2.070   5.087  17.650  0.00  0.00    +0.000 OA
ATOM      2  C   UNL     1       2.723   5.806  18.396  0.00  0.00    +0.000 C 
ATOM      3  N   UNL     1       3.290   5.421  19.592  0.00  0.00    +0.000 N 
ATOM      4  H   UNL     1       3.821   6.126  20.098  0.00  0.00    +0.000 HD
ENDROOT
BRANCH   2   5
ATOM      5  C   UNL     1       2.966   7.292  18.028  0.00  0.00    +0.000 C 
ATOM      6  O   UNL     1       3.999   7.620  17.462  0.00  0.00    +0.000 OA
ATOM      7  N   UNL     1       1.943   8.136  18.396  0.00  0.00    +0.000 N 
ATOM      8  H   UNL     1       1.205   7.742  18.971  0.00  0.00    +0.000 HD
BRANCH   7   9
ATOM      9  C   UNL     1       2.023   9.566  18.209  0.00  0.00    +0.000 C 
BRANCH   9  10
ATOM     10  C   UNL     1       0.662  10.225  18.232  0.00  0.00    +0.000 A 
ATOM     11  C   UNL     1       0.504  11.502  18.823  0.00  0.00    +0.000 A 
ATOM     12  C   UNL     1      -0.753  12.114  18.915  0.00  0.00    +0.000 A 
ATOM     13  C   UNL     1      -1.836  11.426  18.416  0.00  0.00    +0.000 A 
ATOM     14  C   UNL     1      -1.699  10.184  17.840  0.00  0.00    +0.000 A 
ATOM     15  C   UNL     1      -0.472   9.559  17.730  0.00  0.00    +0.000 A 
ATOM     16  O   UNL     1      -2.890   9.673  17.426  0.00  0.00    +0.000 OA
ATOM     17  C   UNL     1      -3.795  10.716  17.850  0.00  0.00    +0.000 C 
ATOM     18  O   UNL     1      -3.126  11.849  18.441  0.00  0.00    +0.000 OA
ENDBRANCH   9  10
ENDBRANCH   7   9
ENDBRANCH   2   5
BRANCH   3  19
ATOM     19  C   UNL     1       3.183   4.074  20.113  0.00  0.00    +0.000 C 
BRANCH  19  20
ATOM     20  C   UNL     1       4.378   3.189  19.741  0.00  0.00    +0.000 C 
BRANCH  20  21
ATOM     21  N   UNL     1       4.860   3.456  18.398  0.00  0.00    +0.000 N 
ATOM     22  C   UNL     1       5.935   4.275  18.132  0.00  0.00    +0.000 C 
ATOM     23  O   UNL     1       6.556   4.856  19.016  0.00  0.00    +0.000 OA
ATOM     24  H   UNL     1       4.459   2.920  17.643  0.00  0.00    +0.000 HD
BRANCH  22  25
ATOM     25  C   UNL     1       6.288   4.381  16.731  0.00  0.00    +0.000 A 
ATOM     26  C   UNL     1       7.155   5.229  16.061  0.00  0.00    +0.000 A 
ATOM     27  C   UNL     1       7.108   4.926  14.675  0.00  0.00    +0.000 A 
ATOM     28  C   UNL     1       7.747   5.460  13.540  0.00  0.00    +0.000 A 
ATOM     29  C   UNL     1       7.467   4.922  12.281  0.00  0.00    +0.000 A 
ATOM     30  C   UNL     1       6.572   3.863  12.147  0.00  0.00    +0.000 A 
ATOM     31  C   UNL     1       5.932   3.309  13.263  0.00  0.00    +0.000 A 
ATOM     32  C   UNL     1       6.219   3.866  14.516  0.00  0.00    +0.000 A 
ATOM     33  N   UNL     1       5.751   3.545  15.772  0.00  0.00    +0.000 N 
ATOM     34  H   UNL     1       5.093   2.805  15.977  0.00  0.00    +0.000 HD
ENDBRANCH  22  25
ENDBRANCH  20  21
ENDBRANCH  19  20
ENDBRANCH   3  19
TORSDOF 7
ENDMDL
MODEL 4
REMARK VINA RESULT:      -8.0      2.069      3.064
REMARK  Name = 
REMARK  7 active torsions:
REMARK  status: ('A' for Active; 'I' for Inactive)
REMARK    1  A    between atoms: C_2  and  C_18
REMARK    2  A    between atoms: N_3  and  C_4
REMARK    3  A    between atoms: C_4  and  C_5
REMARK    4  A    between atoms: C_5  and  N_6
REMARK    5  A    between atoms: C_7  and  C_9
REMARK    6  A    between atoms: N_20  and  C_21
REMARK    7  A    between atoms: C_21  and  C_22
REMARK                            x       y       z     vdW  Elec       q    Type
REMARK                         _______ _______ _______ _____ _____    ______ ____
ROOT
ATOM      1  O   UNL     1       8.541  10.490  17.691  0.00  0.00    +0.000 OA
ATOM      2  C   UNL     1       8.933   9.974  18.730  0.00  0.00    +0.000 C 
ATOM      3  N   UNL     1       8.762   8.654  19.086  0.00  0.00    +0.000 N 
ATOM      4  H   UNL     1       9.159   8.362  19.977  0.00  0.00    +0.000 HD
ENDROOT
BRANCH   2   5
ATOM      5  C   UNL     1       9.690  10.823  19.783  0.00  0.00    +0.000 C 
ATOM      6  O   UNL     1       9.296  10.855  20.940  0.00  0.00    +0.000 OA
ATOM      7  N   UNL     1      10.785  11.490  19.284  0.00  0.00    +0.000 N 
ATOM      8  H   UNL     1      10.917  11.469  18.277  0.00  0.00    +0.000 HD
BRANCH   7   9
ATOM      9  C   UNL     1      11.569  12.393  20.095  0.00  0.00    +0.000 C 
BRANCH   9  10
ATOM     10  C   UNL     1      11.311  13.843  19.750  0.00  0.00    +0.000 A 
ATOM     11  C   UNL     1      11.002  14.770  20.776  0.00  0.00    +0.000 A 
ATOM     12  C   UNL     1      10.699  16.106  20.485  0.00  0.00    +0.000 A 
ATOM     13  C   UNL     1      10.704  16.489  19.163  0.00  0.00    +0.000 A 
ATOM     14  C   UNL     1      11.001  15.601  18.155  0.00  0.00    +0.000 A 
ATOM     15  C   UNL     1      11.309  14.279  18.412  0.00  0.00    +0.000 A 
ATOM     16  O   UNL     1      10.936  16.177  16.924  0.00  0.00    +0.000 OA
ATOM     17  C   UNL     1      10.519  17.515  17.272  0.00  0.00    +0.000 C 
ATOM     18  O   UNL     1      10.412  17.730  18.694  0.00  0.00    +0.000 OA
ENDBRANCH   9  10
ENDBRANCH   7   9
ENDBRANCH   2   5
BRANCH   3  19
ATOM     19  C   UNL     1       8.086   7.693  18.240  0.00  0.00    +0.000 C 
BRANCH  19  20
ATOM     20  C   UNL     1       8.120   6.267  18.801  0.00  0.00    +0.000 C 
BRANCH  20  21
ATOM     21  N   UNL     1       6.789   5.703  18.942  0.00  0.00    +0.000 N 
ATOM     22  C   UNL     1       6.244   4.823  18.034  0.00  0.00    +0.000 C 
ATOM     23  O   UNL     1       6.840   4.462  17.024  0.00  0.00    +0.000 OA
ATOM     24  H   UNL     1       6.298   5.876  19.806  0.00  0.00    +0.000 HD
BRANCH  22  25
ATOM     25  C   UNL     1       4.921   4.338  18.373  0.00  0.00    +0.000 A 
ATOM     26  C   UNL     1       3.917   3.782  17.598  0.00  0.00    +0.000 A 
ATOM     27  C   UNL     1       2.801   3.505  18.430  0.00  0.00    +0.000 A 
ATOM     28  C   UNL     1       1.521   2.966  18.194  0.00  0.00    +0.000 A 
ATOM     29  C   UNL     1       0.630   2.828  19.261  0.00  0.00    +0.000 A 
ATOM     30  C   UNL     1       1.002   3.211  20.548  0.00  0.00    +0.000 A 
ATOM     31  C   UNL     1       2.272   3.741  20.808  0.00  0.00    +0.000 A 
ATOM     32  C   UNL     1       3.150   3.878  19.725  0.00  0.00    +0.000 A 
ATOM     33  N   UNL     1       4.439   4.362  19.667  0.00  0.00    +0.000 N 
ATOM     34  H   UNL     1       4.970   4.703  20.458  0.00  0.00    +0.000 HD
ENDBRANCH  22  25
ENDBRANCH  20  21
ENDBRANCH  19  20
ENDBRANCH   3  19
TORSDOF 7
ENDMDL
MODEL 5
REMARK VINA RESULT:      -7.9      4.702      7.126
REMARK  Name = 
REMARK  7 active torsions:
REMARK  status: ('A' for Active; 'I' for Inactive)
REMARK    1  A    between atoms: C_2  and  C_18
REMARK    2  A    between atoms: N_3  and  C_4
REMARK    3  A    between atoms: C_4  and  C_5
REMARK    4  A    between atoms: C_5  and  N_6
REMARK    5  A    between atoms: C_7  and  C_9
REMARK    6  A    between atoms: N_20  and  C_21
REMARK    7  A    between atoms: C_21  and  C_22
REMARK                            x       y       z     vdW  Elec       q    Type
REMARK                         _______ _______ _______ _____ _____    ______ ____
ROOT
ATOM      1  O   UNL     1       2.771   7.367  18.102  0.00  0.00    +0.000 OA
ATOM      2  C   UNL     1       2.345   7.384  19.250  0.00  0.00    +0.000 C 
ATOM      3  N   UNL     1       2.468   6.364  20.169  0.00  0.00    +0.000 N 
ATOM      4  H   UNL     1       2.078   6.529  21.095  0.00  0.00    +0.000 HD
ENDROOT
BRANCH   2   5
ATOM      5  C   UNL     1       1.588   8.628  19.781  0.00  0.00    +0.000 C 
ATOM      6  O   UNL     1       1.405   8.766  20.982  0.00  0.00    +0.000 OA
ATOM      7  N   UNL     1       1.175   9.496  18.796  0.00  0.00    +0.000 N 
ATOM      8  H   UNL     1       1.287   9.188  17.834  0.00  0.00    +0.000 HD
BRANCH   7   9
ATOM      9  C   UNL     1       0.386  10.670  19.089  0.00  0.00    +0.000 C 
BRANCH   9  10
ATOM     10  C   UNL     1       1.245  11.888  19.346  0.00  0.00    +0.000 A 
ATOM     11  C   UNL     1       2.072  12.401  18.316  0.00  0.00    +0.000 A 
ATOM     12  C   UNL     1       2.924  13.490  18.539  0.00  0.00    +0.000 A 
ATOM     13  C   UNL     1       2.937  14.044  19.800  0.00  0.00    +0.000 A 
ATOM     14  C   UNL     1       2.141  13.556  20.810  0.00  0.00    +0.000 A 
ATOM     15  C   UNL     1       1.286  12.487  20.619  0.00  0.00    +0.000 A 
ATOM     16  O   UNL     1       2.316  14.233  21.978  0.00  0.00    +0.000 OA
ATOM     17  C   UNL     1       3.347  15.171  21.596  0.00  0.00    +0.000 C 
ATOM     18  O   UNL     1       3.713  15.082  20.204  0.00  0.00    +0.000 OA
ENDBRANCH   9  10
ENDBRANCH   7   9
ENDBRANCH   2   5
BRANCH   3  19
ATOM     19  C   UNL     1       3.146   5.119  19.874  0.00  0.00    +0.000 C 
BRANCH  19  20
ATOM     20  C   UNL     1       4.634   5.304  19.559  0.00  0.00    +0.000 C 
BRANCH  20  21
ATOM     21  N   UNL     1       4.933   5.052  18.160  0.00  0.00    +0.000 N 
ATOM     22  C   UNL     1       6.153   5.333  17.588  0.00  0.00    +0.000 C 
ATOM     23  O   UNL     1       7.078   5.836  18.218  0.00  0.00    +0.000 OA
ATOM     24  H   UNL     1       4.250   4.540  17.622  0.00  0.00    +0.000 HD
BRANCH  22  25
ATOM     25  C   UNL     1       6.269   4.970  16.190  0.00  0.00    +0.000 A 
ATOM     26  C   UNL     1       5.558   4.076  15.407  0.00  0.00    +0.000 A 
ATOM     27  C   UNL     1       6.103   4.084  14.096  0.00  0.00    +0.000 A 
ATOM     28  C   UNL     1       5.803   3.382  12.913  0.00  0.00    +0.000 A 
ATOM     29  C   UNL     1       6.558   3.627  11.763  0.00  0.00    +0.000 A 
ATOM     30  C   UNL     1       7.592   4.561  11.780  0.00  0.00    +0.000 A 
ATOM     31  C   UNL     1       7.902   5.277  12.942  0.00  0.00    +0.000 A 
ATOM     32  C   UNL     1       7.140   5.014  14.088  0.00  0.00    +0.000 A 
ATOM     33  N   UNL     1       7.209   5.547  15.357  0.00  0.00    +0.000 N 
ATOM     34  H   UNL     1       7.863   6.258  15.656  0.00  0.00    +0.000 HD
ENDBRANCH  22  25
ENDBRANCH  20  21
ENDBRANCH  19  20
ENDBRANCH   3  19
TORSDOF 7
ENDMDL
MODEL 6
REMARK VINA RESULT:      -7.9      5.275      8.132
REMARK  Name = 
REMARK  7 active torsions:
REMARK  status: ('A' for Active; 'I' for Inactive)
REMARK    1  A    between atoms: C_2  and  C_18
REMARK    2  A    between atoms: N_3  and  C_4
REMARK    3  A    between atoms: C_4  and  C_5
REMARK    4  A    between atoms: C_5  and  N_6
REMARK    5  A    between atoms: C_7  and  C_9
REMARK    6  A    between atoms: N_20  and  C_21
REMARK    7  A    between atoms: C_21  and  C_22
REMARK                            x       y       z     vdW  Elec       q    Type
REMARK                         _______ _______ _______ _____ _____    ______ ____
ROOT
ATOM      1  O   UNL     1       1.955   5.019  17.645  0.00  0.00    +0.000 OA
ATOM      2  C   UNL     1       2.602   5.722  18.412  0.00  0.00    +0.000 C 
ATOM      3  N   UNL     1       3.169   5.307  19.598  0.00  0.00    +0.000 N 
ATOM      4  H   UNL     1       3.696   6.001  20.124  0.00  0.00    +0.000 HD
ENDROOT
BRANCH   2   5
ATOM      5  C   UNL     1       2.838   7.218  18.084  0.00  0.00    +0.000 C 
ATOM      6  O   UNL     1       3.884   7.571  17.559  0.00  0.00    +0.000 OA
ATOM      7  N   UNL     1       1.793   8.041  18.437  0.00  0.00    +0.000 N 
ATOM      8  H   UNL     1       1.042   7.625  18.980  0.00  0.00    +0.000 HD
BRANCH   7   9
ATOM      9  C   UNL     1       1.861   9.476  18.283  0.00  0.00    +0.000 C 
BRANCH   9  10
ATOM     10  C   UNL     1       0.878  10.195  19.180  0.00  0.00    +0.000 A 
ATOM     11  C   UNL     1       0.962  10.043  20.587  0.00  0.00    +0.000 A 
ATOM     12  C   UNL     1       0.031  10.646  21.443  0.00  0.00    +0.000 A 
ATOM     13  C   UNL     1      -0.976  11.389  20.869  0.00  0.00    +0.000 A 
ATOM     14  C   UNL     1      -1.071  11.546  19.505  0.00  0.00    +0.000 A 
ATOM     15  C   UNL     1      -0.164  10.968  18.637  0.00  0.00    +0.000 A 
ATOM     16  O   UNL     1      -2.143  12.302  19.146  0.00  0.00    +0.000 OA
ATOM     17  C   UNL     1      -2.735  12.564  20.437  0.00  0.00    +0.000 C 
ATOM     18  O   UNL     1      -1.975  12.022  21.536  0.00  0.00    +0.000 OA
ENDBRANCH   9  10
ENDBRANCH   7   9
ENDBRANCH   2   5
BRANCH   3  19
ATOM     19  C   UNL     1       3.069   3.946  20.083  0.00  0.00    +0.000 C 
BRANCH  19  20
ATOM     20  C   UNL     1       4.293   3.091  19.734  0.00  0.00    +0.000 C 
BRANCH  20  21
ATOM     21  N   UNL     1       4.798   3.377  18.403  0.00  0.00    +0.000 N 
ATOM     22  C   UNL     1       5.845   4.238  18.163  0.00  0.00    +0.000 C 
ATOM     23  O   UNL     1       6.420   4.845  19.061  0.00  0.00    +0.000 OA
ATOM     24  H   UNL     1       4.439   2.825  17.639  0.00  0.00    +0.000 HD
BRANCH  22  25
ATOM     25  C   UNL     1       6.230   4.358  16.771  0.00  0.00    +0.000 A 
ATOM     26  C   UNL     1       7.098   5.223  16.126  0.00  0.00    +0.000 A 
ATOM     27  C   UNL     1       7.089   4.926  14.738  0.00  0.00    +0.000 A 
ATOM     28  C   UNL     1       7.746   5.477  13.621  0.00  0.00    +0.000 A 
ATOM     29  C   UNL     1       7.505   4.940  12.353  0.00  0.00    +0.000 A 
ATOM     30  C   UNL     1       6.632   3.866  12.193  0.00  0.00    +0.000 A 
ATOM     31  C   UNL     1       5.975   3.297  13.291  0.00  0.00    +0.000 A 
ATOM     32  C   UNL     1       6.223   3.852  14.553  0.00  0.00    +0.000 A 
ATOM     33  N   UNL     1       5.731   3.517  15.796  0.00  0.00    +0.000 N 
ATOM     34  H   UNL     1       5.081   2.765  15.982  0.00  0.00    +0.000 HD
ENDBRANCH  22  25
ENDBRANCH  20  21
ENDBRANCH  19  20
ENDBRANCH   3  19
TORSDOF 7
ENDMDL
MODEL 7
REMARK VINA RESULT:      -7.9      4.290      8.151
REMARK  Name = 
REMARK  7 active torsions:
REMARK  status: ('A' for Active; 'I' for Inactive)
REMARK    1  A    between atoms: C_2  and  C_18
REMARK    2  A    between atoms: N_3  and  C_4
REMARK    3  A    between atoms: C_4  and  C_5
REMARK    4  A    between atoms: C_5  and  N_6
REMARK    5  A    between atoms: C_7  and  C_9
REMARK    6  A    between atoms: N_20  and  C_21
REMARK    7  A    between atoms: C_21  and  C_22
REMARK                            x       y       z     vdW  Elec       q    Type
REMARK                         _______ _______ _______ _____ _____    ______ ____
ROOT
ATOM      1  O   UNL     1       4.515   6.870  16.672  0.00  0.00    +0.000 OA
ATOM      2  C   UNL     1       4.226   5.832  17.256  0.00  0.00    +0.000 C 
ATOM      3  N   UNL     1       4.806   4.601  17.041  0.00  0.00    +0.000 N 
ATOM      4  H   UNL     1       4.475   3.829  17.616  0.00  0.00    +0.000 HD
ENDROOT
BRANCH   2   5
ATOM      5  C   UNL     1       3.119   5.832  18.341  0.00  0.00    +0.000 C 
ATOM      6  O   UNL     1       2.457   4.823  18.538  0.00  0.00    +0.000 OA
ATOM      7  N   UNL     1       2.985   7.029  19.006  0.00  0.00    +0.000 N 
ATOM      8  H   UNL     1       3.518   7.817  18.649  0.00  0.00    +0.000 HD
BRANCH   7   9
ATOM      9  C   UNL     1       1.955   7.246  19.995  0.00  0.00    +0.000 C 
BRANCH   9  10
ATOM     10  C   UNL     1       1.426   8.663  19.970  0.00  0.00    +0.000 A 
ATOM     11  C   UNL     1       1.395   9.385  18.751  0.00  0.00    +0.000 A 
ATOM     12  C   UNL     1       0.969  10.718  18.703  0.00  0.00    +0.000 A 
ATOM     13  C   UNL     1       0.585  11.309  19.887  0.00  0.00    +0.000 A 
ATOM     14  C   UNL     1       0.610  10.622  21.078  0.00  0.00    +0.000 A 
ATOM     15  C   UNL     1       1.021   9.304  21.155  0.00  0.00    +0.000 A 
ATOM     16  O   UNL     1       0.208  11.390  22.126  0.00  0.00    +0.000 OA
ATOM     17  C   UNL     1      -0.029  12.651  21.462  0.00  0.00    +0.000 C 
ATOM     18  O   UNL     1       0.169  12.593  20.035  0.00  0.00    +0.000 OA
ENDBRANCH   9  10
ENDBRANCH   7   9
ENDBRANCH   2   5
BRANCH   3  19
ATOM     19  C   UNL     1       5.863   4.389  16.074  0.00  0.00    +0.000 C 
BRANCH  19  20
ATOM     20  C   UNL     1       7.265   4.589  16.661  0.00  0.00    +0.000 C 
BRANCH  20  21
ATOM     21  N   UNL     1       7.553   5.988  16.925  0.00  0.00    +0.000 N 
ATOM     22  C   UNL     1       7.718   6.496  18.193  0.00  0.00    +0.000 C 
ATOM     23  O   UNL     1       7.616   5.804  19.201  0.00  0.00    +0.000 OA
ATOM     24  H   UNL     1       7.756   6.579  16.133  0.00  0.00    +0.000 HD
BRANCH  22  25
ATOM     25  C   UNL     1       8.042   7.907  18.247  0.00  0.00    +0.000 A 
ATOM     26  C   UNL     1       7.612   8.982  17.486  0.00  0.00    +0.000 A 
ATOM     27  C   UNL     1       8.268  10.155  17.943  0.00  0.00    +0.000 A 
ATOM     28  C   UNL     1       8.237  11.505  17.545  0.00  0.00    +0.000 A 
ATOM     29  C   UNL     1       9.032  12.435  18.219  0.00  0.00    +0.000 A 
ATOM     30  C   UNL     1       9.842  12.037  19.280  0.00  0.00    +0.000 A 
ATOM     31  C   UNL     1       9.882  10.702  19.700  0.00  0.00    +0.000 A 
ATOM     32  C   UNL     1       9.084   9.782  19.008  0.00  0.00    +0.000 A 
ATOM     33  N   UNL     1       8.917   8.425  19.182  0.00  0.00    +0.000 N 
ATOM     34  H   UNL     1       9.377   7.867  19.890  0.00  0.00    +0.000 HD
ENDBRANCH  22  25
ENDBRANCH  20  21
ENDBRANCH  19  20
ENDBRANCH   3  19
TORSDOF 7
ENDMDL
MODEL 8
REMARK VINA RESULT:      -7.8      5.764      9.229
REMARK  Name = 
REMARK  7 active torsions:
REMARK  status: ('A' for Active; 'I' for Inactive)
REMARK    1  A    between atoms: C_2  and  C_18
REMARK    2  A    between atoms: N_3  and  C_4
REMARK    3  A    between atoms: C_4  and  C_5
REMARK    4  A    between atoms: C_5  and  N_6
REMARK    5  A    between atoms: C_7  and  C_9
REMARK    6  A    between atoms: N_20  and  C_21
REMARK    7  A    between atoms: C_21  and  C_22
REMARK                            x       y       z     vdW  Elec       q    Type
REMARK                         _______ _______ _______ _____ _____    ______ ____
ROOT
ATOM      1  O   UNL     1       3.334   7.733  17.463  0.00  0.00    +0.000 OA
ATOM      2  C   UNL     1       2.573   8.033  18.375  0.00  0.00    +0.000 C 
ATOM      3  N   UNL     1       2.290   7.252  19.475  0.00  0.00    +0.000 N 
ATOM      4  H   UNL     1       1.649   7.642  20.163  0.00  0.00    +0.000 HD
ENDROOT
BRANCH   2   5
ATOM      5  C   UNL     1       1.826   9.391  18.351  0.00  0.00    +0.000 C 
ATOM      6  O   UNL     1       2.174  10.266  17.571  0.00  0.00    +0.000 OA
ATOM      7  N   UNL     1       0.794   9.480  19.257  0.00  0.00    +0.000 N 
ATOM      8  H   UNL     1       0.701   8.721  19.926  0.00  0.00    +0.000 HD
BRANCH   7   9
ATOM      9  C   UNL     1       0.034  10.695  19.437  0.00  0.00    +0.000 C 
BRANCH   9  10
ATOM     10  C   UNL     1      -1.241  10.700  18.622  0.00  0.00    +0.000 A 
ATOM     11  C   UNL     1      -1.317   9.945  17.425  0.00  0.00    +0.000 A 
ATOM     12  C   UNL     1      -2.460   9.975  16.616  0.00  0.00    +0.000 A 
ATOM     13  C   UNL     1      -3.508  10.771  17.020  0.00  0.00    +0.000 A 
ATOM     14  C   UNL     1      -3.448  11.510  18.178  0.00  0.00    +0.000 A 
ATOM     15  C   UNL     1      -2.337  11.496  19.000  0.00  0.00    +0.000 A 
ATOM     16  O   UNL     1      -4.579  12.238  18.386  0.00  0.00    +0.000 OA
ATOM     17  C   UNL     1      -5.337  11.905  17.201  0.00  0.00    +0.000 C 
ATOM     18  O   UNL     1      -4.679  10.942  16.353  0.00  0.00    +0.000 OA
ENDBRANCH   9  10
ENDBRANCH   7   9
ENDBRANCH   2   5
BRANCH   3  19
ATOM     19  C   UNL     1       2.888   5.951  19.689  0.00  0.00    +0.000 C 
BRANCH  19  20
ATOM     20  C   UNL     1       2.486   4.922  18.628  0.00  0.00    +0.000 C 
BRANCH  20  21
ATOM     21  N   UNL     1       3.385   4.932  17.487  0.00  0.00    +0.000 N 
ATOM     22  C   UNL     1       4.674   4.450  17.540  0.00  0.00    +0.000 C 
ATOM     23  O   UNL     1       5.165   3.990  18.566  0.00  0.00    +0.000 OA
ATOM     24  H   UNL     1       3.001   5.195  16.593  0.00  0.00    +0.000 HD
BRANCH  22  25
ATOM     25  C   UNL     1       5.399   4.509  16.287  0.00  0.00    +0.000 A 
ATOM     26  C   UNL     1       6.503   5.247  15.895  0.00  0.00    +0.000 A 
ATOM     27  C   UNL     1       6.794   4.945  14.539  0.00  0.00    +0.000 A 
ATOM     28  C   UNL     1       7.770   5.396  13.629  0.00  0.00    +0.000 A 
ATOM     29  C   UNL     1       7.777   4.889  12.327  0.00  0.00    +0.000 A 
ATOM     30  C   UNL     1       6.836   3.940  11.931  0.00  0.00    +0.000 A 
ATOM     31  C   UNL     1       5.863   3.470  12.821  0.00  0.00    +0.000 A 
ATOM     32  C   UNL     1       5.866   3.995  14.121  0.00  0.00    +0.000 A 
ATOM     33  N   UNL     1       5.046   3.736  15.198  0.00  0.00    +0.000 N 
ATOM     34  H   UNL     1       4.278   3.079  15.201  0.00  0.00    +0.000 HD
ENDBRANCH  22  25
ENDBRANCH  20  21
ENDBRANCH  19  20
ENDBRANCH   3  19
TORSDOF 7
ENDMDL
MODEL 9
REMARK VINA RESULT:      -7.8      7.357     10.222
REMARK  Name = 
REMARK  7 active torsions:
REMARK  status: ('A' for Active; 'I' for Inactive)
REMARK    1  A    between atoms: C_2  and  C_18
REMARK    2  A    between atoms: N_3  and  C_4
REMARK    3  A    between atoms: C_4  and  C_5
REMARK    4  A    between atoms: C_5  and  N_6
REMARK    5  A    between atoms: C_7  and  C_9
REMARK    6  A    between atoms: N_20  and  C_21
REMARK    7  A    between atoms: C_21  and  C_22
REMARK                            x       y       z     vdW  Elec       q    Type
REMARK                         _______ _______ _______ _____ _____    ______ ____
ROOT
ATOM      1  O   UNL     1       1.908   8.560  19.094  0.00  0.00    +0.000 OA
ATOM      2  C   UNL     1       2.076   7.555  19.774  0.00  0.00    +0.000 C 
ATOM      3  N   UNL     1       1.813   7.443  21.122  0.00  0.00    +0.000 N 
ATOM      4  H   UNL     1       1.985   6.536  21.551  0.00  0.00    +0.000 HD
ENDROOT
BRANCH   2   5
ATOM      5  C   UNL     1       2.633   6.262  19.126  0.00  0.00    +0.000 C 
ATOM      6  O   UNL     1       2.124   5.820  18.106  0.00  0.00    +0.000 OA
ATOM      7  N   UNL     1       3.699   5.711  19.800  0.00  0.00    +0.000 N 
ATOM      8  H   UNL     1       3.933   6.117  20.702  0.00  0.00    +0.000 HD
BRANCH   7   9
ATOM      9  C   UNL     1       4.302   4.463  19.394  0.00  0.00    +0.000 C 
BRANCH   9  10
ATOM     10  C   UNL     1       5.261   4.639  18.237  0.00  0.00    +0.000 A 
ATOM     11  C   UNL     1       6.477   5.340  18.427  0.00  0.00    +0.000 A 
ATOM     12  C   UNL     1       7.359   5.574  17.364  0.00  0.00    +0.000 A 
ATOM     13  C   UNL     1       6.999   5.102  16.122  0.00  0.00    +0.000 A 
ATOM     14  C   UNL     1       5.821   4.420  15.921  0.00  0.00    +0.000 A 
ATOM     15  C   UNL     1       4.935   4.170  16.951  0.00  0.00    +0.000 A 
ATOM     16  O   UNL     1       5.651   4.056  14.621  0.00  0.00    +0.000 OA
ATOM     17  C   UNL     1       6.834   4.628  14.022  0.00  0.00    +0.000 C 
ATOM     18  O   UNL     1       7.713   5.256  14.976  0.00  0.00    +0.000 OA
ENDBRANCH   9  10
ENDBRANCH   7   9
ENDBRANCH   2   5
BRANCH   3  19
ATOM     19  C   UNL     1       1.282   8.535  21.912  0.00  0.00    +0.000 C 
BRANCH  19  20
ATOM     20  C   UNL     1      -0.192   8.830  21.616  0.00  0.00    +0.000 C 
BRANCH  20  21
ATOM     21  N   UNL     1      -0.661  10.020  22.304  0.00  0.00    +0.000 N 
ATOM     22  C   UNL     1      -0.890  11.218  21.666  0.00  0.00    +0.000 C 
ATOM     23  O   UNL     1      -0.698  11.374  20.464  0.00  0.00    +0.000 OA
ATOM     24  H   UNL     1      -0.941   9.922  23.269  0.00  0.00    +0.000 HD
BRANCH  22  25
ATOM     25  C   UNL     1      -1.396  12.276  22.517  0.00  0.00    +0.000 A 
ATOM     26  C   UNL     1      -2.604  12.430  23.177  0.00  0.00    +0.000 A 
ATOM     27  C   UNL     1      -2.595  13.676  23.858  0.00  0.00    +0.000 A 
ATOM     28  C   UNL     1      -3.535  14.354  24.658  0.00  0.00    +0.000 A 
ATOM     29  C   UNL     1      -3.206  15.605  25.187  0.00  0.00    +0.000 A 
ATOM     30  C   UNL     1      -1.960  16.175  24.935  0.00  0.00    +0.000 A 
ATOM     31  C   UNL     1      -1.007  15.515  24.151  0.00  0.00    +0.000 A 
ATOM     32  C   UNL     1      -1.356  14.265  23.622  0.00  0.00    +0.000 A 
ATOM     33  N   UNL     1      -0.645  13.394  22.826  0.00  0.00    +0.000 N 
ATOM     34  H   UNL     1       0.299  13.545  22.494  0.00  0.00    +0.000 HD
ENDBRANCH  22  25
ENDBRANCH  20  21
ENDBRANCH  19  20
ENDBRANCH   3  19
TORSDOF 7
ENDMDL
