MODEL 1
REMARK VINA RESULT:      -6.8      0.000      0.000
REMARK  Name = 
REMARK  8 active torsions:
REMARK  status: ('A' for Active; 'I' for Inactive)
REMARK    1  A    between atoms: C_1  and  O_2
REMARK    2  A    between atoms: O_2  and  C_3
REMARK    3  A    between atoms: C_3  and  C_5
REMARK    4  A    between atoms: C_6  and  C_7
REMARK    5  A    between atoms: C_8  and  C_9
REMARK    6  A    between atoms: N_10  and  S_11
REMARK    7  A    between atoms: S_11  and  C_14
REMARK    8  A    between atoms: C_17  and  C_18
REMARK                            x       y       z     vdW  Elec       q    Type
REMARK                         _______ _______ _______ _____ _____    ______ ____
ROOT
ATOM      1  C   UNL     1       4.915   4.570  18.879  0.00  0.00    +0.000 C 
ATOM      2  C   UNL     1       3.777   4.389  19.854  0.00  0.00    +0.000 C 
ATOM      3  C   UNL     1       2.504   3.670  19.636  0.00  0.00    +0.000 C 
ATOM      4  N   UNL     1       4.058   5.711  19.301  0.00  0.00    +0.000 NA
ENDROOT
BRANCH   4   5
ATOM      5  S   UNL     1       3.002   6.476  18.197  0.00  0.00    +0.000 S 
ATOM      6  O   UNL     1       3.823   7.246  17.276  0.00  0.00    +0.000 OA
ATOM      7  O   UNL     1       2.006   5.561  17.680  0.00  0.00    +0.000 OA
BRANCH   5   8
ATOM      8  C   UNL     1       2.130   7.665  19.193  0.00  0.00    +0.000 A 
ATOM      9  C   UNL     1       1.812   7.368  20.519  0.00  0.00    +0.000 A 
ATOM     10  C   UNL     1       1.096   8.303  21.271  0.00  0.00    +0.000 A 
ATOM     11  C   UNL     1       0.703   9.524  20.703  0.00  0.00    +0.000 A 
ATOM     12  C   UNL     1      -0.024  10.560  21.510  0.00  0.00    +0.000 C 
ATOM     13  C   UNL     1       1.014   9.797  19.366  0.00  0.00    +0.000 A 
ATOM     14  C   UNL     1       1.735   8.876  18.614  0.00  0.00    +0.000 A 
ENDBRANCH   5   8
ENDBRANCH   4   5
BRANCH   1  16
ATOM     15  C   UNL     1       5.985   4.225  16.582  0.00  0.00    +0.000 C 
ATOM     16  C   UNL     1       4.989   4.162  17.477  0.00  0.00    +0.000 C 
BRANCH  15  17
ATOM     17  C   UNL     1       7.314   4.783  16.868  0.00  0.00    +0.000 C 
ATOM     18  O   UNL     1       8.225   4.166  17.394  0.00  0.00    +0.000 OA
BRANCH  17  20
ATOM     19  C   UNL     1       7.342   7.081  17.423  0.00  0.00    +0.000 C 
ATOM     20  O   UNL     1       7.332   6.062  16.422  0.00  0.00    +0.000 OA
ENDBRANCH  17  20
ENDBRANCH  15  17
ENDBRANCH   1  16
TORSDOF 5
ENDMDL
MODEL 2
REMARK VINA RESULT:      -6.6      1.503      2.111
REMARK  Name = 
REMARK  8 active torsions:
REMARK  status: ('A' for Active; 'I' for Inactive)
REMARK    1  A    between atoms: C_1  and  O_2
REMARK    2  A    between atoms: O_2  and  C_3
REMARK    3  A    between atoms: C_3  and  C_5
REMARK    4  A    between atoms: C_6  and  C_7
REMARK    5  A    between atoms: C_8  and  C_9
REMARK    6  A    between atoms: N_10  and  S_11
REMARK    7  A    between atoms: S_11  and  C_14
REMARK    8  A    between atoms: C_17  and  C_18
REMARK                            x       y       z     vdW  Elec       q    Type
REMARK                         _______ _______ _______ _____ _____    ______ ____
ROOT
ATOM      1  C   UNL     1       5.089   5.536  18.414  0.00  0.00    +0.000 C 
ATOM      2  C   UNL     1       4.982   4.412  19.415  0.00  0.00    +0.000 C 
ATOM      3  C   UNL     1       4.400   3.069  19.210  0.00  0.00    +0.000 C 
ATOM      4  N   UNL     1       4.176   5.618  19.586  0.00  0.00    +0.000 NA
ENDROOT
BRANCH   4   5
ATOM      5  S   UNL     1       2.480   5.613  19.385  0.00  0.00    +0.000 S 
ATOM      6  O   UNL     1       2.201   5.039  18.078  0.00  0.00    +0.000 OA
ATOM      7  O   UNL     1       1.800   5.101  20.556  0.00  0.00    +0.000 OA
BRANCH   5   8
ATOM      8  C   UNL     1       2.058   7.338  19.266  0.00  0.00    +0.000 A 
ATOM      9  C   UNL     1       1.510   8.001  20.365  0.00  0.00    +0.000 A 
ATOM     10  C   UNL     1       1.155   9.346  20.237  0.00  0.00    +0.000 A 
ATOM     11  C   UNL     1       1.344  10.022  19.022  0.00  0.00    +0.000 A 
ATOM     12  C   UNL     1       1.013  11.478  18.881  0.00  0.00    +0.000 C 
ATOM     13  C   UNL     1       1.876   9.334  17.924  0.00  0.00    +0.000 A 
ATOM     14  C   UNL     1       2.243   7.999  18.047  0.00  0.00    +0.000 A 
ENDBRANCH   5   8
ENDBRANCH   4   5
BRANCH   1  16
ATOM     15  C   UNL     1       5.178   5.522  15.858  0.00  0.00    +0.000 C 
ATOM     16  C   UNL     1       4.567   5.594  17.048  0.00  0.00    +0.000 C 
BRANCH  15  17
ATOM     17  C   UNL     1       6.630   5.370  15.685  0.00  0.00    +0.000 C 
ATOM     18  O   UNL     1       7.458   6.192  16.039  0.00  0.00    +0.000 OA
BRANCH  17  20
ATOM     19  C   UNL     1       6.183   3.928  13.867  0.00  0.00    +0.000 C 
ATOM     20  O   UNL     1       6.855   4.167  15.104  0.00  0.00    +0.000 OA
ENDBRANCH  17  20
ENDBRANCH  15  17
ENDBRANCH   1  16
TORSDOF 5
ENDMDL
MODEL 3
REMARK VINA RESULT:      -6.5      1.361      1.659
REMARK  Name = 
REMARK  8 active torsions:
REMARK  status: ('A' for Active; 'I' for Inactive)
REMARK    1  A    between atoms: C_1  and  O_2
REMARK    2  A    between atoms: O_2  and  C_3
REMARK    3  A    between atoms: C_3  and  C_5
REMARK    4  A    between atoms: C_6  and  C_7
REMARK    5  A    between atoms: C_8  and  C_9
REMARK    6  A    between atoms: N_10  and  S_11
REMARK    7  A    between atoms: S_11  and  C_14
REMARK    8  A    between atoms: C_17  and  C_18
REMARK                            x       y       z     vdW  Elec       q    Type
REMARK                         _______ _______ _______ _____ _____    ______ ____
ROOT
ATOM      1  C   UNL     1       5.075   4.611  18.784  0.00  0.00    +0.000 C 
ATOM      2  C   UNL     1       4.634   3.484  19.685  0.00  0.00    +0.000 C 
ATOM      3  C   UNL     1       3.992   2.211  19.294  0.00  0.00    +0.000 C 
ATOM      4  N   UNL     1       3.927   4.762  19.718  0.00  0.00    +0.000 NA
ENDROOT
BRANCH   4   5
ATOM      5  S   UNL     1       2.331   4.932  19.133  0.00  0.00    +0.000 S 
ATOM      6  O   UNL     1       2.324   4.471  17.755  0.00  0.00    +0.000 OA
ATOM      7  O   UNL     1       1.355   4.416  20.070  0.00  0.00    +0.000 OA
BRANCH   5   8
ATOM      8  C   UNL     1       2.087   6.694  19.065  0.00  0.00    +0.000 A 
ATOM      9  C   UNL     1       1.656   7.385  20.198  0.00  0.00    +0.000 A 
ATOM     10  C   UNL     1       1.438   8.762  20.110  0.00  0.00    +0.000 A 
ATOM     11  C   UNL     1       1.648   9.442  18.901  0.00  0.00    +0.000 A 
ATOM     12  C   UNL     1       1.465  10.928  18.801  0.00  0.00    +0.000 C 
ATOM     13  C   UNL     1       2.060   8.729  17.769  0.00  0.00    +0.000 A 
ATOM     14  C   UNL     1       2.290   7.360  17.851  0.00  0.00    +0.000 A 
ENDBRANCH   5   8
ENDBRANCH   4   5
BRANCH   1  16
ATOM     15  C   UNL     1       5.768   4.974  16.349  0.00  0.00    +0.000 C 
ATOM     16  C   UNL     1       4.894   4.750  17.339  0.00  0.00    +0.000 C 
BRANCH  15  17
ATOM     17  C   UNL     1       7.213   5.153  16.552  0.00  0.00    +0.000 C 
ATOM     18  O   UNL     1       7.991   4.253  16.821  0.00  0.00    +0.000 OA
BRANCH  17  20
ATOM     19  C   UNL     1       7.552   7.277  17.532  0.00  0.00    +0.000 C 
ATOM     20  O   UNL     1       7.500   6.463  16.360  0.00  0.00    +0.000 OA
ENDBRANCH  17  20
ENDBRANCH  15  17
ENDBRANCH   1  16
TORSDOF 5
ENDMDL
MODEL 4
REMARK VINA RESULT:      -6.4      0.701      1.392
REMARK  Name = 
REMARK  8 active torsions:
REMARK  status: ('A' for Active; 'I' for Inactive)
REMARK    1  A    between atoms: C_1  and  O_2
REMARK    2  A    between atoms: O_2  and  C_3
REMARK    3  A    between atoms: C_3  and  C_5
REMARK    4  A    between atoms: C_6  and  C_7
REMARK    5  A    between atoms: C_8  and  C_9
REMARK    6  A    between atoms: N_10  and  S_11
REMARK    7  A    between atoms: S_11  and  C_14
REMARK    8  A    between atoms: C_17  and  C_18
REMARK                            x       y       z     vdW  Elec       q    Type
REMARK                         _______ _______ _______ _____ _____    ______ ____
ROOT
ATOM      1  C   UNL     1       4.675   4.344  19.168  0.00  0.00    +0.000 C 
ATOM      2  C   UNL     1       3.449   4.314  20.046  0.00  0.00    +0.000 C 
ATOM      3  C   UNL     1       2.131   3.717  19.742  0.00  0.00    +0.000 C 
ATOM      4  N   UNL     1       3.907   5.579  19.479  0.00  0.00    +0.000 NA
ENDROOT
BRANCH   4   5
ATOM      5  S   UNL     1       3.029   6.401  18.265  0.00  0.00    +0.000 S 
ATOM      6  O   UNL     1       3.991   7.126  17.451  0.00  0.00    +0.000 OA
ATOM      7  O   UNL     1       2.051   5.541  17.631  0.00  0.00    +0.000 OA
BRANCH   5   8
ATOM      8  C   UNL     1       2.113   7.635  19.163  0.00  0.00    +0.000 A 
ATOM      9  C   UNL     1       1.732   8.820  18.532  0.00  0.00    +0.000 A 
ATOM     10  C   UNL     1       1.045   9.789  19.267  0.00  0.00    +0.000 A 
ATOM     11  C   UNL     1       0.740   9.576  20.620  0.00  0.00    +0.000 A 
ATOM     12  C   UNL     1      -0.040  10.584  21.411  0.00  0.00    +0.000 C 
ATOM     13  C   UNL     1       1.148   8.389  21.241  0.00  0.00    +0.000 A 
ATOM     14  C   UNL     1       1.823   7.415  20.514  0.00  0.00    +0.000 A 
ENDBRANCH   5   8
ENDBRANCH   4   5
BRANCH   1  16
ATOM     15  C   UNL     1       5.846   3.949  16.929  0.00  0.00    +0.000 C 
ATOM     16  C   UNL     1       4.822   3.875  17.790  0.00  0.00    +0.000 C 
BRANCH  15  17
ATOM     17  C   UNL     1       7.134   4.589  17.234  0.00  0.00    +0.000 C 
ATOM     18  O   UNL     1       7.688   4.545  18.319  0.00  0.00    +0.000 OA
BRANCH  17  20
ATOM     19  C   UNL     1       6.916   4.821  14.892  0.00  0.00    +0.000 C 
ATOM     20  O   UNL     1       7.577   5.190  16.103  0.00  0.00    +0.000 OA
ENDBRANCH  17  20
ENDBRANCH  15  17
ENDBRANCH   1  16
TORSDOF 5
ENDMDL
MODEL 5
REMARK VINA RESULT:      -6.3      1.456      2.185
REMARK  Name = 
REMARK  8 active torsions:
REMARK  status: ('A' for Active; 'I' for Inactive)
REMARK    1  A    between atoms: C_1  and  O_2
REMARK    2  A    between atoms: O_2  and  C_3
REMARK    3  A    between atoms: C_3  and  C_5
REMARK    4  A    between atoms: C_6  and  C_7
REMARK    5  A    between atoms: C_8  and  C_9
REMARK    6  A    between atoms: N_10  and  S_11
REMARK    7  A    between atoms: S_11  and  C_14
REMARK    8  A    between atoms: C_17  and  C_18
REMARK                            x       y       z     vdW  Elec       q    Type
REMARK                         _______ _______ _______ _____ _____    ______ ____
ROOT
ATOM      1  C   UNL     1       5.395   5.690  18.262  0.00  0.00    +0.000 C 
ATOM      2  C   UNL     1       5.294   4.642  19.343  0.00  0.00    +0.000 C 
ATOM      3  C   UNL     1       4.816   3.249  19.212  0.00  0.00    +0.000 C 
ATOM      4  N   UNL     1       4.402   5.798  19.365  0.00  0.00    +0.000 NA
ENDROOT
BRANCH   4   5
ATOM      5  S   UNL     1       2.727   5.658  19.061  0.00  0.00    +0.000 S 
ATOM      6  O   UNL     1       2.575   5.137  17.712  0.00  0.00    +0.000 OA
ATOM      7  O   UNL     1       2.030   5.024  20.161  0.00  0.00    +0.000 OA
BRANCH   5   8
ATOM      8  C   UNL     1       2.160   7.344  19.005  0.00  0.00    +0.000 A 
ATOM      9  C   UNL     1       2.352   8.109  17.854  0.00  0.00    +0.000 A 
ATOM     10  C   UNL     1       1.931   9.441  17.847  0.00  0.00    +0.000 A 
ATOM     11  C   UNL     1       1.322  10.003  18.979  0.00  0.00    +0.000 A 
ATOM     12  C   UNL     1       0.819  11.417  18.972  0.00  0.00    +0.000 C 
ATOM     13  C   UNL     1       1.156   9.226  20.132  0.00  0.00    +0.000 A 
ATOM     14  C   UNL     1       1.563   7.897  20.143  0.00  0.00    +0.000 A 
ENDBRANCH   5   8
ENDBRANCH   4   5
BRANCH   1  16
ATOM     15  C   UNL     1       5.631   5.306  15.745  0.00  0.00    +0.000 C 
ATOM     16  C   UNL     1       4.963   5.607  16.867  0.00  0.00    +0.000 C 
BRANCH  15  17
ATOM     17  C   UNL     1       7.066   4.986  15.701  0.00  0.00    +0.000 C 
ATOM     18  O   UNL     1       7.677   4.427  16.596  0.00  0.00    +0.000 OA
BRANCH  17  20
ATOM     19  C   UNL     1       7.109   4.655  13.362  0.00  0.00    +0.000 C 
ATOM     20  O   UNL     1       7.545   5.395  14.502  0.00  0.00    +0.000 OA
ENDBRANCH  17  20
ENDBRANCH  15  17
ENDBRANCH   1  16
TORSDOF 5
ENDMDL
MODEL 6
REMARK VINA RESULT:      -6.3      1.431      1.959
REMARK  Name = 
REMARK  8 active torsions:
REMARK  status: ('A' for Active; 'I' for Inactive)
REMARK    1  A    between atoms: C_1  and  O_2
REMARK    2  A    between atoms: O_2  and  C_3
REMARK    3  A    between atoms: C_3  and  C_5
REMARK    4  A    between atoms: C_6  and  C_7
REMARK    5  A    between atoms: C_8  and  C_9
REMARK    6  A    between atoms: N_10  and  S_11
REMARK    7  A    between atoms: S_11  and  C_14
REMARK    8  A    between atoms: C_17  and  C_18
REMARK                            x       y       z     vdW  Elec       q    Type
REMARK                         _______ _______ _______ _____ _____    ______ ____
ROOT
ATOM      1  C   UNL     1       5.002   4.536  18.707  0.00  0.00    +0.000 C 
ATOM      2  C   UNL     1       4.607   3.435  19.660  0.00  0.00    +0.000 C 
ATOM      3  C   UNL     1       3.951   2.150  19.337  0.00  0.00    +0.000 C 
ATOM      4  N   UNL     1       3.900   4.712  19.690  0.00  0.00    +0.000 NA
ENDROOT
BRANCH   4   5
ATOM      5  S   UNL     1       2.277   4.864  19.178  0.00  0.00    +0.000 S 
ATOM      6  O   UNL     1       2.201   4.341  17.824  0.00  0.00    +0.000 OA
ATOM      7  O   UNL     1       1.348   4.394  20.185  0.00  0.00    +0.000 OA
BRANCH   5   8
ATOM      8  C   UNL     1       2.034   6.621  19.043  0.00  0.00    +0.000 A 
ATOM      9  C   UNL     1       2.297   7.274  17.838  0.00  0.00    +0.000 A 
ATOM     10  C   UNL     1       2.133   8.659  17.767  0.00  0.00    +0.000 A 
ATOM     11  C   UNL     1       1.709   9.386  18.889  0.00  0.00    +0.000 A 
ATOM     12  C   UNL     1       1.480  10.867  18.817  0.00  0.00    +0.000 C 
ATOM     13  C   UNL     1       1.469   8.718  20.095  0.00  0.00    +0.000 A 
ATOM     14  C   UNL     1       1.620   7.338  20.172  0.00  0.00    +0.000 A 
ENDBRANCH   5   8
ENDBRANCH   4   5
BRANCH   1  16
ATOM     15  C   UNL     1       5.556   4.941  16.244  0.00  0.00    +0.000 C 
ATOM     16  C   UNL     1       4.751   4.633  17.270  0.00  0.00    +0.000 C 
BRANCH  15  17
ATOM     17  C   UNL     1       6.978   5.286  16.388  0.00  0.00    +0.000 C 
ATOM     18  O   UNL     1       7.879   4.473  16.509  0.00  0.00    +0.000 OA
BRANCH  17  20
ATOM     19  C   UNL     1       7.518   7.285  17.527  0.00  0.00    +0.000 C 
ATOM     20  O   UNL     1       7.085   6.636  16.332  0.00  0.00    +0.000 OA
ENDBRANCH  17  20
ENDBRANCH  15  17
ENDBRANCH   1  16
TORSDOF 5
ENDMDL
MODEL 7
REMARK VINA RESULT:      -6.3      2.157      3.092
REMARK  Name = 
REMARK  8 active torsions:
REMARK  status: ('A' for Active; 'I' for Inactive)
REMARK    1  A    between atoms: C_1  and  O_2
REMARK    2  A    between atoms: O_2  and  C_3
REMARK    3  A    between atoms: C_3  and  C_5
REMARK    4  A    between atoms: C_6  and  C_7
REMARK    5  A    between atoms: C_8  and  C_9
REMARK    6  A    between atoms: N_10  and  S_11
REMARK    7  A    between atoms: S_11  and  C_14
REMARK    8  A    between atoms: C_17  and  C_18
REMARK                            x       y       z     vdW  Elec       q    Type
REMARK                         _______ _______ _______ _____ _____    ______ ____
ROOT
ATOM      1  C   UNL     1       5.369   6.083  15.890  0.00  0.00    +0.000 C 
ATOM      2  C   UNL     1       6.045   6.918  16.950  0.00  0.00    +0.000 C 
ATOM      3  C   UNL     1       6.901   6.451  18.061  0.00  0.00    +0.000 C 
ATOM      4  N   UNL     1       4.591   6.784  16.945  0.00  0.00    +0.000 NA
ENDROOT
BRANCH   4   5
ATOM      5  S   UNL     1       3.757   5.910  18.153  0.00  0.00    +0.000 S 
ATOM      6  O   UNL     1       2.873   4.974  17.477  0.00  0.00    +0.000 OA
ATOM      7  O   UNL     1       4.650   5.436  19.190  0.00  0.00    +0.000 OA
BRANCH   5   8
ATOM      8  C   UNL     1       2.701   7.126  18.909  0.00  0.00    +0.000 A 
ATOM      9  C   UNL     1       2.208   6.921  20.198  0.00  0.00    +0.000 A 
ATOM     10  C   UNL     1       1.352   7.874  20.757  0.00  0.00    +0.000 A 
ATOM     11  C   UNL     1       0.993   9.022  20.034  0.00  0.00    +0.000 A 
ATOM     12  C   UNL     1       0.115  10.078  20.637  0.00  0.00    +0.000 C 
ATOM     13  C   UNL     1       1.481   9.201  18.735  0.00  0.00    +0.000 A 
ATOM     14  C   UNL     1       2.342   8.263  18.176  0.00  0.00    +0.000 A 
ENDBRANCH   5   8
ENDBRANCH   4   5
BRANCH   1  16
ATOM     15  C   UNL     1       5.857   3.795  14.858  0.00  0.00    +0.000 C 
ATOM     16  C   UNL     1       5.327   4.626  15.765  0.00  0.00    +0.000 C 
BRANCH  15  17
ATOM     17  C   UNL     1       6.645   4.236  13.698  0.00  0.00    +0.000 C 
ATOM     18  O   UNL     1       7.386   5.204  13.692  0.00  0.00    +0.000 OA
BRANCH  17  20
ATOM     19  C   UNL     1       5.112   3.410  12.100  0.00  0.00    +0.000 C 
ATOM     20  O   UNL     1       6.414   3.366  12.685  0.00  0.00    +0.000 OA
ENDBRANCH  17  20
ENDBRANCH  15  17
ENDBRANCH   1  16
TORSDOF 5
ENDMDL
MODEL 8
REMARK VINA RESULT:      -6.3      2.320      3.472
REMARK  Name = 
REMARK  8 active torsions:
REMARK  status: ('A' for Active; 'I' for Inactive)
REMARK    1  A    between atoms: C_1  and  O_2
REMARK    2  A    between atoms: O_2  and  C_3
REMARK    3  A    between atoms: C_3  and  C_5
REMARK    4  A    between atoms: C_6  and  C_7
REMARK    5  A    between atoms: C_8  and  C_9
REMARK    6  A    between atoms: N_10  and  S_11
REMARK    7  A    between atoms: S_11  and  C_14
REMARK    8  A    between atoms: C_17  and  C_18
REMARK                            x       y       z     vdW  Elec       q    Type
REMARK                         _______ _______ _______ _____ _____    ______ ____
ROOT
ATOM      1  C   UNL     1       5.359   5.972  15.611  0.00  0.00    +0.000 C 
ATOM      2  C   UNL     1       5.865   6.828  16.746  0.00  0.00    +0.000 C 
ATOM      3  C   UNL     1       6.817   6.448  17.811  0.00  0.00    +0.000 C 
ATOM      4  N   UNL     1       4.470   6.398  16.725  0.00  0.00    +0.000 NA
ENDROOT
BRANCH   4   5
ATOM      5  S   UNL     1       3.853   5.264  17.844  0.00  0.00    +0.000 S 
ATOM      6  O   UNL     1       2.942   4.393  17.119  0.00  0.00    +0.000 OA
ATOM      7  O   UNL     1       4.900   4.689  18.663  0.00  0.00    +0.000 OA
BRANCH   5   8
ATOM      8  C   UNL     1       2.840   6.243  18.931  0.00  0.00    +0.000 A 
ATOM      9  C   UNL     1       2.620   7.593  18.655  0.00  0.00    +0.000 A 
ATOM     10  C   UNL     1       1.849   8.350  19.541  0.00  0.00    +0.000 A 
ATOM     11  C   UNL     1       1.304   7.763  20.693  0.00  0.00    +0.000 A 
ATOM     12  C   UNL     1       0.435   8.548  21.630  0.00  0.00    +0.000 C 
ATOM     13  C   UNL     1       1.552   6.412  20.964  0.00  0.00    +0.000 A 
ATOM     14  C   UNL     1       2.309   5.650  20.081  0.00  0.00    +0.000 A 
ENDBRANCH   5   8
ENDBRANCH   4   5
BRANCH   1  16
ATOM     15  C   UNL     1       6.385   3.942  14.443  0.00  0.00    +0.000 C 
ATOM     16  C   UNL     1       5.614   4.555  15.351  0.00  0.00    +0.000 C 
BRANCH  15  17
ATOM     17  C   UNL     1       7.184   4.646  13.430  0.00  0.00    +0.000 C 
ATOM     18  O   UNL     1       7.933   5.579  13.665  0.00  0.00    +0.000 OA
BRANCH  17  20
ATOM     19  C   UNL     1       5.926   3.062  12.208  0.00  0.00    +0.000 C 
ATOM     20  O   UNL     1       6.951   4.055  12.233  0.00  0.00    +0.000 OA
ENDBRANCH  17  20
ENDBRANCH  15  17
ENDBRANCH   1  16
TORSDOF 5
ENDMDL
MODEL 9
REMARK VINA RESULT:      -6.3      1.420      1.541
REMARK  Name = 
REMARK  8 active torsions:
REMARK  status: ('A' for Active; 'I' for Inactive)
REMARK    1  A    between atoms: C_1  and  O_2
REMARK    2  A    between atoms: O_2  and  C_3
REMARK    3  A    between atoms: C_3  and  C_5
REMARK    4  A    between atoms: C_6  and  C_7
REMARK    5  A    between atoms: C_8  and  C_9
REMARK    6  A    between atoms: N_10  and  S_11
REMARK    7  A    between atoms: S_11  and  C_14
REMARK    8  A    between atoms: C_17  and  C_18
REMARK                            x       y       z     vdW  Elec       q    Type
REMARK                         _______ _______ _______ _____ _____    ______ ____
ROOT
ATOM      1  C   UNL     1       5.238   4.205  19.213  0.00  0.00    +0.000 C 
ATOM      2  C   UNL     1       4.121   3.199  19.340  0.00  0.00    +0.000 C 
ATOM      3  C   UNL     1       3.623   2.264  18.308  0.00  0.00    +0.000 C 
ATOM      4  N   UNL     1       3.818   4.628  19.341  0.00  0.00    +0.000 NA
ENDROOT
BRANCH   4   5
ATOM      5  S   UNL     1       3.003   5.384  18.043  0.00  0.00    +0.000 S 
ATOM      6  O   UNL     1       4.012   5.800  17.082  0.00  0.00    +0.000 OA
ATOM      7  O   UNL     1       1.861   4.611  17.600  0.00  0.00    +0.000 OA
BRANCH   5   8
ATOM      8  C   UNL     1       2.357   6.880  18.758  0.00  0.00    +0.000 A 
ATOM      9  C   UNL     1       2.016   6.919  20.111  0.00  0.00    +0.000 A 
ATOM     10  C   UNL     1       1.478   8.094  20.641  0.00  0.00    +0.000 A 
ATOM     11  C   UNL     1       1.282   9.221  19.827  0.00  0.00    +0.000 A 
ATOM     12  C   UNL     1       0.751  10.506  20.390  0.00  0.00    +0.000 C 
ATOM     13  C   UNL     1       1.611   9.156  18.468  0.00  0.00    +0.000 A 
ATOM     14  C   UNL     1       2.158   7.994  17.935  0.00  0.00    +0.000 A 
ENDBRANCH   5   8
ENDBRANCH   4   5
BRANCH   1  16
ATOM     15  C   UNL     1       7.176   5.222  17.890  0.00  0.00    +0.000 C 
ATOM     16  C   UNL     1       6.024   4.553  18.029  0.00  0.00    +0.000 C 
BRANCH  15  17
ATOM     17  C   UNL     1       7.933   5.800  19.010  0.00  0.00    +0.000 C 
ATOM     18  O   UNL     1       8.267   5.186  20.010  0.00  0.00    +0.000 OA
BRANCH  17  20
ATOM     19  C   UNL     1       7.601   7.598  17.514  0.00  0.00    +0.000 C 
ATOM     20  O   UNL     1       8.200   7.093  18.707  0.00  0.00    +0.000 OA
ENDBRANCH  17  20
ENDBRANCH  15  17
ENDBRANCH   1  16
TORSDOF 5
ENDMDL
