MODEL 1
REMARK VINA RESULT:      -7.5      0.000      0.000
REMARK  Name = 
REMARK  8 active torsions:
REMARK  status: ('A' for Active; 'I' for Inactive)
REMARK    1  A    between atoms: C_1  and  C_2
REMARK    2  A    between atoms: C_6  and  C_7
REMARK    3  A    between atoms: C_8  and  O_9
REMARK    4  A    between atoms: O_9  and  C_10
REMARK    5  A    between atoms: C_10  and  C_11
REMARK    6  A    between atoms: C_11  and  O_13
REMARK    7  A    between atoms: O_13  and  C_14
REMARK    8  A    between atoms: C_14  and  C_15
REMARK                            x       y       z     vdW  Elec       q    Type
REMARK                         _______ _______ _______ _____ _____    ______ ____
ROOT
ATOM      1  O   UNL     1       3.325   3.948  20.665  0.00  0.00    +0.000 OA
ENDROOT
BRANCH   1   2
ATOM      2  C   UNL     1       1.998   4.040  20.973  0.00  0.00    +0.000 C 
ATOM      3  O   UNL     1       1.381   3.193  21.615  0.00  0.00    +0.000 OA
BRANCH   2   4
ATOM      4  C   UNL     1       1.381   5.299  20.378  0.00  0.00    +0.000 C 
BRANCH   4   5
ATOM      5  O   UNL     1       2.262   6.404  20.416  0.00  0.00    +0.000 OA
BRANCH   5  13
ATOM      6  C   UNL     1       0.593   8.590  21.992  0.00  0.00    +0.000 C 
ATOM      7  C   UNL     1       1.135   8.645  20.589  0.00  0.00    +0.000 A 
ATOM      8  C   UNL     1       0.846   9.838  19.887  0.00  0.00    +0.000 A 
ATOM      9  C   UNL     1       1.277  10.049  18.581  0.00  0.00    +0.000 A 
ATOM     10  C   UNL     1       2.022   9.067  17.947  0.00  0.00    +0.000 A 
ATOM     11  C   UNL     1       2.331   7.868  18.613  0.00  0.00    +0.000 A 
ATOM     12  C   UNL     1       3.153   6.842  17.878  0.00  0.00    +0.000 C 
ATOM     13  C   UNL     1       1.883   7.638  19.942  0.00  0.00    +0.000 A 
ENDBRANCH   5  13
ENDBRANCH   4   5
ENDBRANCH   2   4
ENDBRANCH   1   2
BRANCH   1  14
ATOM     14  C   UNL     1       3.711   2.708  20.065  0.00  0.00    +0.000 C 
BRANCH  14  15
ATOM     15  C   UNL     1       4.145   2.856  18.601  0.00  0.00    +0.000 C 
ATOM     16  O   UNL     1       3.755   2.082  17.730  0.00  0.00    +0.000 OA
ATOM     17  N   UNL     1       5.003   3.920  18.385  0.00  0.00    +0.000 N 
ATOM     18  C   UNL     1       5.535   4.222  17.129  0.00  0.00    +0.000 A 
ATOM     19  C   UNL     1       4.767   4.207  15.967  0.00  0.00    +0.000 A 
ATOM     20  C   UNL     1       5.391   4.465  14.744  0.00  0.00    +0.000 A 
ATOM     21  C   UNL     1       6.759   4.698  14.723  0.00  0.00    +0.000 A 
ATOM     22 CL   UNL     1       7.588   4.934  13.239  0.00  0.00    +0.000 Cl
ATOM     23  C   UNL     1       7.436   4.727  15.931  0.00  0.00    +0.000 A 
ATOM     24  N   UNL     1       6.845   4.537  17.137  0.00  0.00    +0.000 NA
ATOM     25  H   UNL     1       5.640   4.154  19.136  0.00  0.00    +0.000 HD
ENDBRANCH  14  15
ENDBRANCH   1  14
TORSDOF 6
ENDMDL
MODEL 2
REMARK VINA RESULT:      -7.2      5.226      6.913
REMARK  Name = 
REMARK  8 active torsions:
REMARK  status: ('A' for Active; 'I' for Inactive)
REMARK    1  A    between atoms: C_1  and  C_2
REMARK    2  A    between atoms: C_6  and  C_7
REMARK    3  A    between atoms: C_8  and  O_9
REMARK    4  A    between atoms: O_9  and  C_10
REMARK    5  A    between atoms: C_10  and  C_11
REMARK    6  A    between atoms: C_11  and  O_13
REMARK    7  A    between atoms: O_13  and  C_14
REMARK    8  A    between atoms: C_14  and  C_15
REMARK                            x       y       z     vdW  Elec       q    Type
REMARK                         _______ _______ _______ _____ _____    ______ ____
ROOT
ATOM      1  O   UNL     1       6.791   6.352  18.268  0.00  0.00    +0.000 OA
ENDROOT
BRANCH   1   2
ATOM      2  C   UNL     1       6.858   5.021  17.973  0.00  0.00    +0.000 C 
ATOM      3  O   UNL     1       7.864   4.462  17.541  0.00  0.00    +0.000 OA
BRANCH   2   4
ATOM      4  C   UNL     1       5.517   4.337  18.207  0.00  0.00    +0.000 C 
BRANCH   4   5
ATOM      5  O   UNL     1       4.798   4.907  19.282  0.00  0.00    +0.000 OA
BRANCH   5  13
ATOM      6  C   UNL     1       4.543   1.903  20.258  0.00  0.00    +0.000 C 
ATOM      7  C   UNL     1       3.491   2.977  20.225  0.00  0.00    +0.000 A 
ATOM      8  C   UNL     1       2.216   2.576  20.688  0.00  0.00    +0.000 A 
ATOM      9  C   UNL     1       1.135   3.450  20.725  0.00  0.00    +0.000 A 
ATOM     10  C   UNL     1       1.308   4.760  20.305  0.00  0.00    +0.000 A 
ATOM     11  C   UNL     1       2.561   5.197  19.839  0.00  0.00    +0.000 A 
ATOM     12  C   UNL     1       2.692   6.634  19.406  0.00  0.00    +0.000 C 
ATOM     13  C   UNL     1       3.668   4.307  19.785  0.00  0.00    +0.000 A 
ENDBRANCH   5  13
ENDBRANCH   4   5
ENDBRANCH   2   4
ENDBRANCH   1   2
BRANCH   1  14
ATOM     14  C   UNL     1       8.029   6.930  18.693  0.00  0.00    +0.000 C 
BRANCH  14  15
ATOM     15  C   UNL     1       8.269   8.331  18.119  0.00  0.00    +0.000 C 
ATOM     16  O   UNL     1       7.910   8.634  16.982  0.00  0.00    +0.000 OA
ATOM     17  N   UNL     1       8.922   9.181  18.993  0.00  0.00    +0.000 N 
ATOM     18  C   UNL     1       9.259  10.497  18.662  0.00  0.00    +0.000 A 
ATOM     19  C   UNL     1       8.379  11.352  18.004  0.00  0.00    +0.000 A 
ATOM     20  C   UNL     1       8.815  12.633  17.660  0.00  0.00    +0.000 A 
ATOM     21  C   UNL     1      10.120  13.002  17.958  0.00  0.00    +0.000 A 
ATOM     22 CL   UNL     1      10.732  14.532  17.481  0.00  0.00    +0.000 Cl
ATOM     23  C   UNL     1      10.913  12.098  18.645  0.00  0.00    +0.000 A 
ATOM     24  N   UNL     1      10.496  10.870  19.042  0.00  0.00    +0.000 NA
ATOM     25  H   UNL     1       9.595   8.762  19.622  0.00  0.00    +0.000 HD
ENDBRANCH  14  15
ENDBRANCH   1  14
TORSDOF 6
ENDMDL
MODEL 3
REMARK VINA RESULT:      -7.1      5.068      6.659
REMARK  Name = 
REMARK  8 active torsions:
REMARK  status: ('A' for Active; 'I' for Inactive)
REMARK    1  A    between atoms: C_1  and  C_2
REMARK    2  A    between atoms: C_6  and  C_7
REMARK    3  A    between atoms: C_8  and  O_9
REMARK    4  A    between atoms: O_9  and  C_10
REMARK    5  A    between atoms: C_10  and  C_11
REMARK    6  A    between atoms: C_11  and  O_13
REMARK    7  A    between atoms: O_13  and  C_14
REMARK    8  A    between atoms: C_14  and  C_15
REMARK                            x       y       z     vdW  Elec       q    Type
REMARK                         _______ _______ _______ _____ _____    ______ ____
ROOT
ATOM      1  O   UNL     1       6.623   6.223  18.710  0.00  0.00    +0.000 OA
ENDROOT
BRANCH   1   2
ATOM      2  C   UNL     1       6.375   5.185  17.858  0.00  0.00    +0.000 C 
ATOM      3  O   UNL     1       6.771   5.140  16.696  0.00  0.00    +0.000 OA
BRANCH   2   4
ATOM      4  C   UNL     1       5.510   4.122  18.524  0.00  0.00    +0.000 C 
BRANCH   4   5
ATOM      5  O   UNL     1       4.176   4.138  18.056  0.00  0.00    +0.000 OA
BRANCH   5  13
ATOM      6  C   UNL     1       2.693   6.531  19.512  0.00  0.00    +0.000 C 
ATOM      7  C   UNL     1       2.420   5.054  19.605  0.00  0.00    +0.000 A 
ATOM      8  C   UNL     1       1.359   4.699  20.470  0.00  0.00    +0.000 A 
ATOM      9  C   UNL     1       0.978   3.375  20.666  0.00  0.00    +0.000 A 
ATOM     10  C   UNL     1       1.648   2.370  19.986  0.00  0.00    +0.000 A 
ATOM     11  C   UNL     1       2.707   2.684  19.116  0.00  0.00    +0.000 A 
ATOM     12  C   UNL     1       3.391   1.550  18.398  0.00  0.00    +0.000 C 
ATOM     13  C   UNL     1       3.113   4.032  18.921  0.00  0.00    +0.000 A 
ENDBRANCH   5  13
ENDBRANCH   4   5
ENDBRANCH   2   4
ENDBRANCH   1   2
BRANCH   1  14
ATOM     14  C   UNL     1       7.988   6.650  18.745  0.00  0.00    +0.000 C 
BRANCH  14  15
ATOM     15  C   UNL     1       8.198   8.049  18.153  0.00  0.00    +0.000 C 
ATOM     16  O   UNL     1       7.852   8.324  17.006  0.00  0.00    +0.000 OA
ATOM     17  N   UNL     1       8.809   8.931  19.027  0.00  0.00    +0.000 N 
ATOM     18  C   UNL     1       9.114  10.251  18.682  0.00  0.00    +0.000 A 
ATOM     19  C   UNL     1       8.222  11.069  17.994  0.00  0.00    +0.000 A 
ATOM     20  C   UNL     1       8.627  12.358  17.638  0.00  0.00    +0.000 A 
ATOM     21  C   UNL     1       9.914  12.769  17.955  0.00  0.00    +0.000 A 
ATOM     22 CL   UNL     1      10.491  14.309  17.466  0.00  0.00    +0.000 Cl
ATOM     23  C   UNL     1      10.720  11.900  18.671  0.00  0.00    +0.000 A 
ATOM     24  N   UNL     1      10.332  10.666  19.079  0.00  0.00    +0.000 NA
ATOM     25  H   UNL     1       9.481   8.541  19.675  0.00  0.00    +0.000 HD
ENDBRANCH  14  15
ENDBRANCH   1  14
TORSDOF 6
ENDMDL
MODEL 4
REMARK VINA RESULT:      -7.1      5.005      6.615
REMARK  Name = 
REMARK  8 active torsions:
REMARK  status: ('A' for Active; 'I' for Inactive)
REMARK    1  A    between atoms: C_1  and  C_2
REMARK    2  A    between atoms: C_6  and  C_7
REMARK    3  A    between atoms: C_8  and  O_9
REMARK    4  A    between atoms: O_9  and  C_10
REMARK    5  A    between atoms: C_10  and  C_11
REMARK    6  A    between atoms: C_11  and  O_13
REMARK    7  A    between atoms: O_13  and  C_14
REMARK    8  A    between atoms: C_14  and  C_15
REMARK                            x       y       z     vdW  Elec       q    Type
REMARK                         _______ _______ _______ _____ _____    ______ ____
ROOT
ATOM      1  O   UNL     1       6.670   5.954  17.669  0.00  0.00    +0.000 OA
ENDROOT
BRANCH   1   2
ATOM      2  C   UNL     1       6.110   4.839  18.221  0.00  0.00    +0.000 C 
ATOM      3  O   UNL     1       6.347   4.441  19.359  0.00  0.00    +0.000 OA
BRANCH   2   4
ATOM      4  C   UNL     1       5.195   4.134  17.228  0.00  0.00    +0.000 C 
BRANCH   4   5
ATOM      5  O   UNL     1       3.840   4.505  17.381  0.00  0.00    +0.000 OA
BRANCH   5  13
ATOM      6  C   UNL     1       3.309   1.574  18.465  0.00  0.00    +0.000 C 
ATOM      7  C   UNL     1       2.852   2.889  19.035  0.00  0.00    +0.000 A 
ATOM      8  C   UNL     1       2.073   2.788  20.211  0.00  0.00    +0.000 A 
ATOM      9  C   UNL     1       1.574   3.910  20.865  0.00  0.00    +0.000 A 
ATOM     10  C   UNL     1       1.855   5.170  20.359  0.00  0.00    +0.000 A 
ATOM     11  C   UNL     1       2.628   5.311  19.192  0.00  0.00    +0.000 A 
ATOM     12  C   UNL     1       2.909   6.704  18.694  0.00  0.00    +0.000 C 
ATOM     13  C   UNL     1       3.130   4.170  18.509  0.00  0.00    +0.000 A 
ENDBRANCH   5  13
ENDBRANCH   4   5
ENDBRANCH   2   4
ENDBRANCH   1   2
BRANCH   1  14
ATOM     14  C   UNL     1       7.667   6.583  18.481  0.00  0.00    +0.000 C 
BRANCH  14  15
ATOM     15  C   UNL     1       8.051   7.983  17.987  0.00  0.00    +0.000 C 
ATOM     16  O   UNL     1       7.895   8.321  16.816  0.00  0.00    +0.000 OA
ATOM     17  N   UNL     1       8.585   8.790  18.977  0.00  0.00    +0.000 N 
ATOM     18  C   UNL     1       9.021  10.096  18.738  0.00  0.00    +0.000 A 
ATOM     19  C   UNL     1       8.294  10.998  17.966  0.00  0.00    +0.000 A 
ATOM     20  C   UNL     1       8.830  12.266  17.729  0.00  0.00    +0.000 A 
ATOM     21  C   UNL     1      10.081  12.575  18.244  0.00  0.00    +0.000 A 
ATOM     22 CL   UNL     1      10.822  14.085  17.910  0.00  0.00    +0.000 Cl
ATOM     23  C   UNL     1      10.716  11.626  19.029  0.00  0.00    +0.000 A 
ATOM     24  N   UNL     1      10.193  10.410  19.322  0.00  0.00    +0.000 NA
ATOM     25  H   UNL     1       9.129   8.331  19.697  0.00  0.00    +0.000 HD
ENDBRANCH  14  15
ENDBRANCH   1  14
TORSDOF 6
ENDMDL
MODEL 5
REMARK VINA RESULT:      -7.0      2.936      5.912
REMARK  Name = 
REMARK  8 active torsions:
REMARK  status: ('A' for Active; 'I' for Inactive)
REMARK    1  A    between atoms: C_1  and  C_2
REMARK    2  A    between atoms: C_6  and  C_7
REMARK    3  A    between atoms: C_8  and  O_9
REMARK    4  A    between atoms: O_9  and  C_10
REMARK    5  A    between atoms: C_10  and  C_11
REMARK    6  A    between atoms: C_11  and  O_13
REMARK    7  A    between atoms: O_13  and  C_14
REMARK    8  A    between atoms: C_14  and  C_15
REMARK                            x       y       z     vdW  Elec       q    Type
REMARK                         _______ _______ _______ _____ _____    ______ ____
ROOT
ATOM      1  O   UNL     1       3.246   2.577  21.036  0.00  0.00    +0.000 OA
ENDROOT
BRANCH   1   2
ATOM      2  C   UNL     1       4.502   2.185  20.673  0.00  0.00    +0.000 C 
ATOM      3  O   UNL     1       5.248   1.519  21.388  0.00  0.00    +0.000 OA
BRANCH   2   4
ATOM      4  C   UNL     1       4.869   2.719  19.294  0.00  0.00    +0.000 C 
BRANCH   4   5
ATOM      5  O   UNL     1       5.447   4.007  19.348  0.00  0.00    +0.000 OA
BRANCH   5  13
ATOM      6  C   UNL     1       3.739   3.966  16.679  0.00  0.00    +0.000 C 
ATOM      7  C   UNL     1       4.992   4.739  16.985  0.00  0.00    +0.000 A 
ATOM      8  C   UNL     1       5.467   5.547  15.927  0.00  0.00    +0.000 A 
ATOM      9  C   UNL     1       6.612   6.327  16.049  0.00  0.00    +0.000 A 
ATOM     10  C   UNL     1       7.309   6.324  17.247  0.00  0.00    +0.000 A 
ATOM     11  C   UNL     1       6.868   5.534  18.324  0.00  0.00    +0.000 A 
ATOM     12  C   UNL     1       7.660   5.578  19.604  0.00  0.00    +0.000 C 
ATOM     13  C   UNL     1       5.706   4.723  18.203  0.00  0.00    +0.000 A 
ENDBRANCH   5  13
ENDBRANCH   4   5
ENDBRANCH   2   4
ENDBRANCH   1   2
BRANCH   1  14
ATOM     14  C   UNL     1       2.396   2.934  19.942  0.00  0.00    +0.000 C 
BRANCH  14  15
ATOM     15  C   UNL     1       1.768   4.325  20.094  0.00  0.00    +0.000 C 
ATOM     16  O   UNL     1       0.660   4.482  20.604  0.00  0.00    +0.000 OA
ATOM     17  N   UNL     1       2.562   5.345  19.601  0.00  0.00    +0.000 N 
ATOM     18  C   UNL     1       2.172   6.687  19.619  0.00  0.00    +0.000 A 
ATOM     19  C   UNL     1       1.572   7.276  20.729  0.00  0.00    +0.000 A 
ATOM     20  C   UNL     1       1.160   8.608  20.644  0.00  0.00    +0.000 A 
ATOM     21  C   UNL     1       1.335   9.291  19.449  0.00  0.00    +0.000 A 
ATOM     22 CL   UNL     1       0.769  10.900  19.264  0.00  0.00    +0.000 Cl
ATOM     23  C   UNL     1       1.973   8.635  18.409  0.00  0.00    +0.000 A 
ATOM     24  N   UNL     1       2.433   7.362  18.484  0.00  0.00    +0.000 NA
ATOM     25  H   UNL     1       3.141   5.127  18.799  0.00  0.00    +0.000 HD
ENDBRANCH  14  15
ENDBRANCH   1  14
TORSDOF 6
ENDMDL
MODEL 6
REMARK VINA RESULT:      -7.0      0.323      1.813
REMARK  Name = 
REMARK  8 active torsions:
REMARK  status: ('A' for Active; 'I' for Inactive)
REMARK    1  A    between atoms: C_1  and  C_2
REMARK    2  A    between atoms: C_6  and  C_7
REMARK    3  A    between atoms: C_8  and  O_9
REMARK    4  A    between atoms: O_9  and  C_10
REMARK    5  A    between atoms: C_10  and  C_11
REMARK    6  A    between atoms: C_11  and  O_13
REMARK    7  A    between atoms: O_13  and  C_14
REMARK    8  A    between atoms: C_14  and  C_15
REMARK                            x       y       z     vdW  Elec       q    Type
REMARK                         _______ _______ _______ _____ _____    ______ ____
ROOT
ATOM      1  O   UNL     1       3.195   4.166  20.506  0.00  0.00    +0.000 OA
ENDROOT
BRANCH   1   2
ATOM      2  C   UNL     1       1.848   3.999  20.647  0.00  0.00    +0.000 C 
ATOM      3  O   UNL     1       1.299   2.905  20.759  0.00  0.00    +0.000 OA
BRANCH   2   4
ATOM      4  C   UNL     1       1.119   5.335  20.600  0.00  0.00    +0.000 C 
BRANCH   4   5
ATOM      5  O   UNL     1       1.999   6.437  20.697  0.00  0.00    +0.000 OA
BRANCH   5  13
ATOM      6  C   UNL     1       3.217   6.718  17.784  0.00  0.00    +0.000 C 
ATOM      7  C   UNL     1       2.404   7.712  18.568  0.00  0.00    +0.000 A 
ATOM      8  C   UNL     1       2.164   8.938  17.906  0.00  0.00    +0.000 A 
ATOM      9  C   UNL     1       1.427   9.963  18.491  0.00  0.00    +0.000 A 
ATOM     10  C   UNL     1       0.900   9.777  19.760  0.00  0.00    +0.000 A 
ATOM     11  C   UNL     1       1.115   8.571  20.450  0.00  0.00    +0.000 A 
ATOM     12  C   UNL     1       0.509   8.423  21.821  0.00  0.00    +0.000 C 
ATOM     13  C   UNL     1       1.879   7.524  19.865  0.00  0.00    +0.000 A 
ENDBRANCH   5  13
ENDBRANCH   4   5
ENDBRANCH   2   4
ENDBRANCH   1   2
BRANCH   1  14
ATOM     14  C   UNL     1       3.890   3.014  20.021  0.00  0.00    +0.000 C 
BRANCH  14  15
ATOM     15  C   UNL     1       4.234   3.101  18.528  0.00  0.00    +0.000 C 
ATOM     16  O   UNL     1       3.716   2.353  17.701  0.00  0.00    +0.000 OA
ATOM     17  N   UNL     1       5.167   4.078  18.233  0.00  0.00    +0.000 N 
ATOM     18  C   UNL     1       5.637   4.312  16.938  0.00  0.00    +0.000 A 
ATOM     19  C   UNL     1       4.793   4.351  15.832  0.00  0.00    +0.000 A 
ATOM     20  C   UNL     1       5.352   4.533  14.564  0.00  0.00    +0.000 A 
ATOM     21  C   UNL     1       6.730   4.639  14.446  0.00  0.00    +0.000 A 
ATOM     22 CL   UNL     1       7.473   4.777  12.906  0.00  0.00    +0.000 Cl
ATOM     23  C   UNL     1       7.489   4.623  15.605  0.00  0.00    +0.000 A 
ATOM     24  N   UNL     1       6.967   4.506  16.852  0.00  0.00    +0.000 NA
ATOM     25  H   UNL     1       5.873   4.263  18.935  0.00  0.00    +0.000 HD
ENDBRANCH  14  15
ENDBRANCH   1  14
TORSDOF 6
ENDMDL
MODEL 7
REMARK VINA RESULT:      -7.0      5.385      6.998
REMARK  Name = 
REMARK  8 active torsions:
REMARK  status: ('A' for Active; 'I' for Inactive)
REMARK    1  A    between atoms: C_1  and  C_2
REMARK    2  A    between atoms: C_6  and  C_7
REMARK    3  A    between atoms: C_8  and  O_9
REMARK    4  A    between atoms: O_9  and  C_10
REMARK    5  A    between atoms: C_10  and  C_11
REMARK    6  A    between atoms: C_11  and  O_13
REMARK    7  A    between atoms: O_13  and  C_14
REMARK    8  A    between atoms: C_14  and  C_15
REMARK                            x       y       z     vdW  Elec       q    Type
REMARK                         _______ _______ _______ _____ _____    ______ ____
ROOT
ATOM      1  O   UNL     1       7.580   6.101  17.847  0.00  0.00    +0.000 OA
ENDROOT
BRANCH   1   2
ATOM      2  C   UNL     1       6.222   5.963  17.862  0.00  0.00    +0.000 C 
ATOM      3  O   UNL     1       5.450   6.697  17.249  0.00  0.00    +0.000 OA
BRANCH   2   4
ATOM      4  C   UNL     1       5.795   4.816  18.768  0.00  0.00    +0.000 C 
BRANCH   4   5
ATOM      5  O   UNL     1       4.527   5.032  19.356  0.00  0.00    +0.000 OA
BRANCH   5  13
ATOM      6  C   UNL     1       4.466   2.033  20.379  0.00  0.00    +0.000 C 
ATOM      7  C   UNL     1       3.418   2.790  19.610  0.00  0.00    +0.000 A 
ATOM      8  C   UNL     1       2.254   2.048  19.302  0.00  0.00    +0.000 A 
ATOM      9  C   UNL     1       1.189   2.602  18.599  0.00  0.00    +0.000 A 
ATOM     10  C   UNL     1       1.260   3.925  18.194  0.00  0.00    +0.000 A 
ATOM     11  C   UNL     1       2.401   4.697  18.483  0.00  0.00    +0.000 A 
ATOM     12  C   UNL     1       2.417   6.132  18.026  0.00  0.00    +0.000 C 
ATOM     13  C   UNL     1       3.499   4.135  19.188  0.00  0.00    +0.000 A 
ENDBRANCH   5  13
ENDBRANCH   4   5
ENDBRANCH   2   4
ENDBRANCH   1   2
BRANCH   1  14
ATOM     14  C   UNL     1       8.092   7.043  18.795  0.00  0.00    +0.000 C 
BRANCH  14  15
ATOM     15  C   UNL     1       8.336   8.432  18.192  0.00  0.00    +0.000 C 
ATOM     16  O   UNL     1       7.967   8.717  17.055  0.00  0.00    +0.000 OA
ATOM     17  N   UNL     1       9.003   9.294  19.045  0.00  0.00    +0.000 N 
ATOM     18  C   UNL     1       9.345  10.601  18.687  0.00  0.00    +0.000 A 
ATOM     19  C   UNL     1       8.464  11.449  18.022  0.00  0.00    +0.000 A 
ATOM     20  C   UNL     1       8.905  12.722  17.651  0.00  0.00    +0.000 A 
ATOM     21  C   UNL     1      10.215  13.087  17.929  0.00  0.00    +0.000 A 
ATOM     22 CL   UNL     1      10.832  14.603  17.417  0.00  0.00    +0.000 Cl
ATOM     23  C   UNL     1      11.010  12.190  18.624  0.00  0.00    +0.000 A 
ATOM     24  N   UNL     1      10.589  10.972  19.047  0.00  0.00    +0.000 NA
ATOM     25  H   UNL     1       9.680   8.881  19.675  0.00  0.00    +0.000 HD
ENDBRANCH  14  15
ENDBRANCH   1  14
TORSDOF 6
ENDMDL
MODEL 8
REMARK VINA RESULT:      -6.9      6.369      7.935
REMARK  Name = 
REMARK  8 active torsions:
REMARK  status: ('A' for Active; 'I' for Inactive)
REMARK    1  A    between atoms: C_1  and  C_2
REMARK    2  A    between atoms: C_6  and  C_7
REMARK    3  A    between atoms: C_8  and  O_9
REMARK    4  A    between atoms: O_9  and  C_10
REMARK    5  A    between atoms: C_10  and  C_11
REMARK    6  A    between atoms: C_11  and  O_13
REMARK    7  A    between atoms: O_13  and  C_14
REMARK    8  A    between atoms: C_14  and  C_15
REMARK                            x       y       z     vdW  Elec       q    Type
REMARK                         _______ _______ _______ _____ _____    ______ ____
ROOT
ATOM      1  O   UNL     1       8.086   7.434  18.515  0.00  0.00    +0.000 OA
ENDROOT
BRANCH   1   2
ATOM      2  C   UNL     1       7.453   6.453  17.808  0.00  0.00    +0.000 C 
ATOM      3  O   UNL     1       7.484   6.360  16.583  0.00  0.00    +0.000 OA
BRANCH   2   4
ATOM      4  C   UNL     1       6.673   5.525  18.730  0.00  0.00    +0.000 C 
BRANCH   4   5
ATOM      5  O   UNL     1       5.656   4.816  18.052  0.00  0.00    +0.000 OA
BRANCH   5  13
ATOM      6  C   UNL     1       4.690   2.454  19.931  0.00  0.00    +0.000 C 
ATOM      7  C   UNL     1       3.911   3.638  19.427  0.00  0.00    +0.000 A 
ATOM      8  C   UNL     1       2.563   3.688  19.851  0.00  0.00    +0.000 A 
ATOM      9  C   UNL     1       1.708   4.719  19.476  0.00  0.00    +0.000 A 
ATOM     10  C   UNL     1       2.189   5.738  18.670  0.00  0.00    +0.000 A 
ATOM     11  C   UNL     1       3.525   5.725  18.229  0.00  0.00    +0.000 A 
ATOM     12  C   UNL     1       3.995   6.865  17.363  0.00  0.00    +0.000 C 
ATOM     13  C   UNL     1       4.402   4.668  18.595  0.00  0.00    +0.000 A 
ENDBRANCH   5  13
ENDBRANCH   4   5
ENDBRANCH   2   4
ENDBRANCH   1   2
BRANCH   1  14
ATOM     14  C   UNL     1       8.126   8.706  17.862  0.00  0.00    +0.000 C 
BRANCH  14  15
ATOM     15  C   UNL     1       8.966   9.745  18.616  0.00  0.00    +0.000 C 
ATOM     16  O   UNL     1       9.146   9.672  19.830  0.00  0.00    +0.000 OA
ATOM     17  N   UNL     1       9.473  10.742  17.801  0.00  0.00    +0.000 N 
ATOM     18  C   UNL     1      10.246  11.799  18.288  0.00  0.00    +0.000 A 
ATOM     19  C   UNL     1      11.268  11.613  19.215  0.00  0.00    +0.000 A 
ATOM     20  C   UNL     1      11.956  12.732  19.693  0.00  0.00    +0.000 A 
ATOM     21  C   UNL     1      11.578  13.992  19.251  0.00  0.00    +0.000 A 
ATOM     22 CL   UNL     1      12.331  15.403  19.871  0.00  0.00    +0.000 Cl
ATOM     23  C   UNL     1      10.573  14.078  18.301  0.00  0.00    +0.000 A 
ATOM     24  N   UNL     1       9.929  13.005  17.779  0.00  0.00    +0.000 NA
ATOM     25  H   UNL     1       8.906  11.016  17.009  0.00  0.00    +0.000 HD
ENDBRANCH  14  15
ENDBRANCH   1  14
TORSDOF 6
ENDMDL
MODEL 9
REMARK VINA RESULT:      -6.9      6.517      8.051
REMARK  Name = 
REMARK  8 active torsions:
REMARK  status: ('A' for Active; 'I' for Inactive)
REMARK    1  A    between atoms: C_1  and  C_2
REMARK    2  A    between atoms: C_6  and  C_7
REMARK    3  A    between atoms: C_8  and  O_9
REMARK    4  A    between atoms: O_9  and  C_10
REMARK    5  A    between atoms: C_10  and  C_11
REMARK    6  A    between atoms: C_11  and  O_13
REMARK    7  A    between atoms: O_13  and  C_14
REMARK    8  A    between atoms: C_14  and  C_15
REMARK                            x       y       z     vdW  Elec       q    Type
REMARK                         _______ _______ _______ _____ _____    ______ ____
ROOT
ATOM      1  O   UNL     1       7.734   7.825  18.273  0.00  0.00    +0.000 OA
ENDROOT
BRANCH   1   2
ATOM      2  C   UNL     1       7.251   6.849  17.449  0.00  0.00    +0.000 C 
ATOM      3  O   UNL     1       7.630   6.674  16.294  0.00  0.00    +0.000 OA
BRANCH   2   4
ATOM      4  C   UNL     1       6.154   6.043  18.135  0.00  0.00    +0.000 C 
BRANCH   4   5
ATOM      5  O   UNL     1       4.876   6.289  17.584  0.00  0.00    +0.000 OA
BRANCH   5  13
ATOM      6  C   UNL     1       2.467   6.773  19.586  0.00  0.00    +0.000 C 
ATOM      7  C   UNL     1       2.731   5.591  18.695  0.00  0.00    +0.000 A 
ATOM      8  C   UNL     1       1.768   4.558  18.776  0.00  0.00    +0.000 A 
ATOM      9  C   UNL     1       1.864   3.397  18.016  0.00  0.00    +0.000 A 
ATOM     10  C   UNL     1       2.928   3.247  17.140  0.00  0.00    +0.000 A 
ATOM     11  C   UNL     1       3.905   4.253  17.029  0.00  0.00    +0.000 A 
ATOM     12  C   UNL     1       5.032   4.039  16.054  0.00  0.00    +0.000 C 
ATOM     13  C   UNL     1       3.823   5.436  17.813  0.00  0.00    +0.000 A 
ENDBRANCH   5  13
ENDBRANCH   4   5
ENDBRANCH   2   4
ENDBRANCH   1   2
BRANCH   1  14
ATOM     14  C   UNL     1       8.006   9.070  17.623  0.00  0.00    +0.000 C 
BRANCH  14  15
ATOM     15  C   UNL     1       8.830  10.034  18.487  0.00  0.00    +0.000 C 
ATOM     16  O   UNL     1       9.263   9.704  19.589  0.00  0.00    +0.000 OA
ATOM     17  N   UNL     1       9.014  11.275  17.905  0.00  0.00    +0.000 N 
ATOM     18  C   UNL     1       9.717  12.309  18.531  0.00  0.00    +0.000 A 
ATOM     19  C   UNL     1      10.923  12.099  19.194  0.00  0.00    +0.000 A 
ATOM     20  C   UNL     1      11.532  13.177  19.842  0.00  0.00    +0.000 A 
ATOM     21  C   UNL     1      10.900  14.412  19.829  0.00  0.00    +0.000 A 
ATOM     22 CL   UNL     1      11.561  15.747  20.681  0.00  0.00    +0.000 Cl
ATOM     23  C   UNL     1       9.720  14.536  19.114  0.00  0.00    +0.000 A 
ATOM     24  N   UNL     1       9.138  13.521  18.429  0.00  0.00    +0.000 NA
ATOM     25  H   UNL     1       8.265  11.623  17.320  0.00  0.00    +0.000 HD
ENDBRANCH  14  15
ENDBRANCH   1  14
TORSDOF 6
ENDMDL
