MODEL 1
REMARK VINA RESULT:      -7.4      0.000      0.000
REMARK  Name = 
REMARK  1 active torsions:
REMARK  status: ('A' for Active; 'I' for Inactive)
REMARK    1  A    between atoms: C_1  and  N_2
REMARK                            x       y       z     vdW  Elec       q    Type
REMARK                         _______ _______ _______ _____ _____    ______ ____
ROOT
ATOM      1  C   UNL     1       1.831   7.343  20.281  0.00  0.00    +0.000 C 
ATOM      2  N   UNL     1       2.459   6.371  19.356  0.00  0.00    +0.000 N 
ATOM      3  C   UNL     1       3.293   6.856  18.412  0.00  0.00    +0.000 A 
ATOM      4  C   UNL     1       3.935   6.035  17.495  0.00  0.00    +0.000 A 
ATOM      5  C   UNL     1       4.795   6.591  16.530  0.00  0.00    +0.000 A 
ATOM      6  C   UNL     1       5.446   5.782  15.603  0.00  0.00    +0.000 A 
ATOM      7  C   UNL     1       5.243   4.412  15.632  0.00  0.00    +0.000 A 
ATOM      8  C   UNL     1       4.390   3.854  16.588  0.00  0.00    +0.000 A 
ATOM      9  C   UNL     1       3.710   4.647  17.548  0.00  0.00    +0.000 A 
ATOM     10  C   UNL     1       2.826   4.135  18.548  0.00  0.00    +0.000 A 
ATOM     11  C   UNL     1       2.530   2.756  18.687  0.00  0.00    +0.000 A 
ATOM     12  C   UNL     1       1.663   2.275  19.669  0.00  0.00    +0.000 A 
ATOM     13  C   UNL     1       1.061   3.156  20.548  0.00  0.00    +0.000 A 
ATOM     14  C   UNL     1       1.325   4.520  20.444  0.00  0.00    +0.000 A 
ATOM     15  C   UNL     1       2.199   5.033  19.458  0.00  0.00    +0.000 A 
ENDROOT
TORSDOF 0
ENDMDL
MODEL 2
REMARK VINA RESULT:      -7.2      1.987      4.867
REMARK  Name = 
REMARK  1 active torsions:
REMARK  status: ('A' for Active; 'I' for Inactive)
REMARK    1  A    between atoms: C_1  and  N_2
REMARK                            x       y       z     vdW  Elec       q    Type
REMARK                         _______ _______ _______ _____ _____    ______ ____
ROOT
ATOM      1  C   UNL     1       7.579   5.825  19.102  0.00  0.00    +0.000 C 
ATOM      2  N   UNL     1       6.282   5.333  18.585  0.00  0.00    +0.000 N 
ATOM      3  C   UNL     1       5.250   5.259  19.453  0.00  0.00    +0.000 A 
ATOM      4  C   UNL     1       3.991   4.813  19.074  0.00  0.00    +0.000 A 
ATOM      5  C   UNL     1       2.950   4.754  20.018  0.00  0.00    +0.000 A 
ATOM      6  C   UNL     1       1.682   4.308  19.655  0.00  0.00    +0.000 A 
ATOM      7  C   UNL     1       1.444   3.918  18.347  0.00  0.00    +0.000 A 
ATOM      8  C   UNL     1       2.475   3.974  17.405  0.00  0.00    +0.000 A 
ATOM      9  C   UNL     1       3.779   4.422  17.739  0.00  0.00    +0.000 A 
ATOM     10  C   UNL     1       4.873   4.501  16.821  0.00  0.00    +0.000 A 
ATOM     11  C   UNL     1       4.766   4.132  15.457  0.00  0.00    +0.000 A 
ATOM     12  C   UNL     1       5.846   4.214  14.576  0.00  0.00    +0.000 A 
ATOM     13  C   UNL     1       7.071   4.670  15.028  0.00  0.00    +0.000 A 
ATOM     14  C   UNL     1       7.216   5.042  16.363  0.00  0.00    +0.000 A 
ATOM     15  C   UNL     1       6.139   4.967  17.276  0.00  0.00    +0.000 A 
ENDROOT
TORSDOF 0
ENDMDL
MODEL 3
REMARK VINA RESULT:      -7.0      0.833      4.354
REMARK  Name = 
REMARK  1 active torsions:
REMARK  status: ('A' for Active; 'I' for Inactive)
REMARK    1  A    between atoms: C_1  and  N_2
REMARK                            x       y       z     vdW  Elec       q    Type
REMARK                         _______ _______ _______ _____ _____    ______ ____
ROOT
ATOM      1  C   UNL     1       3.168   8.061  17.838  0.00  0.00    +0.000 C 
ATOM      2  N   UNL     1       3.143   6.587  17.983  0.00  0.00    +0.000 N 
ATOM      3  C   UNL     1       2.268   6.061  18.866  0.00  0.00    +0.000 A 
ATOM      4  C   UNL     1       2.161   4.694  19.081  0.00  0.00    +0.000 A 
ATOM      5  C   UNL     1       1.232   4.197  20.014  0.00  0.00    +0.000 A 
ATOM      6  C   UNL     1       1.112   2.829  20.243  0.00  0.00    +0.000 A 
ATOM      7  C   UNL     1       1.918   1.947  19.541  0.00  0.00    +0.000 A 
ATOM      8  C   UNL     1       2.843   2.435  18.614  0.00  0.00    +0.000 A 
ATOM      9  C   UNL     1       2.992   3.821  18.355  0.00  0.00    +0.000 A 
ATOM     10  C   UNL     1       3.920   4.380  17.421  0.00  0.00    +0.000 A 
ATOM     11  C   UNL     1       4.802   3.592  16.641  0.00  0.00    +0.000 A 
ATOM     12  C   UNL     1       5.701   4.156  15.734  0.00  0.00    +0.000 A 
ATOM     13  C   UNL     1       5.749   5.529  15.575  0.00  0.00    +0.000 A 
ATOM     14  C   UNL     1       4.898   6.339  16.323  0.00  0.00    +0.000 A 
ATOM     15  C   UNL     1       3.978   5.793  17.249  0.00  0.00    +0.000 A 
ENDROOT
TORSDOF 0
ENDMDL
MODEL 4
REMARK VINA RESULT:      -6.9      1.122      4.391
REMARK  Name = 
REMARK  1 active torsions:
REMARK  status: ('A' for Active; 'I' for Inactive)
REMARK    1  A    between atoms: C_1  and  N_2
REMARK                            x       y       z     vdW  Elec       q    Type
REMARK                         _______ _______ _______ _____ _____    ______ ____
ROOT
ATOM      1  C   UNL     1       2.756   8.282  17.836  0.00  0.00    +0.000 C 
ATOM      2  N   UNL     1       3.050   6.901  18.279  0.00  0.00    +0.000 N 
ATOM      3  C   UNL     1       2.407   6.445  19.376  0.00  0.00    +0.000 A 
ATOM      4  C   UNL     1       2.607   5.167  19.877  0.00  0.00    +0.000 A 
ATOM      5  C   UNL     1       1.912   4.741  21.024  0.00  0.00    +0.000 A 
ATOM      6  C   UNL     1       2.101   3.463  21.541  0.00  0.00    +0.000 A 
ATOM      7  C   UNL     1       2.987   2.599  20.916  0.00  0.00    +0.000 A 
ATOM      8  C   UNL     1       3.681   3.016  19.778  0.00  0.00    +0.000 A 
ATOM      9  C   UNL     1       3.513   4.311  19.223  0.00  0.00    +0.000 A 
ATOM     10  C   UNL     1       4.195   4.795  18.063  0.00  0.00    +0.000 A 
ATOM     11  C   UNL     1       5.127   4.017  17.332  0.00  0.00    +0.000 A 
ATOM     12  C   UNL     1       5.783   4.507  16.202  0.00  0.00    +0.000 A 
ATOM     13  C   UNL     1       5.530   5.794  15.762  0.00  0.00    +0.000 A 
ATOM     14  C   UNL     1       4.620   6.591  16.454  0.00  0.00    +0.000 A 
ATOM     15  C   UNL     1       3.943   6.118  17.602  0.00  0.00    +0.000 A 
ENDROOT
TORSDOF 0
ENDMDL
MODEL 5
REMARK VINA RESULT:      -6.9      1.132      2.952
REMARK  Name = 
REMARK  1 active torsions:
REMARK  status: ('A' for Active; 'I' for Inactive)
REMARK    1  A    between atoms: C_1  and  N_2
REMARK                            x       y       z     vdW  Elec       q    Type
REMARK                         _______ _______ _______ _____ _____    ______ ____
ROOT
ATOM      1  C   UNL     1       2.366   2.133  19.406  0.00  0.00    +0.000 C 
ATOM      2  N   UNL     1       2.902   3.343  18.744  0.00  0.00    +0.000 N 
ATOM      3  C   UNL     1       3.706   3.166  17.673  0.00  0.00    +0.000 A 
ATOM      4  C   UNL     1       4.262   4.230  16.977  0.00  0.00    +0.000 A 
ATOM      5  C   UNL     1       5.094   3.991  15.868  0.00  0.00    +0.000 A 
ATOM      6  C   UNL     1       5.661   5.046  15.160  0.00  0.00    +0.000 A 
ATOM      7  C   UNL     1       5.402   6.349  15.553  0.00  0.00    +0.000 A 
ATOM      8  C   UNL     1       4.577   6.593  16.655  0.00  0.00    +0.000 A 
ATOM      9  C   UNL     1       3.983   5.543  17.400  0.00  0.00    +0.000 A 
ATOM     10  C   UNL     1       3.133   5.729  18.535  0.00  0.00    +0.000 A 
ATOM     11  C   UNL     1       2.789   7.007  19.043  0.00  0.00    +0.000 A 
ATOM     12  C   UNL     1       1.958   7.169  20.152  0.00  0.00    +0.000 A 
ATOM     13  C   UNL     1       1.440   6.058  20.794  0.00  0.00    +0.000 A 
ATOM     14  C   UNL     1       1.755   4.784  20.325  0.00  0.00    +0.000 A 
ATOM     15  C   UNL     1       2.595   4.593  19.203  0.00  0.00    +0.000 A 
ENDROOT
TORSDOF 0
ENDMDL
MODEL 6
REMARK VINA RESULT:      -6.8      1.573      4.305
REMARK  Name = 
REMARK  1 active torsions:
REMARK  status: ('A' for Active; 'I' for Inactive)
REMARK    1  A    between atoms: C_1  and  N_2
REMARK                            x       y       z     vdW  Elec       q    Type
REMARK                         _______ _______ _______ _____ _____    ______ ____
ROOT
ATOM      1  C   UNL     1       3.043   8.113  17.807  0.00  0.00    +0.000 C 
ATOM      2  N   UNL     1       3.298   6.655  17.835  0.00  0.00    +0.000 N 
ATOM      3  C   UNL     1       2.266   5.846  18.158  0.00  0.00    +0.000 A 
ATOM      4  C   UNL     1       2.394   4.465  18.213  0.00  0.00    +0.000 A 
ATOM      5  C   UNL     1       1.287   3.666  18.555  0.00  0.00    +0.000 A 
ATOM      6  C   UNL     1       1.398   2.280  18.616  0.00  0.00    +0.000 A 
ATOM      7  C   UNL     1       2.615   1.680  18.335  0.00  0.00    +0.000 A 
ATOM      8  C   UNL     1       3.718   2.468  17.996  0.00  0.00    +0.000 A 
ATOM      9  C   UNL     1       3.642   3.883  17.924  0.00  0.00    +0.000 A 
ATOM     10  C   UNL     1       4.735   4.741  17.584  0.00  0.00    +0.000 A 
ATOM     11  C   UNL     1       6.031   4.258  17.277  0.00  0.00    +0.000 A 
ATOM     12  C   UNL     1       7.085   5.112  16.948  0.00  0.00    +0.000 A 
ATOM     13  C   UNL     1       6.880   6.479  16.913  0.00  0.00    +0.000 A 
ATOM     14  C   UNL     1       5.619   6.993  17.208  0.00  0.00    +0.000 A 
ATOM     15  C   UNL     1       4.535   6.150  17.545  0.00  0.00    +0.000 A 
ENDROOT
TORSDOF 0
ENDMDL
MODEL 7
REMARK VINA RESULT:      -6.7      1.391      2.963
REMARK  Name = 
REMARK  1 active torsions:
REMARK  status: ('A' for Active; 'I' for Inactive)
REMARK    1  A    between atoms: C_1  and  N_2
REMARK                            x       y       z     vdW  Elec       q    Type
REMARK                         _______ _______ _______ _____ _____    ______ ____
ROOT
ATOM      1  C   UNL     1       3.732   1.133  18.304  0.00  0.00    +0.000 C 
ATOM      2  N   UNL     1       3.679   2.609  18.210  0.00  0.00    +0.000 N 
ATOM      3  C   UNL     1       4.405   3.200  17.237  0.00  0.00    +0.000 A 
ATOM      4  C   UNL     1       4.427   4.576  17.058  0.00  0.00    +0.000 A 
ATOM      5  C   UNL     1       5.202   5.142  16.028  0.00  0.00    +0.000 A 
ATOM      6  C   UNL     1       5.236   6.520  15.836  0.00  0.00    +0.000 A 
ATOM      7  C   UNL     1       4.498   7.344  16.670  0.00  0.00    +0.000 A 
ATOM      8  C   UNL     1       3.728   6.788  17.695  0.00  0.00    +0.000 A 
ATOM      9  C   UNL     1       3.669   5.389  17.921  0.00  0.00    +0.000 A 
ATOM     10  C   UNL     1       2.901   4.762  18.952  0.00  0.00    +0.000 A 
ATOM     11  C   UNL     1       2.105   5.487  19.873  0.00  0.00    +0.000 A 
ATOM     12  C   UNL     1       1.363   4.858  20.873  0.00  0.00    +0.000 A 
ATOM     13  C   UNL     1       1.391   3.479  20.988  0.00  0.00    +0.000 A 
ATOM     14  C   UNL     1       2.162   2.731  20.101  0.00  0.00    +0.000 A 
ATOM     15  C   UNL     1       2.923   3.344  19.080  0.00  0.00    +0.000 A 
ENDROOT
TORSDOF 0
ENDMDL
MODEL 8
REMARK VINA RESULT:      -6.7      1.285      4.916
REMARK  Name = 
REMARK  1 active torsions:
REMARK  status: ('A' for Active; 'I' for Inactive)
REMARK    1  A    between atoms: C_1  and  N_2
REMARK                            x       y       z     vdW  Elec       q    Type
REMARK                         _______ _______ _______ _____ _____    ______ ____
ROOT
ATOM      1  C   UNL     1       3.641   1.851  18.097  0.00  0.00    +0.000 C 
ATOM      2  N   UNL     1       3.454   3.311  18.256  0.00  0.00    +0.000 N 
ATOM      3  C   UNL     1       2.665   3.735  19.268  0.00  0.00    +0.000 A 
ATOM      4  C   UNL     1       2.423   5.080  19.508  0.00  0.00    +0.000 A 
ATOM      5  C   UNL     1       1.592   5.468  20.575  0.00  0.00    +0.000 A 
ATOM      6  C   UNL     1       1.338   6.813  20.829  0.00  0.00    +0.000 A 
ATOM      7  C   UNL     1       1.911   7.780  20.020  0.00  0.00    +0.000 A 
ATOM      8  C   UNL     1       2.735   7.401  18.958  0.00  0.00    +0.000 A 
ATOM      9  C   UNL     1       3.017   6.041  18.669  0.00  0.00    +0.000 A 
ATOM     10  C   UNL     1       3.851   5.592  17.597  0.00  0.00    +0.000 A 
ATOM     11  C   UNL     1       4.495   6.475  16.695  0.00  0.00    +0.000 A 
ATOM     12  C   UNL     1       5.304   6.017  15.655  0.00  0.00    +0.000 A 
ATOM     13  C   UNL     1       5.500   4.659  15.479  0.00  0.00    +0.000 A 
ATOM     14  C   UNL     1       4.883   3.758  16.345  0.00  0.00    +0.000 A 
ATOM     15  C   UNL     1       4.058   4.196  17.407  0.00  0.00    +0.000 A 
ENDROOT
TORSDOF 0
ENDMDL
MODEL 9
REMARK VINA RESULT:      -6.5      1.432      3.741
REMARK  Name = 
REMARK  1 active torsions:
REMARK  status: ('A' for Active; 'I' for Inactive)
REMARK    1  A    between atoms: C_1  and  N_2
REMARK                            x       y       z     vdW  Elec       q    Type
REMARK                         _______ _______ _______ _____ _____    ______ ____
ROOT
ATOM      1  C   UNL     1       4.601   3.871  17.048  0.00  0.00    +0.000 C 
ATOM      2  N   UNL     1       3.813   4.755  17.937  0.00  0.00    +0.000 N 
ATOM      3  C   UNL     1       3.593   6.022  17.525  0.00  0.00    +0.000 A 
ATOM      4  C   UNL     1       2.867   6.933  18.279  0.00  0.00    +0.000 A 
ATOM      5  C   UNL     1       2.668   8.243  17.803  0.00  0.00    +0.000 A 
ATOM      6  C   UNL     1       1.943   9.169  18.547  0.00  0.00    +0.000 A 
ATOM      7  C   UNL     1       1.412   8.796  19.772  0.00  0.00    +0.000 A 
ATOM      8  C   UNL     1       1.607   7.498  20.249  0.00  0.00    +0.000 A 
ATOM      9  C   UNL     1       2.340   6.527  19.519  0.00  0.00    +0.000 A 
ATOM     10  C   UNL     1       2.574   5.186  19.955  0.00  0.00    +0.000 A 
ATOM     11  C   UNL     1       2.090   4.676  21.185  0.00  0.00    +0.000 A 
ATOM     12  C   UNL     1       2.329   3.364  21.594  0.00  0.00    +0.000 A 
ATOM     13  C   UNL     1       3.062   2.513  20.787  0.00  0.00    +0.000 A 
ATOM     14  C   UNL     1       3.556   2.976  19.569  0.00  0.00    +0.000 A 
ATOM     15  C   UNL     1       3.328   4.301  19.132  0.00  0.00    +0.000 A 
ENDROOT
TORSDOF 0
ENDMDL
