MODEL 1
REMARK VINA RESULT:      -7.6      0.000      0.000
REMARK  Name = 
REMARK  6 active torsions:
REMARK  status: ('A' for Active; 'I' for Inactive)
REMARK    1  A    between atoms: C_1  and  O_2
REMARK    2  A    between atoms: O_2  and  C_3
REMARK    3  A    between atoms: C_6  and  N_7
REMARK    4  A    between atoms: C_17  and  N_18
REMARK    5  A    between atoms: N_18  and  C_19
REMARK    6  A    between atoms: N_18  and  C_20
REMARK                            x       y       z     vdW  Elec       q    Type
REMARK                         _______ _______ _______ _____ _____    ______ ____
ROOT
ATOM      1  N   UNL     1       2.311   7.632  18.518  0.00  0.00    +0.000 N 
ATOM      2  C   UNL     1       1.807   8.718  17.816  0.00  0.00    +0.000 A 
ATOM      3  N   UNL     1       1.088   9.701  18.277  0.00  0.00    +0.000 NA
ATOM      4  C   UNL     1       0.832   9.654  19.660  0.00  0.00    +0.000 A 
ATOM      5  C   UNL     1       1.325   8.617  20.415  0.00  0.00    +0.000 A 
ATOM      6  S   UNL     1       1.009   8.794  22.058  0.00  0.00    +0.000 S 
ATOM      7  C   UNL     1       0.144  10.233  21.774  0.00  0.00    +0.000 A 
ATOM      8  N   UNL     1      -0.358  10.861  22.853  0.00  0.00    +0.000 NA
ATOM      9  C   UNL     1      -1.055  11.957  22.568  0.00  0.00    +0.000 A 
ATOM     10  C   UNL     1      -1.272  12.434  21.292  0.00  0.00    +0.000 A 
ATOM     11  C   UNL     1      -0.729  11.799  20.147  0.00  0.00    +0.000 A 
ATOM     12  C   UNL     1       0.044  10.608  20.425  0.00  0.00    +0.000 A 
ATOM     13  C   UNL     1       2.086   7.515  19.893  0.00  0.00    +0.000 A 
ATOM     14  O   UNL     1       2.514   6.594  20.590  0.00  0.00    +0.000 OA
ENDROOT
BRANCH   1  18
ATOM     15  C   UNL     1       4.747   4.722  16.629  0.00  0.00    +0.000 A 
ATOM     16  C   UNL     1       3.576   4.343  17.285  0.00  0.00    +0.000 A 
ATOM     17  C   UNL     1       2.767   5.300  17.905  0.00  0.00    +0.000 A 
ATOM     18  C   UNL     1       3.112   6.655  17.857  0.00  0.00    +0.000 A 
ATOM     19  C   UNL     1       4.287   7.035  17.197  0.00  0.00    +0.000 A 
ATOM     20  C   UNL     1       5.112   6.069  16.605  0.00  0.00    +0.000 A 
BRANCH  15  22
ATOM     21  C   UNL     1       6.178   3.984  14.894  0.00  0.00    +0.000 C 
ATOM     22  O   UNL     1       5.471   3.694  16.094  0.00  0.00    +0.000 OA
ENDBRANCH  15  22
ENDBRANCH   1  18
BRANCH  11  23
ATOM     23  N   UNL     1      -0.964  12.376  18.894  0.00  0.00    +0.000 N 
ATOM     24  C   UNL     1      -0.052  13.365  18.336  0.00  0.00    +0.000 C 
ATOM     25  C   UNL     1      -1.923  11.816  17.941  0.00  0.00    +0.000 C 
ENDBRANCH  11  23
TORSDOF 3
ENDMDL
MODEL 2
REMARK VINA RESULT:      -7.6      0.170      1.197
REMARK  Name = 
REMARK  6 active torsions:
REMARK  status: ('A' for Active; 'I' for Inactive)
REMARK    1  A    between atoms: C_1  and  O_2
REMARK    2  A    between atoms: O_2  and  C_3
REMARK    3  A    between atoms: C_6  and  N_7
REMARK    4  A    between atoms: C_17  and  N_18
REMARK    5  A    between atoms: N_18  and  C_19
REMARK    6  A    between atoms: N_18  and  C_20
REMARK                            x       y       z     vdW  Elec       q    Type
REMARK                         _______ _______ _______ _____ _____    ______ ____
ROOT
ATOM      1  N   UNL     1       2.354   7.524  18.570  0.00  0.00    +0.000 N 
ATOM      2  C   UNL     1       1.892   8.609  17.837  0.00  0.00    +0.000 A 
ATOM      3  N   UNL     1       1.186   9.616  18.264  0.00  0.00    +0.000 NA
ATOM      4  C   UNL     1       0.896   9.600  19.641  0.00  0.00    +0.000 A 
ATOM      5  C   UNL     1       1.347   8.566  20.425  0.00  0.00    +0.000 A 
ATOM      6  S   UNL     1       0.996   8.779  22.056  0.00  0.00    +0.000 S 
ATOM      7  C   UNL     1       0.172  10.232  21.728  0.00  0.00    +0.000 A 
ATOM      8  N   UNL     1      -0.341  10.890  22.782  0.00  0.00    +0.000 NA
ATOM      9  C   UNL     1      -1.005  11.997  22.462  0.00  0.00    +0.000 A 
ATOM     10  C   UNL     1      -1.180  12.456  21.173  0.00  0.00    +0.000 A 
ATOM     11  C   UNL     1      -0.625  11.789  20.053  0.00  0.00    +0.000 A 
ATOM     12  C   UNL     1       0.113  10.586  20.370  0.00  0.00    +0.000 A 
ATOM     13  C   UNL     1       2.094   7.437  19.940  0.00  0.00    +0.000 A 
ATOM     14  O   UNL     1       2.484   6.519  20.663  0.00  0.00    +0.000 OA
ENDROOT
BRANCH   1  18
ATOM     15  C   UNL     1       4.666   4.545  16.634  0.00  0.00    +0.000 A 
ATOM     16  C   UNL     1       5.114   5.864  16.682  0.00  0.00    +0.000 A 
ATOM     17  C   UNL     1       4.358   6.849  17.323  0.00  0.00    +0.000 A 
ATOM     18  C   UNL     1       3.148   6.518  17.945  0.00  0.00    +0.000 A 
ATOM     19  C   UNL     1       2.700   5.193  17.898  0.00  0.00    +0.000 A 
ATOM     20  C   UNL     1       3.446   4.215  17.226  0.00  0.00    +0.000 A 
BRANCH  15  22
ATOM     21  C   UNL     1       5.906   4.117  14.664  0.00  0.00    +0.000 C 
ATOM     22  O   UNL     1       5.474   3.682  15.948  0.00  0.00    +0.000 OA
ENDBRANCH  15  22
ENDBRANCH   1  18
BRANCH  11  23
ATOM     23  N   UNL     1      -0.817  12.348  18.785  0.00  0.00    +0.000 N 
ATOM     24  C   UNL     1      -1.838  11.834  17.881  0.00  0.00    +0.000 C 
ATOM     25  C   UNL     1      -0.260  13.647  18.408  0.00  0.00    +0.000 C 
ENDBRANCH  11  23
TORSDOF 3
ENDMDL
MODEL 3
REMARK VINA RESULT:      -6.9      2.567      7.882
REMARK  Name = 
REMARK  6 active torsions:
REMARK  status: ('A' for Active; 'I' for Inactive)
REMARK    1  A    between atoms: C_1  and  O_2
REMARK    2  A    between atoms: O_2  and  C_3
REMARK    3  A    between atoms: C_6  and  N_7
REMARK    4  A    between atoms: C_17  and  N_18
REMARK    5  A    between atoms: N_18  and  C_19
REMARK    6  A    between atoms: N_18  and  C_20
REMARK                            x       y       z     vdW  Elec       q    Type
REMARK                         _______ _______ _______ _____ _____    ______ ____
ROOT
ATOM      1  N   UNL     1       1.345   9.174  19.285  0.00  0.00    +0.000 N 
ATOM      2  C   UNL     1       2.190   9.042  18.192  0.00  0.00    +0.000 A 
ATOM      3  N   UNL     1       2.954   8.030  17.893  0.00  0.00    +0.000 NA
ATOM      4  C   UNL     1       2.871   6.939  18.778  0.00  0.00    +0.000 A 
ATOM      5  C   UNL     1       2.033   6.999  19.865  0.00  0.00    +0.000 A 
ATOM      6  S   UNL     1       1.990   5.562  20.740  0.00  0.00    +0.000 S 
ATOM      7  C   UNL     1       3.149   4.858  19.711  0.00  0.00    +0.000 A 
ATOM      8  N   UNL     1       3.498   3.585  19.971  0.00  0.00    +0.000 NA
ATOM      9  C   UNL     1       4.433   3.100  19.160  0.00  0.00    +0.000 A 
ATOM     10  C   UNL     1       5.023   3.812  18.136  0.00  0.00    +0.000 A 
ATOM     11  C   UNL     1       4.649   5.145  17.832  0.00  0.00    +0.000 A 
ATOM     12  C   UNL     1       3.626   5.698  18.691  0.00  0.00    +0.000 A 
ATOM     13  C   UNL     1       1.222   8.134  20.211  0.00  0.00    +0.000 A 
ATOM     14  O   UNL     1       0.481   8.165  21.195  0.00  0.00    +0.000 OA
ENDROOT
BRANCH   1  18
ATOM     15  C   UNL     1      -1.063  12.620  19.828  0.00  0.00    +0.000 A 
ATOM     16  C   UNL     1       0.194  12.537  20.426  0.00  0.00    +0.000 A 
ATOM     17  C   UNL     1       0.993  11.405  20.246  0.00  0.00    +0.000 A 
ATOM     18  C   UNL     1       0.550  10.347  19.444  0.00  0.00    +0.000 A 
ATOM     19  C   UNL     1      -0.712  10.432  18.842  0.00  0.00    +0.000 A 
ATOM     20  C   UNL     1      -1.523  11.555  19.053  0.00  0.00    +0.000 A 
BRANCH  15  22
ATOM     21  C   UNL     1      -1.018  14.970  20.103  0.00  0.00    +0.000 C 
ATOM     22  O   UNL     1      -1.765  13.759  20.108  0.00  0.00    +0.000 OA
ENDBRANCH  15  22
ENDBRANCH   1  18
BRANCH  11  23
ATOM     23  N   UNL     1       5.270   5.778  16.749  0.00  0.00    +0.000 N 
ATOM     24  C   UNL     1       6.179   6.898  16.950  0.00  0.00    +0.000 C 
ATOM     25  C   UNL     1       5.314   5.182  15.413  0.00  0.00    +0.000 C 
ENDBRANCH  11  23
TORSDOF 3
ENDMDL
MODEL 4
REMARK VINA RESULT:      -6.8      2.854      8.430
REMARK  Name = 
REMARK  6 active torsions:
REMARK  status: ('A' for Active; 'I' for Inactive)
REMARK    1  A    between atoms: C_1  and  O_2
REMARK    2  A    between atoms: O_2  and  C_3
REMARK    3  A    between atoms: C_6  and  N_7
REMARK    4  A    between atoms: C_17  and  N_18
REMARK    5  A    between atoms: N_18  and  C_19
REMARK    6  A    between atoms: N_18  and  C_20
REMARK                            x       y       z     vdW  Elec       q    Type
REMARK                         _______ _______ _______ _____ _____    ______ ____
ROOT
ATOM      1  N   UNL     1       1.172   8.137  20.429  0.00  0.00    +0.000 N 
ATOM      2  C   UNL     1       1.195   6.839  20.921  0.00  0.00    +0.000 A 
ATOM      3  N   UNL     1       1.792   5.803  20.406  0.00  0.00    +0.000 NA
ATOM      4  C   UNL     1       2.523   6.059  19.230  0.00  0.00    +0.000 A 
ATOM      5  C   UNL     1       2.559   7.330  18.708  0.00  0.00    +0.000 A 
ATOM      6  S   UNL     1       3.569   7.459  17.369  0.00  0.00    +0.000 S 
ATOM      7  C   UNL     1       3.921   5.794  17.427  0.00  0.00    +0.000 A 
ATOM      8  N   UNL     1       4.778   5.323  16.504  0.00  0.00    +0.000 NA
ATOM      9  C   UNL     1       4.986   4.011  16.574  0.00  0.00    +0.000 A 
ATOM     10  C   UNL     1       4.387   3.175  17.493  0.00  0.00    +0.000 A 
ATOM     11  C   UNL     1       3.502   3.658  18.488  0.00  0.00    +0.000 A 
ATOM     12  C   UNL     1       3.263   5.084  18.444  0.00  0.00    +0.000 A 
ATOM     13  C   UNL     1       1.866   8.461  19.260  0.00  0.00    +0.000 A 
ATOM     14  O   UNL     1       1.911   9.590  18.771  0.00  0.00    +0.000 OA
ENDROOT
BRANCH   1  18
ATOM     15  C   UNL     1      -0.939  11.150  22.536  0.00  0.00    +0.000 A 
ATOM     16  C   UNL     1      -0.345  10.092  23.224  0.00  0.00    +0.000 A 
ATOM     17  C   UNL     1       0.356   9.099  22.535  0.00  0.00    +0.000 A 
ATOM     18  C   UNL     1       0.489   9.166  21.143  0.00  0.00    +0.000 A 
ATOM     19  C   UNL     1      -0.106  10.229  20.453  0.00  0.00    +0.000 A 
ATOM     20  C   UNL     1      -0.835  11.204  21.146  0.00  0.00    +0.000 A 
BRANCH  15  22
ATOM     21  C   UNL     1      -2.976  12.285  22.940  0.00  0.00    +0.000 C 
ATOM     22  O   UNL     1      -1.627  12.037  23.316  0.00  0.00    +0.000 OA
ENDBRANCH  15  22
ENDBRANCH   1  18
BRANCH  11  23
ATOM     23  N   UNL     1       2.972   2.744  19.406  0.00  0.00    +0.000 N 
ATOM     24  C   UNL     1       3.607   2.520  20.698  0.00  0.00    +0.000 C 
ATOM     25  C   UNL     1       1.616   2.208  19.285  0.00  0.00    +0.000 C 
ENDBRANCH  11  23
TORSDOF 3
ENDMDL
MODEL 5
REMARK VINA RESULT:      -6.8      1.331      1.456
REMARK  Name = 
REMARK  6 active torsions:
REMARK  status: ('A' for Active; 'I' for Inactive)
REMARK    1  A    between atoms: C_1  and  O_2
REMARK    2  A    between atoms: O_2  and  C_3
REMARK    3  A    between atoms: C_6  and  N_7
REMARK    4  A    between atoms: C_17  and  N_18
REMARK    5  A    between atoms: N_18  and  C_19
REMARK    6  A    between atoms: N_18  and  C_20
REMARK                            x       y       z     vdW  Elec       q    Type
REMARK                         _______ _______ _______ _____ _____    ______ ____
ROOT
ATOM      1  N   UNL     1       1.956   7.639  19.186  0.00  0.00    +0.000 N 
ATOM      2  C   UNL     1       1.919   8.796  18.420  0.00  0.00    +0.000 A 
ATOM      3  N   UNL     1       1.419   9.953  18.749  0.00  0.00    +0.000 NA
ATOM      4  C   UNL     1       0.889  10.025  20.051  0.00  0.00    +0.000 A 
ATOM      5  C   UNL     1       0.920   8.920  20.867  0.00  0.00    +0.000 A 
ATOM      6  S   UNL     1       0.343   9.232  22.416  0.00  0.00    +0.000 S 
ATOM      7  C   UNL     1      -0.021  10.842  21.996  0.00  0.00    +0.000 A 
ATOM      8  N   UNL     1      -0.537  11.619  22.964  0.00  0.00    +0.000 NA
ATOM      9  C   UNL     1      -0.837  12.854  22.569  0.00  0.00    +0.000 A 
ATOM     10  C   UNL     1      -0.656  13.327  21.287  0.00  0.00    +0.000 A 
ATOM     11  C   UNL     1      -0.090  12.529  20.261  0.00  0.00    +0.000 A 
ATOM     12  C   UNL     1       0.256  11.184  20.662  0.00  0.00    +0.000 A 
ATOM     13  C   UNL     1       1.439   7.635  20.484  0.00  0.00    +0.000 A 
ATOM     14  O   UNL     1       1.451   6.657  21.233  0.00  0.00    +0.000 OA
ENDROOT
BRANCH   1  18
ATOM     15  C   UNL     1       3.795   4.095  17.763  0.00  0.00    +0.000 A 
ATOM     16  C   UNL     1       2.411   4.249  17.690  0.00  0.00    +0.000 A 
ATOM     17  C   UNL     1       1.801   5.418  18.153  0.00  0.00    +0.000 A 
ATOM     18  C   UNL     1       2.575   6.459  18.678  0.00  0.00    +0.000 A 
ATOM     19  C   UNL     1       3.965   6.303  18.750  0.00  0.00    +0.000 A 
ATOM     20  C   UNL     1       4.569   5.116  18.314  0.00  0.00    +0.000 A 
BRANCH  15  22
ATOM     21  C   UNL     1       3.683   1.734  17.890  0.00  0.00    +0.000 C 
ATOM     22  O   UNL     1       4.269   2.894  17.312  0.00  0.00    +0.000 OA
ENDBRANCH  15  22
ENDBRANCH   1  18
BRANCH  11  23
ATOM     23  N   UNL     1       0.096  13.105  18.999  0.00  0.00    +0.000 N 
ATOM     24  C   UNL     1       1.360  13.730  18.634  0.00  0.00    +0.000 C 
ATOM     25  C   UNL     1      -0.809  12.846  17.878  0.00  0.00    +0.000 C 
ENDBRANCH  11  23
TORSDOF 3
ENDMDL
MODEL 6
REMARK VINA RESULT:      -6.7      2.867      8.441
REMARK  Name = 
REMARK  6 active torsions:
REMARK  status: ('A' for Active; 'I' for Inactive)
REMARK    1  A    between atoms: C_1  and  O_2
REMARK    2  A    between atoms: O_2  and  C_3
REMARK    3  A    between atoms: C_6  and  N_7
REMARK    4  A    between atoms: C_17  and  N_18
REMARK    5  A    between atoms: N_18  and  C_19
REMARK    6  A    between atoms: N_18  and  C_20
REMARK                            x       y       z     vdW  Elec       q    Type
REMARK                         _______ _______ _______ _____ _____    ______ ____
ROOT
ATOM      1  N   UNL     1       1.305   7.923  20.308  0.00  0.00    +0.000 N 
ATOM      2  C   UNL     1       1.413   6.605  20.729  0.00  0.00    +0.000 A 
ATOM      3  N   UNL     1       2.073   5.638  20.160  0.00  0.00    +0.000 NA
ATOM      4  C   UNL     1       2.782   6.002  19.000  0.00  0.00    +0.000 A 
ATOM      5  C   UNL     1       2.735   7.298  18.546  0.00  0.00    +0.000 A 
ATOM      6  S   UNL     1       3.730   7.562  17.215  0.00  0.00    +0.000 S 
ATOM      7  C   UNL     1       4.188   5.922  17.185  0.00  0.00    +0.000 A 
ATOM      8  N   UNL     1       5.071   5.556  16.239  0.00  0.00    +0.000 NA
ATOM      9  C   UNL     1       5.363   4.259  16.239  0.00  0.00    +0.000 A 
ATOM     10  C   UNL     1       4.821   3.338  17.112  0.00  0.00    +0.000 A 
ATOM     11  C   UNL     1       3.910   3.711  18.131  0.00  0.00    +0.000 A 
ATOM     12  C   UNL     1       3.580   5.119  18.163  0.00  0.00    +0.000 A 
ATOM     13  C   UNL     1       1.973   8.352  19.157  0.00  0.00    +0.000 A 
ATOM     14  O   UNL     1       1.944   9.506  18.728  0.00  0.00    +0.000 OA
ENDROOT
BRANCH   1  18
ATOM     15  C   UNL     1      -0.832  10.781  22.594  0.00  0.00    +0.000 A 
ATOM     16  C   UNL     1      -0.859  10.830  21.201  0.00  0.00    +0.000 A 
ATOM     17  C   UNL     1      -0.160   9.887  20.443  0.00  0.00    +0.000 A 
ATOM     18  C   UNL     1       0.560   8.867  21.074  0.00  0.00    +0.000 A 
ATOM     19  C   UNL     1       0.585   8.817  22.473  0.00  0.00    +0.000 A 
ATOM     20  C   UNL     1      -0.091   9.784  23.229  0.00  0.00    +0.000 A 
BRANCH  15  22
ATOM     21  C   UNL     1      -1.103  13.107  22.939  0.00  0.00    +0.000 C 
ATOM     22  O   UNL     1      -1.524  11.778  23.224  0.00  0.00    +0.000 OA
ENDBRANCH  15  22
ENDBRANCH   1  18
BRANCH  11  23
ATOM     23  N   UNL     1       3.443   2.718  19.000  0.00  0.00    +0.000 N 
ATOM     24  C   UNL     1       4.170   2.376  20.215  0.00  0.00    +0.000 C 
ATOM     25  C   UNL     1       2.077   2.197  18.933  0.00  0.00    +0.000 C 
ENDBRANCH  11  23
TORSDOF 3
ENDMDL
MODEL 7
REMARK VINA RESULT:      -6.6      2.735      7.768
REMARK  Name = 
REMARK  6 active torsions:
REMARK  status: ('A' for Active; 'I' for Inactive)
REMARK    1  A    between atoms: C_1  and  O_2
REMARK    2  A    between atoms: O_2  and  C_3
REMARK    3  A    between atoms: C_6  and  N_7
REMARK    4  A    between atoms: C_17  and  N_18
REMARK    5  A    between atoms: N_18  and  C_19
REMARK    6  A    between atoms: N_18  and  C_20
REMARK                            x       y       z     vdW  Elec       q    Type
REMARK                         _______ _______ _______ _____ _____    ______ ____
ROOT
ATOM      1  N   UNL     1       1.739   9.149  18.844  0.00  0.00    +0.000 N 
ATOM      2  C   UNL     1       2.572   8.762  17.803  0.00  0.00    +0.000 A 
ATOM      3  N   UNL     1       3.201   7.630  17.664  0.00  0.00    +0.000 NA
ATOM      4  C   UNL     1       2.966   6.689  18.685  0.00  0.00    +0.000 A 
ATOM      5  C   UNL     1       2.131   7.004  19.730  0.00  0.00    +0.000 A 
ATOM      6  S   UNL     1       1.891   5.718  20.787  0.00  0.00    +0.000 S 
ATOM      7  C   UNL     1       2.960   4.737  19.896  0.00  0.00    +0.000 A 
ATOM      8  N   UNL     1       3.136   3.478  20.334  0.00  0.00    +0.000 NA
ATOM      9  C   UNL     1       4.009   2.771  19.622  0.00  0.00    +0.000 A 
ATOM     10  C   UNL     1       4.698   3.255  18.530  0.00  0.00    +0.000 A 
ATOM     11  C   UNL     1       4.505   4.571  18.039  0.00  0.00    +0.000 A 
ATOM     12  C   UNL     1       3.553   5.362  18.787  0.00  0.00    +0.000 A 
ATOM     13  C   UNL     1       1.471   8.270  19.897  0.00  0.00    +0.000 A 
ATOM     14  O   UNL     1       0.730   8.530  20.846  0.00  0.00    +0.000 OA
ENDROOT
BRANCH   1  18
ATOM     15  C   UNL     1      -0.135  12.948  18.685  0.00  0.00    +0.000 A 
ATOM     16  C   UNL     1      -0.889  11.783  18.546  0.00  0.00    +0.000 A 
ATOM     17  C   UNL     1      -0.276  10.529  18.603  0.00  0.00    +0.000 A 
ATOM     18  C   UNL     1       1.102  10.425  18.821  0.00  0.00    +0.000 A 
ATOM     19  C   UNL     1       1.859  11.594  18.963  0.00  0.00    +0.000 A 
ATOM     20  C   UNL     1       1.244  12.851  18.873  0.00  0.00    +0.000 A 
BRANCH  15  22
ATOM     21  C   UNL     1      -0.131  15.307  18.884  0.00  0.00    +0.000 C 
ATOM     22  O   UNL     1      -0.841  14.113  18.575  0.00  0.00    +0.000 OA
ENDBRANCH  15  22
ENDBRANCH   1  18
BRANCH  11  23
ATOM     23  N   UNL     1       5.215   4.965  16.899  0.00  0.00    +0.000 N 
ATOM     24  C   UNL     1       6.255   5.982  16.973  0.00  0.00    +0.000 C 
ATOM     25  C   UNL     1       5.202   4.188  15.660  0.00  0.00    +0.000 C 
ENDBRANCH  11  23
TORSDOF 3
ENDMDL
MODEL 8
REMARK VINA RESULT:      -6.6      2.572      7.883
REMARK  Name = 
REMARK  6 active torsions:
REMARK  status: ('A' for Active; 'I' for Inactive)
REMARK    1  A    between atoms: C_1  and  O_2
REMARK    2  A    between atoms: O_2  and  C_3
REMARK    3  A    between atoms: C_6  and  N_7
REMARK    4  A    between atoms: C_17  and  N_18
REMARK    5  A    between atoms: N_18  and  C_19
REMARK    6  A    between atoms: N_18  and  C_20
REMARK                            x       y       z     vdW  Elec       q    Type
REMARK                         _______ _______ _______ _____ _____    ______ ____
ROOT
ATOM      1  N   UNL     1       1.386   9.117  19.369  0.00  0.00    +0.000 N 
ATOM      2  C   UNL     1       2.287   9.037  18.315  0.00  0.00    +0.000 A 
ATOM      3  N   UNL     1       3.075   8.046  18.014  0.00  0.00    +0.000 NA
ATOM      4  C   UNL     1       2.960   6.918  18.848  0.00  0.00    +0.000 A 
ATOM      5  C   UNL     1       2.068   6.926  19.893  0.00  0.00    +0.000 A 
ATOM      6  S   UNL     1       1.996   5.453  20.704  0.00  0.00    +0.000 S 
ATOM      7  C   UNL     1       3.213   4.802  19.708  0.00  0.00    +0.000 A 
ATOM      8  N   UNL     1       3.561   3.523  19.933  0.00  0.00    +0.000 NA
ATOM      9  C   UNL     1       4.541   3.080  19.150  0.00  0.00    +0.000 A 
ATOM     10  C   UNL     1       5.174   3.839  18.188  0.00  0.00    +0.000 A 
ATOM     11  C   UNL     1       4.802   5.180  17.920  0.00  0.00    +0.000 A 
ATOM     12  C   UNL     1       3.731   5.688  18.749  0.00  0.00    +0.000 A 
ATOM     13  C   UNL     1       1.228   8.038  20.243  0.00  0.00    +0.000 A 
ATOM     14  O   UNL     1       0.438   8.022  21.189  0.00  0.00    +0.000 OA
ENDROOT
BRANCH   1  18
ATOM     15  C   UNL     1      -0.982  12.605  19.800  0.00  0.00    +0.000 A 
ATOM     16  C   UNL     1      -1.363  11.600  18.912  0.00  0.00    +0.000 A 
ATOM     17  C   UNL     1      -0.588  10.446  18.770  0.00  0.00    +0.000 A 
ATOM     18  C   UNL     1       0.572  10.275  19.535  0.00  0.00    +0.000 A 
ATOM     19  C   UNL     1       0.953  11.284  20.427  0.00  0.00    +0.000 A 
ATOM     20  C   UNL     1       0.189  12.454  20.542  0.00  0.00    +0.000 A 
BRANCH  15  22
ATOM     21  C   UNL     1      -2.789  13.720  20.846  0.00  0.00    +0.000 C 
ATOM     22  O   UNL     1      -1.801  13.700  19.823  0.00  0.00    +0.000 OA
ENDBRANCH  15  22
ENDBRANCH   1  18
BRANCH  11  23
ATOM     23  N   UNL     1       5.470   5.863  16.897  0.00  0.00    +0.000 N 
ATOM     24  C   UNL     1       5.136   5.636  15.497  0.00  0.00    +0.000 C 
ATOM     25  C   UNL     1       6.291   7.047  17.150  0.00  0.00    +0.000 C 
ENDBRANCH  11  23
TORSDOF 3
ENDMDL
MODEL 9
REMARK VINA RESULT:      -6.3      3.012      8.282
REMARK  Name = 
REMARK  6 active torsions:
REMARK  status: ('A' for Active; 'I' for Inactive)
REMARK    1  A    between atoms: C_1  and  O_2
REMARK    2  A    between atoms: O_2  and  C_3
REMARK    3  A    between atoms: C_6  and  N_7
REMARK    4  A    between atoms: C_17  and  N_18
REMARK    5  A    between atoms: N_18  and  C_19
REMARK    6  A    between atoms: N_18  and  C_20
REMARK                            x       y       z     vdW  Elec       q    Type
REMARK                         _______ _______ _______ _____ _____    ______ ____
ROOT
ATOM      1  N   UNL     1       1.104   8.997  19.732  0.00  0.00    +0.000 N 
ATOM      2  C   UNL     1       0.910   7.900  20.560  0.00  0.00    +0.000 A 
ATOM      3  N   UNL     1       1.434   6.713  20.447  0.00  0.00    +0.000 NA
ATOM      4  C   UNL     1       2.327   6.556  19.369  0.00  0.00    +0.000 A 
ATOM      5  C   UNL     1       2.580   7.614  18.529  0.00  0.00    +0.000 A 
ATOM      6  S   UNL     1       3.752   7.265  17.373  0.00  0.00    +0.000 S 
ATOM      7  C   UNL     1       3.889   5.666  17.940  0.00  0.00    +0.000 A 
ATOM      8  N   UNL     1       4.788   4.879  17.322  0.00  0.00    +0.000 NA
ATOM      9  C   UNL     1       4.825   3.631  17.782  0.00  0.00    +0.000 A 
ATOM     10  C   UNL     1       4.022   3.149  18.794  0.00  0.00    +0.000 A 
ATOM     11  C   UNL     1       3.089   3.971  19.473  0.00  0.00    +0.000 A 
ATOM     12  C   UNL     1       3.032   5.338  19.003  0.00  0.00    +0.000 A 
ATOM     13  C   UNL     1       1.968   8.910  18.637  0.00  0.00    +0.000 A 
ATOM     14  O   UNL     1       2.209   9.841  17.868  0.00  0.00    +0.000 OA
ENDROOT
BRANCH   1  18
ATOM     15  C   UNL     1      -0.824  12.653  20.669  0.00  0.00    +0.000 A 
ATOM     16  C   UNL     1       0.442  12.372  21.182  0.00  0.00    +0.000 A 
ATOM     17  C   UNL     1       1.083  11.171  20.872  0.00  0.00    +0.000 A 
ATOM     18  C   UNL     1       0.471  10.241  20.024  0.00  0.00    +0.000 A 
ATOM     19  C   UNL     1      -0.799  10.524  19.508  0.00  0.00    +0.000 A 
ATOM     20  C   UNL     1      -1.453  11.716  19.848  0.00  0.00    +0.000 A 
BRANCH  15  22
ATOM     21  C   UNL     1      -1.201  14.168  22.448  0.00  0.00    +0.000 C 
ATOM     22  O   UNL     1      -1.363  13.843  21.073  0.00  0.00    +0.000 OA
ENDBRANCH  15  22
ENDBRANCH   1  18
BRANCH  11  23
ATOM     23  N   UNL     1       2.345   3.410  20.518  0.00  0.00    +0.000 N 
ATOM     24  C   UNL     1       0.892   3.331  20.451  0.00  0.00    +0.000 C 
ATOM     25  C   UNL     1       2.958   2.593  21.565  0.00  0.00    +0.000 C 
ENDBRANCH  11  23
TORSDOF 3
ENDMDL
