MODEL 1
REMARK VINA RESULT:      -7.8      0.000      0.000
REMARK  Name = 
REMARK  6 active torsions:
REMARK  status: ('A' for Active; 'I' for Inactive)
REMARK    1  A    between atoms: C_1  and  N_2
REMARK    2  A    between atoms: N_2  and  C_23
REMARK    3  A    between atoms: C_3  and  C_5
REMARK    4  A    between atoms: C_8  and  O_9
REMARK    5  A    between atoms: O_9  and  C_10
REMARK    6  A    between atoms: C_10  and  C_11
REMARK                            x       y       z     vdW  Elec       q    Type
REMARK                         _______ _______ _______ _____ _____    ______ ____
ROOT
ATOM      1  C   UNL     1      -0.520  11.794  19.799  0.00  0.00    +0.000 A 
ATOM      2  C   UNL     1      -1.143  10.725  19.144  0.00  0.00    +0.000 A 
ATOM      3  C   UNL     1      -0.405   9.819  18.357  0.00  0.00    +0.000 A 
ATOM      4  C   UNL     1       0.957  10.014  18.122  0.00  0.00    +0.000 A 
ATOM      5  C   UNL     1       1.569  11.133  18.695  0.00  0.00    +0.000 A 
ATOM      6  C   UNL     1       0.841  12.012  19.523  0.00  0.00    +0.000 A 
ENDROOT
BRANCH   1   9
ATOM      7  C   UNL     1      -0.883  11.220  22.726  0.00  0.00    +0.000 C 
ATOM      8  N   UNL     1      -1.436  12.433  22.104  0.00  0.00    +0.000 N 
ATOM      9  C   UNL     1      -1.240  12.750  20.731  0.00  0.00    +0.000 C 
ATOM     10  O   UNL     1      -1.558  13.826  20.201  0.00  0.00    +0.000 OA
BRANCH   8  11
ATOM     11  C   UNL     1      -2.164  13.322  23.006  0.00  0.00    +0.000 A 
ATOM     12  C   UNL     1      -3.560  13.376  23.055  0.00  0.00    +0.000 A 
ATOM     13  C   UNL     1      -4.193  14.253  23.930  0.00  0.00    +0.000 A 
ATOM     14  N   UNL     1      -3.540  15.086  24.772  0.00  0.00    +0.000 NA
ATOM     15  C   UNL     1      -2.202  15.028  24.730  0.00  0.00    +0.000 A 
ATOM     16  C   UNL     1      -1.488  14.175  23.897  0.00  0.00    +0.000 A 
ENDBRANCH   8  11
ENDBRANCH   1   9
BRANCH   4  17
ATOM     17  O   UNL     1       1.769   9.194  17.373  0.00  0.00    +0.000 OA
BRANCH  17  18
ATOM     18  C   UNL     1       2.820   8.514  18.082  0.00  0.00    +0.000 C 
BRANCH  18  19
ATOM     19  C   UNL     1       2.356   7.227  18.750  0.00  0.00    +0.000 A 
ATOM     20  C   UNL     1       2.014   7.239  20.096  0.00  0.00    +0.000 A 
ATOM     21  C   UNL     1       1.729   6.034  20.728  0.00  0.00    +0.000 A 
ATOM     22  C   UNL     1       1.693   4.849  19.990  0.00  0.00    +0.000 A 
ATOM     23  C   UNL     1       1.290   3.641  20.587  0.00  0.00    +0.000 A 
ATOM     24  C   UNL     1       1.121   2.497  19.815  0.00  0.00    +0.000 A 
ATOM     25  C   UNL     1       1.421   2.542  18.459  0.00  0.00    +0.000 A 
ATOM     26  C   UNL     1       1.893   3.732  17.884  0.00  0.00    +0.000 A 
ATOM     27  C   UNL     1       2.013   4.912  18.619  0.00  0.00    +0.000 A 
ATOM     28  N   UNL     1       2.382   6.073  18.023  0.00  0.00    +0.000 NA
ENDBRANCH  18  19
ENDBRANCH  17  18
ENDBRANCH   4  17
TORSDOF 5
ENDMDL
MODEL 2
REMARK VINA RESULT:      -7.7      0.426      1.327
REMARK  Name = 
REMARK  6 active torsions:
REMARK  status: ('A' for Active; 'I' for Inactive)
REMARK    1  A    between atoms: C_1  and  N_2
REMARK    2  A    between atoms: N_2  and  C_23
REMARK    3  A    between atoms: C_3  and  C_5
REMARK    4  A    between atoms: C_8  and  O_9
REMARK    5  A    between atoms: O_9  and  C_10
REMARK    6  A    between atoms: C_10  and  C_11
REMARK                            x       y       z     vdW  Elec       q    Type
REMARK                         _______ _______ _______ _____ _____    ______ ____
ROOT
ATOM      1  C   UNL     1      -0.359  11.646  19.721  0.00  0.00    +0.000 A 
ATOM      2  C   UNL     1       1.031  11.786  19.639  0.00  0.00    +0.000 A 
ATOM      3  C   UNL     1       1.802  10.959  18.796  0.00  0.00    +0.000 A 
ATOM      4  C   UNL     1       1.216   9.907  18.091  0.00  0.00    +0.000 A 
ATOM      5  C   UNL     1      -0.159   9.700  18.241  0.00  0.00    +0.000 A 
ATOM      6  C   UNL     1      -0.937  10.558  19.044  0.00  0.00    +0.000 A 
ENDROOT
BRANCH   1   9
ATOM      7  C   UNL     1      -1.001  11.113  22.608  0.00  0.00    +0.000 C 
ATOM      8  N   UNL     1      -1.576  12.260  21.889  0.00  0.00    +0.000 N 
ATOM      9  C   UNL     1      -1.254  12.560  20.537  0.00  0.00    +0.000 C 
ATOM     10  O   UNL     1      -1.595  13.593  19.940  0.00  0.00    +0.000 OA
BRANCH   8  11
ATOM     11  C   UNL     1      -2.470  13.107  22.676  0.00  0.00    +0.000 A 
ATOM     12  C   UNL     1      -2.006  14.050  23.598  0.00  0.00    +0.000 A 
ATOM     13  C   UNL     1      -2.910  14.819  24.323  0.00  0.00    +0.000 A 
ATOM     14  N   UNL     1      -4.254  14.726  24.200  0.00  0.00    +0.000 NA
ATOM     15  C   UNL     1      -4.698  13.828  23.310  0.00  0.00    +0.000 A 
ATOM     16  C   UNL     1      -3.867  13.027  22.534  0.00  0.00    +0.000 A 
ENDBRANCH   8  11
ENDBRANCH   1   9
BRANCH   4  17
ATOM     17  O   UNL     1       1.873   9.043  17.244  0.00  0.00    +0.000 OA
BRANCH  17  18
ATOM     18  C   UNL     1       2.938   8.269  17.822  0.00  0.00    +0.000 C 
BRANCH  18  19
ATOM     19  C   UNL     1       2.443   7.051  18.591  0.00  0.00    +0.000 A 
ATOM     20  C   UNL     1       2.191   7.158  19.953  0.00  0.00    +0.000 A 
ATOM     21  C   UNL     1       1.877   6.009  20.670  0.00  0.00    +0.000 A 
ATOM     22  C   UNL     1       1.724   4.790  20.006  0.00  0.00    +0.000 A 
ATOM     23  C   UNL     1       1.289   3.644  20.697  0.00  0.00    +0.000 A 
ATOM     24  C   UNL     1       1.003   2.472  20.005  0.00  0.00    +0.000 A 
ATOM     25  C   UNL     1       1.216   2.425  18.632  0.00  0.00    +0.000 A 
ATOM     26  C   UNL     1       1.719   3.550  17.961  0.00  0.00    +0.000 A 
ATOM     27  C   UNL     1       1.957   4.758  18.617  0.00  0.00    +0.000 A 
ATOM     28  N   UNL     1       2.354   5.860  17.932  0.00  0.00    +0.000 NA
ENDBRANCH  18  19
ENDBRANCH  17  18
ENDBRANCH   4  17
TORSDOF 5
ENDMDL
MODEL 3
REMARK VINA RESULT:      -7.5      0.826      1.430
REMARK  Name = 
REMARK  6 active torsions:
REMARK  status: ('A' for Active; 'I' for Inactive)
REMARK    1  A    between atoms: C_1  and  N_2
REMARK    2  A    between atoms: N_2  and  C_23
REMARK    3  A    between atoms: C_3  and  C_5
REMARK    4  A    between atoms: C_8  and  O_9
REMARK    5  A    between atoms: O_9  and  C_10
REMARK    6  A    between atoms: C_10  and  C_11
REMARK                            x       y       z     vdW  Elec       q    Type
REMARK                         _______ _______ _______ _____ _____    ______ ____
ROOT
ATOM      1  C   UNL     1      -0.470  11.392  19.693  0.00  0.00    +0.000 A 
ATOM      2  C   UNL     1      -1.078  10.405  18.909  0.00  0.00    +0.000 A 
ATOM      3  C   UNL     1      -0.313   9.527  18.115  0.00  0.00    +0.000 A 
ATOM      4  C   UNL     1       1.070   9.677  18.006  0.00  0.00    +0.000 A 
ATOM      5  C   UNL     1       1.676  10.721  18.711  0.00  0.00    +0.000 A 
ATOM      6  C   UNL     1       0.917  11.567  19.545  0.00  0.00    +0.000 A 
ENDROOT
BRANCH   1   9
ATOM      7  C   UNL     1      -0.676  10.849  22.642  0.00  0.00    +0.000 C 
ATOM      8  N   UNL     1      -1.346  12.002  22.021  0.00  0.00    +0.000 N 
ATOM      9  C   UNL     1      -1.227  12.307  20.637  0.00  0.00    +0.000 C 
ATOM     10  O   UNL     1      -1.648  13.345  20.102  0.00  0.00    +0.000 OA
BRANCH   8  11
ATOM     11  C   UNL     1      -2.107  12.850  22.936  0.00  0.00    +0.000 A 
ATOM     12  C   UNL     1      -3.466  12.654  23.200  0.00  0.00    +0.000 A 
ATOM     13  C   UNL     1      -4.135  13.503  24.074  0.00  0.00    +0.000 A 
ATOM     14  N   UNL     1      -3.553  14.541  24.718  0.00  0.00    +0.000 NA
ATOM     15  C   UNL     1      -2.249  14.724  24.471  0.00  0.00    +0.000 A 
ATOM     16  C   UNL     1      -1.499  13.917  23.622  0.00  0.00    +0.000 A 
ENDBRANCH   8  11
ENDBRANCH   1   9
BRANCH   4  17
ATOM     17  O   UNL     1       1.910   8.879  17.261  0.00  0.00    +0.000 OA
BRANCH  17  18
ATOM     18  C   UNL     1       3.066   8.359  17.941  0.00  0.00    +0.000 C 
BRANCH  18  19
ATOM     19  C   UNL     1       2.976   6.864  18.217  0.00  0.00    +0.000 A 
ATOM     20  C   UNL     1       3.655   5.975  17.394  0.00  0.00    +0.000 A 
ATOM     21  C   UNL     1       3.453   4.610  17.568  0.00  0.00    +0.000 A 
ATOM     22  C   UNL     1       2.656   4.150  18.617  0.00  0.00    +0.000 A 
ATOM     23  C   UNL     1       2.537   2.773  18.881  0.00  0.00    +0.000 A 
ATOM     24  C   UNL     1       1.859   2.329  20.011  0.00  0.00    +0.000 A 
ATOM     25  C   UNL     1       1.240   3.257  20.840  0.00  0.00    +0.000 A 
ATOM     26  C   UNL     1       1.301   4.624  20.531  0.00  0.00    +0.000 A 
ATOM     27  C   UNL     1       2.026   5.105  19.440  0.00  0.00    +0.000 A 
ATOM     28  N   UNL     1       2.148   6.437  19.213  0.00  0.00    +0.000 NA
ENDBRANCH  18  19
ENDBRANCH  17  18
ENDBRANCH   4  17
TORSDOF 5
ENDMDL
MODEL 4
REMARK VINA RESULT:      -7.5      6.971     11.229
REMARK  Name = 
REMARK  6 active torsions:
REMARK  status: ('A' for Active; 'I' for Inactive)
REMARK    1  A    between atoms: C_1  and  N_2
REMARK    2  A    between atoms: N_2  and  C_23
REMARK    3  A    between atoms: C_3  and  C_5
REMARK    4  A    between atoms: C_8  and  O_9
REMARK    5  A    between atoms: O_9  and  C_10
REMARK    6  A    between atoms: C_10  and  C_11
REMARK                            x       y       z     vdW  Elec       q    Type
REMARK                         _______ _______ _______ _____ _____    ______ ____
ROOT
ATOM      1  C   UNL     1       6.091   5.866  18.462  0.00  0.00    +0.000 A 
ATOM      2  C   UNL     1       7.334   5.944  19.099  0.00  0.00    +0.000 A 
ATOM      3  C   UNL     1       8.208   7.026  18.870  0.00  0.00    +0.000 A 
ATOM      4  C   UNL     1       7.904   8.006  17.925  0.00  0.00    +0.000 A 
ATOM      5  C   UNL     1       6.707   7.886  17.213  0.00  0.00    +0.000 A 
ATOM      6  C   UNL     1       5.811   6.830  17.478  0.00  0.00    +0.000 A 
ENDROOT
BRANCH   1   9
ATOM      7  C   UNL     1       3.200   6.473  19.014  0.00  0.00    +0.000 C 
ATOM      8  N   UNL     1       3.716   5.095  19.034  0.00  0.00    +0.000 N 
ATOM      9  C   UNL     1       5.069   4.777  18.732  0.00  0.00    +0.000 C 
ATOM     10  O   UNL     1       5.511   3.626  18.591  0.00  0.00    +0.000 OA
BRANCH   8  11
ATOM     11  C   UNL     1       2.729   4.062  19.338  0.00  0.00    +0.000 A 
ATOM     12  C   UNL     1       2.491   3.599  20.635  0.00  0.00    +0.000 A 
ATOM     13  C   UNL     1       1.543   2.605  20.857  0.00  0.00    +0.000 A 
ATOM     14  N   UNL     1       0.804   2.031  19.880  0.00  0.00    +0.000 NA
ATOM     15  C   UNL     1       1.028   2.481  18.638  0.00  0.00    +0.000 A 
ATOM     16  C   UNL     1       1.945   3.479  18.327  0.00  0.00    +0.000 A 
ENDBRANCH   8  11
ENDBRANCH   1   9
BRANCH   4  17
ATOM     17  O   UNL     1       8.683   9.101  17.624  0.00  0.00    +0.000 OA
BRANCH  17  18
ATOM     18  C   UNL     1       8.977   9.994  18.712  0.00  0.00    +0.000 C 
BRANCH  18  19
ATOM     19  C   UNL     1       9.530  11.337  18.253  0.00  0.00    +0.000 A 
ATOM     20  C   UNL     1      10.804  11.400  17.703  0.00  0.00    +0.000 A 
ATOM     21  C   UNL     1      11.352  12.645  17.418  0.00  0.00    +0.000 A 
ATOM     22  C   UNL     1      10.590  13.801  17.595  0.00  0.00    +0.000 A 
ATOM     23  C   UNL     1      11.085  15.057  17.199  0.00  0.00    +0.000 A 
ATOM     24  C   UNL     1      10.268  16.182  17.246  0.00  0.00    +0.000 A 
ATOM     25  C   UNL     1       8.978  16.064  17.752  0.00  0.00    +0.000 A 
ATOM     26  C   UNL     1       8.516  14.822  18.212  0.00  0.00    +0.000 A 
ATOM     27  C   UNL     1       9.289  13.664  18.121  0.00  0.00    +0.000 A 
ATOM     28  N   UNL     1       8.789  12.458  18.486  0.00  0.00    +0.000 NA
ENDBRANCH  18  19
ENDBRANCH  17  18
ENDBRANCH   4  17
TORSDOF 5
ENDMDL
MODEL 5
REMARK VINA RESULT:      -7.3      3.939      5.568
REMARK  Name = 
REMARK  6 active torsions:
REMARK  status: ('A' for Active; 'I' for Inactive)
REMARK    1  A    between atoms: C_1  and  N_2
REMARK    2  A    between atoms: N_2  and  C_23
REMARK    3  A    between atoms: C_3  and  C_5
REMARK    4  A    between atoms: C_8  and  O_9
REMARK    5  A    between atoms: O_9  and  C_10
REMARK    6  A    between atoms: C_10  and  C_11
REMARK                            x       y       z     vdW  Elec       q    Type
REMARK                         _______ _______ _______ _____ _____    ______ ____
ROOT
ATOM      1  C   UNL     1       1.687   7.721  20.293  0.00  0.00    +0.000 A 
ATOM      2  C   UNL     1       1.485   6.402  20.718  0.00  0.00    +0.000 A 
ATOM      3  C   UNL     1       1.976   5.311  19.974  0.00  0.00    +0.000 A 
ATOM      4  C   UNL     1       2.594   5.503  18.738  0.00  0.00    +0.000 A 
ATOM      5  C   UNL     1       2.715   6.811  18.260  0.00  0.00    +0.000 A 
ATOM      6  C   UNL     1       2.269   7.906  19.027  0.00  0.00    +0.000 A 
ENDROOT
BRANCH   1   9
ATOM      7  C   UNL     1      -0.173   9.805  19.184  0.00  0.00    +0.000 C 
ATOM      8  N   UNL     1       0.417   9.933  20.526  0.00  0.00    +0.000 N 
ATOM      9  C   UNL     1       1.264   8.940  21.091  0.00  0.00    +0.000 C 
ATOM     10  O   UNL     1       1.661   8.934  22.267  0.00  0.00    +0.000 OA
BRANCH   8  11
ATOM     11  C   UNL     1       0.035  11.134  21.265  0.00  0.00    +0.000 A 
ATOM     12  C   UNL     1       0.606  12.387  21.025  0.00  0.00    +0.000 A 
ATOM     13  C   UNL     1       0.204  13.490  21.771  0.00  0.00    +0.000 A 
ATOM     14  N   UNL     1      -0.733  13.445  22.745  0.00  0.00    +0.000 NA
ATOM     15  C   UNL     1      -1.286  12.245  22.970  0.00  0.00    +0.000 A 
ATOM     16  C   UNL     1      -0.954  11.094  22.264  0.00  0.00    +0.000 A 
ENDBRANCH   8  11
ENDBRANCH   1   9
BRANCH   4  17
ATOM     17  O   UNL     1       3.108   4.511  17.933  0.00  0.00    +0.000 OA
BRANCH  17  18
ATOM     18  C   UNL     1       4.477   4.142  18.171  0.00  0.00    +0.000 C 
BRANCH  18  19
ATOM     19  C   UNL     1       5.382   4.394  16.972  0.00  0.00    +0.000 A 
ATOM     20  C   UNL     1       6.505   5.198  17.119  0.00  0.00    +0.000 A 
ATOM     21  C   UNL     1       7.242   5.535  15.990  0.00  0.00    +0.000 A 
ATOM     22  C   UNL     1       6.909   4.990  14.749  0.00  0.00    +0.000 A 
ATOM     23  C   UNL     1       7.715   5.224  13.620  0.00  0.00    +0.000 A 
ATOM     24  C   UNL     1       7.457   4.565  12.422  0.00  0.00    +0.000 A 
ATOM     25  C   UNL     1       6.354   3.724  12.334  0.00  0.00    +0.000 A 
ATOM     26  C   UNL     1       5.513   3.551  13.443  0.00  0.00    +0.000 A 
ATOM     27  C   UNL     1       5.780   4.150  14.675  0.00  0.00    +0.000 A 
ATOM     28  N   UNL     1       5.006   3.895  15.759  0.00  0.00    +0.000 NA
ENDBRANCH  18  19
ENDBRANCH  17  18
ENDBRANCH   4  17
TORSDOF 5
ENDMDL
MODEL 6
REMARK VINA RESULT:      -7.3      6.999     11.118
REMARK  Name = 
REMARK  6 active torsions:
REMARK  status: ('A' for Active; 'I' for Inactive)
REMARK    1  A    between atoms: C_1  and  N_2
REMARK    2  A    between atoms: N_2  and  C_23
REMARK    3  A    between atoms: C_3  and  C_5
REMARK    4  A    between atoms: C_8  and  O_9
REMARK    5  A    between atoms: O_9  and  C_10
REMARK    6  A    between atoms: C_10  and  C_11
REMARK                            x       y       z     vdW  Elec       q    Type
REMARK                         _______ _______ _______ _____ _____    ______ ____
ROOT
ATOM      1  C   UNL     1       6.052   5.735  18.532  0.00  0.00    +0.000 A 
ATOM      2  C   UNL     1       7.286   5.790  19.193  0.00  0.00    +0.000 A 
ATOM      3  C   UNL     1       8.202   6.832  18.946  0.00  0.00    +0.000 A 
ATOM      4  C   UNL     1       7.953   7.789  17.962  0.00  0.00    +0.000 A 
ATOM      5  C   UNL     1       6.766   7.688  17.231  0.00  0.00    +0.000 A 
ATOM      6  C   UNL     1       5.827   6.675  17.512  0.00  0.00    +0.000 A 
ENDROOT
BRANCH   1   9
ATOM      7  C   UNL     1       3.152   6.449  18.865  0.00  0.00    +0.000 C 
ATOM      8  N   UNL     1       3.628   5.064  19.014  0.00  0.00    +0.000 N 
ATOM      9  C   UNL     1       4.987   4.693  18.818  0.00  0.00    +0.000 C 
ATOM     10  O   UNL     1       5.404   3.525  18.786  0.00  0.00    +0.000 OA
BRANCH   8  11
ATOM     11  C   UNL     1       2.596   4.079  19.331  0.00  0.00    +0.000 A 
ATOM     12  C   UNL     1       1.870   3.398  18.350  0.00  0.00    +0.000 A 
ATOM     13  C   UNL     1       0.894   2.479  18.719  0.00  0.00    +0.000 A 
ATOM     14  N   UNL     1       0.582   2.177  20.000  0.00  0.00    +0.000 NA
ATOM     15  C   UNL     1       1.284   2.824  20.940  0.00  0.00    +0.000 A 
ATOM     16  C   UNL     1       2.285   3.748  20.662  0.00  0.00    +0.000 A 
ENDBRANCH   8  11
ENDBRANCH   1   9
BRANCH   4  17
ATOM     17  O   UNL     1       8.777   8.845  17.641  0.00  0.00    +0.000 OA
BRANCH  17  18
ATOM     18  C   UNL     1       8.209  10.160  17.773  0.00  0.00    +0.000 C 
BRANCH  18  19
ATOM     19  C   UNL     1       9.197  11.188  18.309  0.00  0.00    +0.000 A 
ATOM     20  C   UNL     1      10.072  10.830  19.327  0.00  0.00    +0.000 A 
ATOM     21  C   UNL     1      10.869  11.811  19.904  0.00  0.00    +0.000 A 
ATOM     22  C   UNL     1      10.855  13.112  19.396  0.00  0.00    +0.000 A 
ATOM     23  C   UNL     1      11.742  14.086  19.888  0.00  0.00    +0.000 A 
ATOM     24  C   UNL     1      11.820  15.336  19.282  0.00  0.00    +0.000 A 
ATOM     25  C   UNL     1      10.965  15.635  18.228  0.00  0.00    +0.000 A 
ATOM     26  C   UNL     1      10.032  14.682  17.790  0.00  0.00    +0.000 A 
ATOM     27  C   UNL     1       9.972  13.400  18.336  0.00  0.00    +0.000 A 
ATOM     28  N   UNL     1       9.127  12.465  17.835  0.00  0.00    +0.000 NA
ENDBRANCH  18  19
ENDBRANCH  17  18
ENDBRANCH   4  17
TORSDOF 5
ENDMDL
MODEL 7
REMARK VINA RESULT:      -7.2      1.469      2.208
REMARK  Name = 
REMARK  6 active torsions:
REMARK  status: ('A' for Active; 'I' for Inactive)
REMARK    1  A    between atoms: C_1  and  N_2
REMARK    2  A    between atoms: N_2  and  C_23
REMARK    3  A    between atoms: C_3  and  C_5
REMARK    4  A    between atoms: C_8  and  O_9
REMARK    5  A    between atoms: O_9  and  C_10
REMARK    6  A    between atoms: C_10  and  C_11
REMARK                            x       y       z     vdW  Elec       q    Type
REMARK                         _______ _______ _______ _____ _____    ______ ____
ROOT
ATOM      1  C   UNL     1      -0.429  10.896  20.758  0.00  0.00    +0.000 A 
ATOM      2  C   UNL     1      -0.951  10.949  19.460  0.00  0.00    +0.000 A 
ATOM      3  C   UNL     1      -0.377  10.205  18.409  0.00  0.00    +0.000 A 
ATOM      4  C   UNL     1       0.791   9.468  18.605  0.00  0.00    +0.000 A 
ATOM      5  C   UNL     1       1.374   9.485  19.876  0.00  0.00    +0.000 A 
ATOM      6  C   UNL     1       0.772  10.189  20.939  0.00  0.00    +0.000 A 
ENDROOT
BRANCH   1   9
ATOM      7  C   UNL     1      -1.209  13.797  20.687  0.00  0.00    +0.000 C 
ATOM      8  N   UNL     1      -1.371  12.984  21.903  0.00  0.00    +0.000 N 
ATOM      9  C   UNL     1      -1.052  11.599  21.949  0.00  0.00    +0.000 C 
ATOM     10  O   UNL     1      -1.310  10.845  22.900  0.00  0.00    +0.000 OA
BRANCH   8  11
ATOM     11  C   UNL     1      -1.932  13.687  23.055  0.00  0.00    +0.000 A 
ATOM     12  C   UNL     1      -1.168  14.508  23.889  0.00  0.00    +0.000 A 
ATOM     13  C   UNL     1      -1.761  15.141  24.976  0.00  0.00    +0.000 A 
ATOM     14  N   UNL     1      -3.069  15.023  25.301  0.00  0.00    +0.000 NA
ATOM     15  C   UNL     1      -3.802  14.242  24.497  0.00  0.00    +0.000 A 
ATOM     16  C   UNL     1      -3.296  13.582  23.382  0.00  0.00    +0.000 A 
ENDBRANCH   8  11
ENDBRANCH   1   9
BRANCH   4  17
ATOM     17  O   UNL     1       1.432   8.709  17.652  0.00  0.00    +0.000 OA
BRANCH  17  18
ATOM     18  C   UNL     1       2.813   8.399  17.905  0.00  0.00    +0.000 C 
BRANCH  18  19
ATOM     19  C   UNL     1       3.112   6.907  17.848  0.00  0.00    +0.000 A 
ATOM     20  C   UNL     1       4.358   6.475  17.411  0.00  0.00    +0.000 A 
ATOM     21  C   UNL     1       4.571   5.113  17.229  0.00  0.00    +0.000 A 
ATOM     22  C   UNL     1       3.575   4.197  17.575  0.00  0.00    +0.000 A 
ATOM     23  C   UNL     1       3.817   2.813  17.511  0.00  0.00    +0.000 A 
ATOM     24  C   UNL     1       2.873   1.911  17.991  0.00  0.00    +0.000 A 
ATOM     25  C   UNL     1       1.660   2.389  18.472  0.00  0.00    +0.000 A 
ATOM     26  C   UNL     1       1.397   3.768  18.466  0.00  0.00    +0.000 A 
ATOM     27  C   UNL     1       2.347   4.701  18.049  0.00  0.00    +0.000 A 
ATOM     28  N   UNL     1       2.106   6.032  18.139  0.00  0.00    +0.000 NA
ENDBRANCH  18  19
ENDBRANCH  17  18
ENDBRANCH   4  17
TORSDOF 5
ENDMDL
MODEL 8
REMARK VINA RESULT:      -7.2      2.386      3.188
REMARK  Name = 
REMARK  6 active torsions:
REMARK  status: ('A' for Active; 'I' for Inactive)
REMARK    1  A    between atoms: C_1  and  N_2
REMARK    2  A    between atoms: N_2  and  C_23
REMARK    3  A    between atoms: C_3  and  C_5
REMARK    4  A    between atoms: C_8  and  O_9
REMARK    5  A    between atoms: O_9  and  C_10
REMARK    6  A    between atoms: C_10  and  C_11
REMARK                            x       y       z     vdW  Elec       q    Type
REMARK                         _______ _______ _______ _____ _____    ______ ____
ROOT
ATOM      1  C   UNL     1      -0.477  11.113  22.119  0.00  0.00    +0.000 A 
ATOM      2  C   UNL     1      -0.014  11.330  20.816  0.00  0.00    +0.000 A 
ATOM      3  C   UNL     1       0.699  10.335  20.117  0.00  0.00    +0.000 A 
ATOM      4  C   UNL     1       1.052   9.136  20.737  0.00  0.00    +0.000 A 
ATOM      5  C   UNL     1       0.676   8.948  22.070  0.00  0.00    +0.000 A 
ATOM      6  C   UNL     1      -0.080   9.923  22.752  0.00  0.00    +0.000 A 
ENDROOT
BRANCH   1   9
ATOM      7  C   UNL     1       0.079  14.066  22.094  0.00  0.00    +0.000 C 
ATOM      8  N   UNL     1      -1.013  13.494  22.897  0.00  0.00    +0.000 N 
ATOM      9  C   UNL     1      -1.326  12.106  22.891  0.00  0.00    +0.000 C 
ATOM     10  O   UNL     1      -2.323  11.603  23.430  0.00  0.00    +0.000 OA
BRANCH   8  11
ATOM     11  C   UNL     1      -1.795  14.458  23.668  0.00  0.00    +0.000 A 
ATOM     12  C   UNL     1      -3.077  14.869  23.293  0.00  0.00    +0.000 A 
ATOM     13  C   UNL     1      -3.764  15.798  24.067  0.00  0.00    +0.000 A 
ATOM     14  N   UNL     1      -3.274  16.354  25.199  0.00  0.00    +0.000 NA
ATOM     15  C   UNL     1      -2.047  15.953  25.562  0.00  0.00    +0.000 A 
ATOM     16  C   UNL     1      -1.295  15.021  24.856  0.00  0.00    +0.000 A 
ENDBRANCH   8  11
ENDBRANCH   1   9
BRANCH   4  17
ATOM     17  O   UNL     1       1.744   8.101  20.149  0.00  0.00    +0.000 OA
BRANCH  17  18
ATOM     18  C   UNL     1       2.026   8.237  18.745  0.00  0.00    +0.000 C 
BRANCH  18  19
ATOM     19  C   UNL     1       2.724   7.019  18.153  0.00  0.00    +0.000 A 
ATOM     20  C   UNL     1       2.207   5.752  18.390  0.00  0.00    +0.000 A 
ATOM     21  C   UNL     1       2.928   4.642  17.966  0.00  0.00    +0.000 A 
ATOM     22  C   UNL     1       4.102   4.811  17.229  0.00  0.00    +0.000 A 
ATOM     23  C   UNL     1       4.779   3.702  16.690  0.00  0.00    +0.000 A 
ATOM     24  C   UNL     1       5.865   3.886  15.841  0.00  0.00    +0.000 A 
ATOM     25  C   UNL     1       6.317   5.176  15.585  0.00  0.00    +0.000 A 
ATOM     26  C   UNL     1       5.681   6.274  16.184  0.00  0.00    +0.000 A 
ATOM     27  C   UNL     1       4.552   6.126  16.991  0.00  0.00    +0.000 A 
ATOM     28  N   UNL     1       3.898   7.206  17.485  0.00  0.00    +0.000 NA
ENDBRANCH  18  19
ENDBRANCH  17  18
ENDBRANCH   4  17
TORSDOF 5
ENDMDL
MODEL 9
REMARK VINA RESULT:      -7.2      2.907      9.562
REMARK  Name = 
REMARK  6 active torsions:
REMARK  status: ('A' for Active; 'I' for Inactive)
REMARK    1  A    between atoms: C_1  and  N_2
REMARK    2  A    between atoms: N_2  and  C_23
REMARK    3  A    between atoms: C_3  and  C_5
REMARK    4  A    between atoms: C_8  and  O_9
REMARK    5  A    between atoms: O_9  and  C_10
REMARK    6  A    between atoms: C_10  and  C_11
REMARK                            x       y       z     vdW  Elec       q    Type
REMARK                         _______ _______ _______ _____ _____    ______ ____
ROOT
ATOM      1  C   UNL     1       2.048   7.717  19.129  0.00  0.00    +0.000 A 
ATOM      2  C   UNL     1       1.662   8.129  20.411  0.00  0.00    +0.000 A 
ATOM      3  C   UNL     1       1.015   9.363  20.619  0.00  0.00    +0.000 A 
ATOM      4  C   UNL     1       0.826  10.262  19.569  0.00  0.00    +0.000 A 
ATOM      5  C   UNL     1       1.294   9.900  18.302  0.00  0.00    +0.000 A 
ATOM      6  C   UNL     1       1.896   8.644  18.084  0.00  0.00    +0.000 A 
ENDROOT
BRANCH   1   9
ATOM      7  C   UNL     1       1.015   5.168  20.339  0.00  0.00    +0.000 C 
ATOM      8  N   UNL     1       2.185   5.180  19.446  0.00  0.00    +0.000 N 
ATOM      9  C   UNL     1       2.666   6.365  18.826  0.00  0.00    +0.000 C 
ATOM     10  O   UNL     1       3.549   6.400  17.955  0.00  0.00    +0.000 OA
BRANCH   8  11
ATOM     11  C   UNL     1       2.795   3.875  19.197  0.00  0.00    +0.000 A 
ATOM     12  C   UNL     1       3.787   3.333  20.018  0.00  0.00    +0.000 A 
ATOM     13  C   UNL     1       4.335   2.089  19.721  0.00  0.00    +0.000 A 
ATOM     14  N   UNL     1       3.966   1.333  18.662  0.00  0.00    +0.000 NA
ATOM     15  C   UNL     1       3.009   1.850  17.879  0.00  0.00    +0.000 A 
ATOM     16  C   UNL     1       2.398   3.078  18.109  0.00  0.00    +0.000 A 
ENDBRANCH   8  11
ENDBRANCH   1   9
BRANCH   4  17
ATOM     17  O   UNL     1       0.208  11.489  19.662  0.00  0.00    +0.000 OA
BRANCH  17  18
ATOM     18  C   UNL     1      -0.638  11.863  18.560  0.00  0.00    +0.000 C 
BRANCH  18  19
ATOM     19  C   UNL     1      -2.089  12.080  18.967  0.00  0.00    +0.000 A 
ATOM     20  C   UNL     1      -2.375  12.734  20.159  0.00  0.00    +0.000 A 
ATOM     21  C   UNL     1      -3.696  12.801  20.588  0.00  0.00    +0.000 A 
ATOM     22  C   UNL     1      -4.720  12.303  19.780  0.00  0.00    +0.000 A 
ATOM     23  C   UNL     1      -6.069  12.470  20.143  0.00  0.00    +0.000 A 
ATOM     24  C   UNL     1      -7.084  12.099  19.267  0.00  0.00    +0.000 A 
ATOM     25  C   UNL     1      -6.752  11.498  18.059  0.00  0.00    +0.000 A 
ATOM     26  C   UNL     1      -5.406  11.268  17.735  0.00  0.00    +0.000 A 
ATOM     27  C   UNL     1      -4.364  11.685  18.564  0.00  0.00    +0.000 A 
ATOM     28  N   UNL     1      -3.069  11.536  18.190  0.00  0.00    +0.000 NA
ENDBRANCH  18  19
ENDBRANCH  17  18
ENDBRANCH   4  17
TORSDOF 5
ENDMDL
