MODEL 1
REMARK VINA RESULT:      -8.1      0.000      0.000
REMARK  Name = 
REMARK  3 active torsions:
REMARK  status: ('A' for Active; 'I' for Inactive)
REMARK    1  A    between atoms: C_4  and  N_5
REMARK    2  A    between atoms: N_8  and  C_9
REMARK    3  A    between atoms: C_21  and  O_22
REMARK                            x       y       z     vdW  Elec       q    Type
REMARK                         _______ _______ _______ _____ _____    ______ ____
ROOT
ATOM      1  O   UNL     1       0.398   9.655  23.894  0.00  0.00    +0.000 OA
ATOM      2  C   UNL     1       0.260   9.793  22.682  0.00  0.00    +0.000 C 
ATOM      3  C   UNL     1       0.985   8.914  21.749  0.00  0.00    +0.000 C 
ATOM      4  C   UNL     1       0.895   9.007  20.413  0.00  0.00    +0.000 C 
ATOM      5  C   UNL     1      -0.034  10.037  19.826  0.00  0.00    +0.000 C 
ATOM      6  O   UNL     1      -0.218  10.152  18.615  0.00  0.00    +0.000 OA
ATOM      7  C   UNL     1      -0.774  10.931  20.735  0.00  0.00    +0.000 A 
ATOM      8  C   UNL     1      -1.647  11.903  20.220  0.00  0.00    +0.000 A 
ATOM      9  C   UNL     1      -2.338  12.761  21.072  0.00  0.00    +0.000 A 
ATOM     10  C   UNL     1      -2.161  12.662  22.450  0.00  0.00    +0.000 A 
ATOM     11  C   UNL     1      -1.303  11.694  22.974  0.00  0.00    +0.000 A 
ATOM     12  C   UNL     1      -0.616  10.825  22.113  0.00  0.00    +0.000 A 
ENDROOT
BRANCH   4  13
ATOM     13  N   UNL     1       1.640   8.172  19.562  0.00  0.00    +0.000 N 
ATOM     14  C   UNL     1       2.269   6.916  20.056  0.00  0.00    +0.000 C 
ATOM     15  C   UNL     1       2.469   5.913  18.898  0.00  0.00    +0.000 C 
ATOM     16  N   UNL     1       3.253   6.518  17.803  0.00  0.00    +0.000 N 
ATOM     17  C   UNL     1       2.713   7.802  17.319  0.00  0.00    +0.000 C 
ATOM     18  C   UNL     1       2.465   8.785  18.486  0.00  0.00    +0.000 C 
BRANCH  16  19
ATOM     19  C   UNL     1       4.468   6.001  17.379  0.00  0.00    +0.000 A 
ATOM     20  C   UNL     1       5.620   6.817  17.414  0.00  0.00    +0.000 A 
ATOM     21  C   UNL     1       6.886   6.361  17.027  0.00  0.00    +0.000 A 
ATOM     22  C   UNL     1       7.046   5.065  16.566  0.00  0.00    +0.000 A 
ATOM     23  C   UNL     1       5.938   4.227  16.501  0.00  0.00    +0.000 A 
ATOM     24  C   UNL     1       4.671   4.678  16.912  0.00  0.00    +0.000 A 
ATOM     25 CL   UNL     1       3.432   3.460  16.913  0.00  0.00    +0.000 Cl
ENDBRANCH  16  19
ENDBRANCH   4  13
BRANCH   8  26
ATOM     26  O   UNL     1      -1.878  12.071  18.879  0.00  0.00    +0.000 OA
ATOM     27  H   UNL     1      -2.851  12.053  18.732  0.00  0.00    +0.000 HD
ENDBRANCH   8  26
TORSDOF 3
ENDMDL
MODEL 2
REMARK VINA RESULT:      -7.5      3.250      8.646
REMARK  Name = 
REMARK  3 active torsions:
REMARK  status: ('A' for Active; 'I' for Inactive)
REMARK    1  A    between atoms: C_4  and  N_5
REMARK    2  A    between atoms: N_8  and  C_9
REMARK    3  A    between atoms: C_21  and  O_22
REMARK                            x       y       z     vdW  Elec       q    Type
REMARK                         _______ _______ _______ _____ _____    ______ ____
ROOT
ATOM      1  O   UNL     1       4.437   7.227  16.634  0.00  0.00    +0.000 OA
ATOM      2  C   UNL     1       3.775   6.868  17.604  0.00  0.00    +0.000 C 
ATOM      3  C   UNL     1       2.854   7.811  18.261  0.00  0.00    +0.000 C 
ATOM      4  C   UNL     1       2.105   7.500  19.330  0.00  0.00    +0.000 C 
ATOM      5  C   UNL     1       2.169   6.093  19.867  0.00  0.00    +0.000 C 
ATOM      6  O   UNL     1       1.475   5.709  20.807  0.00  0.00    +0.000 OA
ATOM      7  C   UNL     1       3.081   5.127  19.229  0.00  0.00    +0.000 A 
ATOM      8  C   UNL     1       3.167   3.809  19.706  0.00  0.00    +0.000 A 
ATOM      9  C   UNL     1       4.037   2.895  19.118  0.00  0.00    +0.000 A 
ATOM     10  C   UNL     1       4.839   3.289  18.049  0.00  0.00    +0.000 A 
ATOM     11  C   UNL     1       4.757   4.593  17.560  0.00  0.00    +0.000 A 
ATOM     12  C   UNL     1       3.871   5.508  18.148  0.00  0.00    +0.000 A 
ENDROOT
BRANCH   4  13
ATOM     13  N   UNL     1       1.271   8.447  19.950  0.00  0.00    +0.000 N 
ATOM     14  C   UNL     1       0.788   9.654  19.224  0.00  0.00    +0.000 C 
ATOM     15  C   UNL     1      -0.530  10.171  19.842  0.00  0.00    +0.000 C 
ATOM     16  N   UNL     1      -0.372  10.433  21.287  0.00  0.00    +0.000 N 
ATOM     17  C   UNL     1       0.169   9.291  22.046  0.00  0.00    +0.000 C 
ATOM     18  C   UNL     1       1.460   8.743  21.396  0.00  0.00    +0.000 C 
BRANCH  16  19
ATOM     19  C   UNL     1      -0.568  11.688  21.845  0.00  0.00    +0.000 A 
ATOM     20  C   UNL     1      -1.617  11.880  22.769  0.00  0.00    +0.000 A 
ATOM     21  C   UNL     1      -1.863  13.109  23.394  0.00  0.00    +0.000 A 
ATOM     22  C   UNL     1      -1.074  14.208  23.098  0.00  0.00    +0.000 A 
ATOM     23  C   UNL     1      -0.037  14.071  22.183  0.00  0.00    +0.000 A 
ATOM     24  C   UNL     1       0.226  12.831  21.573  0.00  0.00    +0.000 A 
ATOM     25 CL   UNL     1       1.650  12.797  20.579  0.00  0.00    +0.000 Cl
ENDBRANCH  16  19
ENDBRANCH   4  13
BRANCH   8  26
ATOM     26  O   UNL     1       2.417   3.339  20.753  0.00  0.00    +0.000 OA
ATOM     27  H   UNL     1       3.032   3.028  21.455  0.00  0.00    +0.000 HD
ENDBRANCH   8  26
TORSDOF 3
ENDMDL
MODEL 3
REMARK VINA RESULT:      -7.5      3.108      8.448
REMARK  Name = 
REMARK  3 active torsions:
REMARK  status: ('A' for Active; 'I' for Inactive)
REMARK    1  A    between atoms: C_4  and  N_5
REMARK    2  A    between atoms: N_8  and  C_9
REMARK    3  A    between atoms: C_21  and  O_22
REMARK                            x       y       z     vdW  Elec       q    Type
REMARK                         _______ _______ _______ _____ _____    ______ ____
ROOT
ATOM      1  O   UNL     1       2.563   3.487  20.007  0.00  0.00    +0.000 OA
ATOM      2  C   UNL     1       2.779   4.560  19.449  0.00  0.00    +0.000 C 
ATOM      3  C   UNL     1       2.194   5.801  19.982  0.00  0.00    +0.000 C 
ATOM      4  C   UNL     1       2.374   7.009  19.426  0.00  0.00    +0.000 C 
ATOM      5  C   UNL     1       3.261   7.117  18.213  0.00  0.00    +0.000 C 
ATOM      6  O   UNL     1       3.525   8.192  17.676  0.00  0.00    +0.000 OA
ATOM      7  C   UNL     1       3.863   5.890  17.658  0.00  0.00    +0.000 A 
ATOM      8  C   UNL     1       4.693   5.955  16.528  0.00  0.00    +0.000 A 
ATOM      9  C   UNL     1       5.252   4.800  15.989  0.00  0.00    +0.000 A 
ATOM     10  C   UNL     1       4.983   3.563  16.569  0.00  0.00    +0.000 A 
ATOM     11  C   UNL     1       4.165   3.486  17.698  0.00  0.00    +0.000 A 
ATOM     12  C   UNL     1       3.613   4.654  18.244  0.00  0.00    +0.000 A 
ENDROOT
BRANCH   4  13
ATOM     13  N   UNL     1       1.759   8.162  19.946  0.00  0.00    +0.000 N 
ATOM     14  C   UNL     1       1.111   8.162  21.286  0.00  0.00    +0.000 C 
ATOM     15  C   UNL     1       1.079   9.590  21.877  0.00  0.00    +0.000 C 
ATOM     16  N   UNL     1       0.415  10.531  20.952  0.00  0.00    +0.000 N 
ATOM     17  C   UNL     1       0.973  10.523  19.588  0.00  0.00    +0.000 C 
ATOM     18  C   UNL     1       1.053   9.087  19.020  0.00  0.00    +0.000 C 
BRANCH  16  19
ATOM     19  C   UNL     1      -0.726  11.239  21.298  0.00  0.00    +0.000 A 
ATOM     20  C   UNL     1      -1.123  11.298  22.652  0.00  0.00    +0.000 A 
ATOM     21  C   UNL     1      -2.248  12.012  23.083  0.00  0.00    +0.000 A 
ATOM     22  C   UNL     1      -3.038  12.683  22.165  0.00  0.00    +0.000 A 
ATOM     23  C   UNL     1      -2.696  12.643  20.819  0.00  0.00    +0.000 A 
ATOM     24  C   UNL     1      -1.552  11.945  20.388  0.00  0.00    +0.000 A 
ATOM     25 CL   UNL     1      -1.183  12.127  18.700  0.00  0.00    +0.000 Cl
ENDBRANCH  16  19
ENDBRANCH   4  13
BRANCH   8  26
ATOM     26  O   UNL     1       5.009   7.130  15.894  0.00  0.00    +0.000 OA
ATOM     27  H   UNL     1       5.968   7.113  15.678  0.00  0.00    +0.000 HD
ENDBRANCH   8  26
TORSDOF 3
ENDMDL
MODEL 4
REMARK VINA RESULT:      -7.5      1.051      1.152
REMARK  Name = 
REMARK  3 active torsions:
REMARK  status: ('A' for Active; 'I' for Inactive)
REMARK    1  A    between atoms: C_4  and  N_5
REMARK    2  A    between atoms: N_8  and  C_9
REMARK    3  A    between atoms: C_21  and  O_22
REMARK                            x       y       z     vdW  Elec       q    Type
REMARK                         _______ _______ _______ _____ _____    ______ ____
ROOT
ATOM      1  O   UNL     1       0.848   9.467  23.622  0.00  0.00    +0.000 OA
ATOM      2  C   UNL     1       0.656   9.593  22.415  0.00  0.00    +0.000 C 
ATOM      3  C   UNL     1       1.357   8.719  21.459  0.00  0.00    +0.000 C 
ATOM      4  C   UNL     1       1.210   8.800  20.128  0.00  0.00    +0.000 C 
ATOM      5  C   UNL     1       0.239   9.809  19.573  0.00  0.00    +0.000 C 
ATOM      6  O   UNL     1       0.002   9.911  18.370  0.00  0.00    +0.000 OA
ATOM      7  C   UNL     1      -0.479  10.697  20.506  0.00  0.00    +0.000 A 
ATOM      8  C   UNL     1      -1.389  11.650  20.021  0.00  0.00    +0.000 A 
ATOM      9  C   UNL     1      -2.059  12.502  20.894  0.00  0.00    +0.000 A 
ATOM     10  C   UNL     1      -1.822  12.418  22.264  0.00  0.00    +0.000 A 
ATOM     11  C   UNL     1      -0.926  11.469  22.759  0.00  0.00    +0.000 A 
ATOM     12  C   UNL     1      -0.261  10.605  21.877  0.00  0.00    +0.000 A 
ENDROOT
BRANCH   4  13
ATOM     13  N   UNL     1       1.933   7.971  19.252  0.00  0.00    +0.000 N 
ATOM     14  C   UNL     1       2.394   6.616  19.663  0.00  0.00    +0.000 C 
ATOM     15  C   UNL     1       2.584   5.707  18.429  0.00  0.00    +0.000 C 
ATOM     16  N   UNL     1       3.507   6.322  17.454  0.00  0.00    +0.000 N 
ATOM     17  C   UNL     1       3.136   7.694  17.062  0.00  0.00    +0.000 C 
ATOM     18  C   UNL     1       2.896   8.588  18.300  0.00  0.00    +0.000 C 
BRANCH  16  19
ATOM     19  C   UNL     1       4.695   5.720  17.066  0.00  0.00    +0.000 A 
ATOM     20  C   UNL     1       5.021   5.647  15.695  0.00  0.00    +0.000 A 
ATOM     21  C   UNL     1       6.211   5.077  15.226  0.00  0.00    +0.000 A 
ATOM     22  C   UNL     1       7.120   4.534  16.120  0.00  0.00    +0.000 A 
ATOM     23  C   UNL     1       6.837   4.571  17.480  0.00  0.00    +0.000 A 
ATOM     24  C   UNL     1       5.652   5.164  17.953  0.00  0.00    +0.000 A 
ATOM     25 CL   UNL     1       5.529   5.265  19.683  0.00  0.00    +0.000 Cl
ENDBRANCH  16  19
ENDBRANCH   4  13
BRANCH   8  26
ATOM     26  O   UNL     1      -1.679  11.803  18.689  0.00  0.00    +0.000 OA
ATOM     27  H   UNL     1      -0.893  12.196  18.247  0.00  0.00    +0.000 HD
ENDBRANCH   8  26
TORSDOF 3
ENDMDL
MODEL 5
REMARK VINA RESULT:      -7.5      2.080      3.488
REMARK  Name = 
REMARK  3 active torsions:
REMARK  status: ('A' for Active; 'I' for Inactive)
REMARK    1  A    between atoms: C_4  and  N_5
REMARK    2  A    between atoms: N_8  and  C_9
REMARK    3  A    between atoms: C_21  and  O_22
REMARK                            x       y       z     vdW  Elec       q    Type
REMARK                         _______ _______ _______ _____ _____    ______ ____
ROOT
ATOM      1  O   UNL     1      -3.348  12.018  19.190  0.00  0.00    +0.000 OA
ATOM      2  C   UNL     1      -2.199  12.025  19.623  0.00  0.00    +0.000 C 
ATOM      3  C   UNL     1      -1.270  10.938  19.273  0.00  0.00    +0.000 C 
ATOM      4  C   UNL     1      -0.004  10.867  19.713  0.00  0.00    +0.000 C 
ATOM      5  C   UNL     1       0.518  11.983  20.579  0.00  0.00    +0.000 C 
ATOM      6  O   UNL     1       1.681  12.026  20.979  0.00  0.00    +0.000 OA
ATOM      7  C   UNL     1      -0.389  13.086  20.946  0.00  0.00    +0.000 A 
ATOM      8  C   UNL     1       0.066  14.141  21.753  0.00  0.00    +0.000 A 
ATOM      9  C   UNL     1      -0.789  15.178  22.116  0.00  0.00    +0.000 A 
ATOM     10  C   UNL     1      -2.113  15.171  21.682  0.00  0.00    +0.000 A 
ATOM     11  C   UNL     1      -2.574  14.132  20.872  0.00  0.00    +0.000 A 
ATOM     12  C   UNL     1      -1.707  13.095  20.500  0.00  0.00    +0.000 A 
ENDROOT
BRANCH   4  13
ATOM     13  N   UNL     1       0.834   9.786  19.386  0.00  0.00    +0.000 N 
ATOM     14  C   UNL     1       1.129   9.430  17.970  0.00  0.00    +0.000 C 
ATOM     15  C   UNL     1       2.476   8.682  17.865  0.00  0.00    +0.000 C 
ATOM     16  N   UNL     1       2.492   7.492  18.740  0.00  0.00    +0.000 N 
ATOM     17  C   UNL     1       2.139   7.776  20.143  0.00  0.00    +0.000 C 
ATOM     18  C   UNL     1       0.817   8.570  20.242  0.00  0.00    +0.000 C 
BRANCH  16  19
ATOM     19  C   UNL     1       2.669   6.206  18.250  0.00  0.00    +0.000 A 
ATOM     20  C   UNL     1       1.602   5.285  18.319  0.00  0.00    +0.000 A 
ATOM     21  C   UNL     1       1.694   3.977  17.824  0.00  0.00    +0.000 A 
ATOM     22  C   UNL     1       2.877   3.533  17.256  0.00  0.00    +0.000 A 
ATOM     23  C   UNL     1       3.960   4.400  17.178  0.00  0.00    +0.000 A 
ATOM     24  C   UNL     1       3.860   5.720  17.653  0.00  0.00    +0.000 A 
ATOM     25 CL   UNL     1       5.250   6.714  17.338  0.00  0.00    +0.000 Cl
ENDBRANCH  16  19
ENDBRANCH   4  13
BRANCH   8  26
ATOM     26  O   UNL     1       1.350  14.226  22.226  0.00  0.00    +0.000 OA
ATOM     27  H   UNL     1       1.394  14.978  22.859  0.00  0.00    +0.000 HD
ENDBRANCH   8  26
TORSDOF 3
ENDMDL
MODEL 6
REMARK VINA RESULT:      -7.5      3.560      8.589
REMARK  Name = 
REMARK  3 active torsions:
REMARK  status: ('A' for Active; 'I' for Inactive)
REMARK    1  A    between atoms: C_4  and  N_5
REMARK    2  A    between atoms: N_8  and  C_9
REMARK    3  A    between atoms: C_21  and  O_22
REMARK                            x       y       z     vdW  Elec       q    Type
REMARK                         _______ _______ _______ _____ _____    ______ ____
ROOT
ATOM      1  O   UNL     1       4.503   6.871  16.882  0.00  0.00    +0.000 OA
ATOM      2  C   UNL     1       3.761   6.627  17.829  0.00  0.00    +0.000 C 
ATOM      3  C   UNL     1       2.934   7.695  18.415  0.00  0.00    +0.000 C 
ATOM      4  C   UNL     1       2.107   7.513  19.456  0.00  0.00    +0.000 C 
ATOM      5  C   UNL     1       1.977   6.128  20.036  0.00  0.00    +0.000 C 
ATOM      6  O   UNL     1       1.201   5.862  20.952  0.00  0.00    +0.000 OA
ATOM      7  C   UNL     1       2.792   5.038  19.469  0.00  0.00    +0.000 A 
ATOM      8  C   UNL     1       2.696   3.736  19.987  0.00  0.00    +0.000 A 
ATOM      9  C   UNL     1       3.473   2.705  19.467  0.00  0.00    +0.000 A 
ATOM     10  C   UNL     1       4.362   2.963  18.426  0.00  0.00    +0.000 A 
ATOM     11  C   UNL     1       4.460   4.250  17.897  0.00  0.00    +0.000 A 
ATOM     12  C   UNL     1       3.668   5.284  18.416  0.00  0.00    +0.000 A 
ENDROOT
BRANCH   4  13
ATOM     13  N   UNL     1       1.368   8.573  20.010  0.00  0.00    +0.000 N 
ATOM     14  C   UNL     1       1.016   9.778  19.209  0.00  0.00    +0.000 C 
ATOM     15  C   UNL     1      -0.248  10.461  19.777  0.00  0.00    +0.000 C 
ATOM     16  N   UNL     1      -0.076  10.789  21.207  0.00  0.00    +0.000 N 
ATOM     17  C   UNL     1       0.341   9.645  22.038  0.00  0.00    +0.000 C 
ATOM     18  C   UNL     1       1.575   8.933  21.438  0.00  0.00    +0.000 C 
BRANCH  16  19
ATOM     19  C   UNL     1      -0.148  12.088  21.689  0.00  0.00    +0.000 A 
ATOM     20  C   UNL     1       0.736  13.066  21.185  0.00  0.00    +0.000 A 
ATOM     21  C   UNL     1       0.709  14.402  21.604  0.00  0.00    +0.000 A 
ATOM     22  C   UNL     1      -0.198  14.809  22.567  0.00  0.00    +0.000 A 
ATOM     23  C   UNL     1      -1.081  13.879  23.103  0.00  0.00    +0.000 A 
ATOM     24  C   UNL     1      -1.070  12.542  22.666  0.00  0.00    +0.000 A 
ATOM     25 CL   UNL     1      -2.338  11.552  23.323  0.00  0.00    +0.000 Cl
ENDBRANCH  16  19
ENDBRANCH   4  13
BRANCH   8  26
ATOM     26  O   UNL     1       1.850   3.395  21.011  0.00  0.00    +0.000 OA
ATOM     27  H   UNL     1       1.315   2.622  20.722  0.00  0.00    +0.000 HD
ENDBRANCH   8  26
TORSDOF 3
ENDMDL
MODEL 7
REMARK VINA RESULT:      -7.4      3.373      8.614
REMARK  Name = 
REMARK  3 active torsions:
REMARK  status: ('A' for Active; 'I' for Inactive)
REMARK    1  A    between atoms: C_4  and  N_5
REMARK    2  A    between atoms: N_8  and  C_9
REMARK    3  A    between atoms: C_21  and  O_22
REMARK                            x       y       z     vdW  Elec       q    Type
REMARK                         _______ _______ _______ _____ _____    ______ ____
ROOT
ATOM      1  O   UNL     1       4.621   6.035  16.599  0.00  0.00    +0.000 OA
ATOM      2  C   UNL     1       3.843   5.862  17.534  0.00  0.00    +0.000 C 
ATOM      3  C   UNL     1       3.214   7.017  18.196  0.00  0.00    +0.000 C 
ATOM      4  C   UNL     1       2.363   6.913  19.229  0.00  0.00    +0.000 C 
ATOM      5  C   UNL     1       1.990   5.536  19.716  0.00  0.00    +0.000 C 
ATOM      6  O   UNL     1       1.176   5.350  20.619  0.00  0.00    +0.000 OA
ATOM      7  C   UNL     1       2.604   4.361  19.071  0.00  0.00    +0.000 A 
ATOM      8  C   UNL     1       2.279   3.065  19.503  0.00  0.00    +0.000 A 
ATOM      9  C   UNL     1       2.866   1.950  18.909  0.00  0.00    +0.000 A 
ATOM     10  C   UNL     1       3.791   2.118  17.881  0.00  0.00    +0.000 A 
ATOM     11  C   UNL     1       4.115   3.401  17.438  0.00  0.00    +0.000 A 
ATOM     12  C   UNL     1       3.514   4.520  18.031  0.00  0.00    +0.000 A 
ENDROOT
BRANCH   4  13
ATOM     13  N   UNL     1       1.819   8.047  19.857  0.00  0.00    +0.000 N 
ATOM     14  C   UNL     1       1.165   7.959  21.192  0.00  0.00    +0.000 C 
ATOM     15  C   UNL     1       1.219   9.323  21.917  0.00  0.00    +0.000 C 
ATOM     16  N   UNL     1       0.621  10.388  21.088  0.00  0.00    +0.000 N 
ATOM     17  C   UNL     1       1.185  10.476  19.728  0.00  0.00    +0.000 C 
ATOM     18  C   UNL     1       1.177   9.099  19.025  0.00  0.00    +0.000 C 
BRANCH  16  19
ATOM     19  C   UNL     1      -0.475  11.130  21.501  0.00  0.00    +0.000 A 
ATOM     20  C   UNL     1      -0.976  10.959  22.810  0.00  0.00    +0.000 A 
ATOM     21  C   UNL     1      -2.063  11.688  23.308  0.00  0.00    +0.000 A 
ATOM     22  C   UNL     1      -2.709  12.609  22.502  0.00  0.00    +0.000 A 
ATOM     23  C   UNL     1      -2.261  12.803  21.200  0.00  0.00    +0.000 A 
ATOM     24  C   UNL     1      -1.155  12.089  20.706  0.00  0.00    +0.000 A 
ATOM     25 CL   UNL     1      -0.632  12.564  19.120  0.00  0.00    +0.000 Cl
ENDBRANCH  16  19
ENDBRANCH   4  13
BRANCH   8  26
ATOM     26  O   UNL     1       1.382   2.810  20.508  0.00  0.00    +0.000 OA
ATOM     27  H   UNL     1       1.196   1.844  20.515  0.00  0.00    +0.000 HD
ENDBRANCH   8  26
TORSDOF 3
ENDMDL
MODEL 8
REMARK VINA RESULT:      -7.3      3.183      8.592
REMARK  Name = 
REMARK  3 active torsions:
REMARK  status: ('A' for Active; 'I' for Inactive)
REMARK    1  A    between atoms: C_4  and  N_5
REMARK    2  A    between atoms: N_8  and  C_9
REMARK    3  A    between atoms: C_21  and  O_22
REMARK                            x       y       z     vdW  Elec       q    Type
REMARK                         _______ _______ _______ _____ _____    ______ ____
ROOT
ATOM      1  O   UNL     1       2.271   3.424  17.547  0.00  0.00    +0.000 OA
ATOM      2  C   UNL     1       2.886   4.486  17.545  0.00  0.00    +0.000 C 
ATOM      3  C   UNL     1       2.282   5.693  18.133  0.00  0.00    +0.000 C 
ATOM      4  C   UNL     1       2.884   6.892  18.161  0.00  0.00    +0.000 C 
ATOM      5  C   UNL     1       4.278   7.008  17.601  0.00  0.00    +0.000 C 
ATOM      6  O   UNL     1       4.923   8.055  17.637  0.00  0.00    +0.000 OA
ATOM      7  C   UNL     1       4.910   5.816  17.006  0.00  0.00    +0.000 A 
ATOM      8  C   UNL     1       6.207   5.891  16.474  0.00  0.00    +0.000 A 
ATOM      9  C   UNL     1       6.804   4.773  15.897  0.00  0.00    +0.000 A 
ATOM     10  C   UNL     1       6.109   3.567  15.839  0.00  0.00    +0.000 A 
ATOM     11  C   UNL     1       4.823   3.478  16.372  0.00  0.00    +0.000 A 
ATOM     12  C   UNL     1       4.229   4.604  16.962  0.00  0.00    +0.000 A 
ENDROOT
BRANCH   4  13
ATOM     13  N   UNL     1       2.250   8.027  18.696  0.00  0.00    +0.000 N 
ATOM     14  C   UNL     1       1.367   7.935  19.892  0.00  0.00    +0.000 C 
ATOM     15  C   UNL     1       1.307   9.291  20.630  0.00  0.00    +0.000 C 
ATOM     16  N   UNL     1       0.878  10.372  19.720  0.00  0.00    +0.000 N 
ATOM     17  C   UNL     1       1.676  10.465  18.484  0.00  0.00    +0.000 C 
ATOM     18  C   UNL     1       1.778   9.095  17.775  0.00  0.00    +0.000 C 
BRANCH  16  19
ATOM     19  C   UNL     1      -0.266  11.124  19.940  0.00  0.00    +0.000 A 
ATOM     20  C   UNL     1      -0.304  12.031  21.021  0.00  0.00    +0.000 A 
ATOM     21  C   UNL     1      -1.412  12.843  21.294  0.00  0.00    +0.000 A 
ATOM     22  C   UNL     1      -2.544  12.761  20.500  0.00  0.00    +0.000 A 
ATOM     23  C   UNL     1      -2.560  11.873  19.431  0.00  0.00    +0.000 A 
ATOM     24  C   UNL     1      -1.438  11.074  19.143  0.00  0.00    +0.000 A 
ATOM     25 CL   UNL     1      -1.568  10.137  17.686  0.00  0.00    +0.000 Cl
ENDBRANCH  16  19
ENDBRANCH   4  13
BRANCH   8  26
ATOM     26  O   UNL     1       6.960   7.037  16.487  0.00  0.00    +0.000 OA
ATOM     27  H   UNL     1       6.831   7.477  17.357  0.00  0.00    +0.000 HD
ENDBRANCH   8  26
TORSDOF 3
ENDMDL
MODEL 9
REMARK VINA RESULT:      -7.3      3.475      8.251
REMARK  Name = 
REMARK  3 active torsions:
REMARK  status: ('A' for Active; 'I' for Inactive)
REMARK    1  A    between atoms: C_4  and  N_5
REMARK    2  A    between atoms: N_8  and  C_9
REMARK    3  A    between atoms: C_21  and  O_22
REMARK                            x       y       z     vdW  Elec       q    Type
REMARK                         _______ _______ _______ _____ _____    ______ ____
ROOT
ATOM      1  O   UNL     1       5.173   5.794  17.217  0.00  0.00    +0.000 OA
ATOM      2  C   UNL     1       4.261   5.826  18.039  0.00  0.00    +0.000 C 
ATOM      3  C   UNL     1       3.399   7.016  18.142  0.00  0.00    +0.000 C 
ATOM      4  C   UNL     1       2.390   7.133  19.019  0.00  0.00    +0.000 C 
ATOM      5  C   UNL     1       2.087   5.967  19.924  0.00  0.00    +0.000 C 
ATOM      6  O   UNL     1       1.146   5.969  20.716  0.00  0.00    +0.000 OA
ATOM      7  C   UNL     1       2.932   4.762  19.842  0.00  0.00    +0.000 A 
ATOM      8  C   UNL     1       2.677   3.659  20.673  0.00  0.00    +0.000 A 
ATOM      9  C   UNL     1       3.479   2.523  20.613  0.00  0.00    +0.000 A 
ATOM     10  C   UNL     1       4.553   2.478  19.726  0.00  0.00    +0.000 A 
ATOM     11  C   UNL     1       4.812   3.565  18.890  0.00  0.00    +0.000 A 
ATOM     12  C   UNL     1       3.994   4.703  18.946  0.00  0.00    +0.000 A 
ENDROOT
BRANCH   4  13
ATOM     13  N   UNL     1       1.621   8.306  19.110  0.00  0.00    +0.000 N 
ATOM     14  C   UNL     1       1.413   9.195  17.933  0.00  0.00    +0.000 C 
ATOM     15  C   UNL     1       0.109  10.008  18.086  0.00  0.00    +0.000 C 
ATOM     16  N   UNL     1       0.106  10.772  19.350  0.00  0.00    +0.000 N 
ATOM     17  C   UNL     1       0.375   9.951  20.545  0.00  0.00    +0.000 C 
ATOM     18  C   UNL     1       1.653   9.099  20.368  0.00  0.00    +0.000 C 
BRANCH  16  19
ATOM     19  C   UNL     1       0.014  12.155  19.388  0.00  0.00    +0.000 A 
ATOM     20  C   UNL     1      -1.117  12.759  19.978  0.00  0.00    +0.000 A 
ATOM     21  C   UNL     1      -1.272  14.148  20.077  0.00  0.00    +0.000 A 
ATOM     22  C   UNL     1      -0.301  14.992  19.564  0.00  0.00    +0.000 A 
ATOM     23  C   UNL     1       0.825  14.444  18.962  0.00  0.00    +0.000 A 
ATOM     24  C   UNL     1       0.992  13.049  18.884  0.00  0.00    +0.000 A 
ATOM     25 CL   UNL     1       2.522  12.535  18.243  0.00  0.00    +0.000 Cl
ENDBRANCH  16  19
ENDBRANCH   4  13
BRANCH   8  26
ATOM     26  O   UNL     1       1.644   3.619  21.574  0.00  0.00    +0.000 OA
ATOM     27  H   UNL     1       0.837   3.967  21.131  0.00  0.00    +0.000 HD
ENDBRANCH   8  26
TORSDOF 3
ENDMDL
