MODEL 1
REMARK VINA RESULT:      -7.8      0.000      0.000
REMARK  Name = 
REMARK  3 active torsions:
REMARK  status: ('A' for Active; 'I' for Inactive)
REMARK    1  A    between atoms: C_2  and  C_3
REMARK    2  A    between atoms: N_16  and  C_17
REMARK    3  A    between atoms: C_17  and  C_18
REMARK                            x       y       z     vdW  Elec       q    Type
REMARK                         _______ _______ _______ _____ _____    ______ ____
ROOT
ATOM      1  O   UNL     1      -0.198   9.967  18.583  0.00  0.00    +0.000 OA
ATOM      2  C   UNL     1       0.546   9.528  19.462  0.00  0.00    +0.000 C 
ATOM      3  N   UNL     1       1.617   8.684  19.150  0.00  0.00    +0.000 N 
ATOM      4  C   UNL     1       2.491   7.987  20.092  0.00  0.00    +0.000 C 
ATOM      5  C   UNL     1       2.345   6.476  19.960  0.00  0.00    +0.000 C 
ATOM      6  C   UNL     1       2.535   6.004  18.514  0.00  0.00    +0.000 C 
ATOM      7  C   UNL     1       1.652   6.810  17.548  0.00  0.00    +0.000 C 
ATOM      8  C   UNL     1       1.826   8.319  17.747  0.00  0.00    +0.000 C 
ATOM      9  C   UNL     1       4.031   6.110  18.106  0.00  0.00    +0.000 C 
ATOM     10  O   UNL     1       4.701   7.132  18.091  0.00  0.00    +0.000 OA
ATOM     11  N   UNL     1       4.481   4.830  17.788  0.00  0.00    +0.000 N 
ATOM     12  C   UNL     1       3.478   3.879  17.973  0.00  0.00    +0.000 A 
ATOM     13  C   UNL     1       3.547   2.509  17.811  0.00  0.00    +0.000 A 
ATOM     14  C   UNL     1       2.407   1.756  18.089  0.00  0.00    +0.000 A 
ATOM     15  C   UNL     1       1.226   2.379  18.523  0.00  0.00    +0.000 A 
ATOM     16  C   UNL     1       1.163   3.766  18.676  0.00  0.00    +0.000 A 
ATOM     17  C   UNL     1       2.303   4.512  18.398  0.00  0.00    +0.000 A 
ENDROOT
BRANCH   2  18
ATOM     18  C   UNL     1       0.238   9.837  20.853  0.00  0.00    +0.000 A 
ATOM     19  C   UNL     1      -0.280   8.914  21.814  0.00  0.00    +0.000 A 
ATOM     20  C   UNL     1      -0.389   9.595  23.001  0.00  0.00    +0.000 A 
ATOM     21  O   UNL     1      -0.046  10.894  22.829  0.00  0.00    +0.000 OA
ATOM     22  C   UNL     1       0.285  11.045  21.520  0.00  0.00    +0.000 A 
ENDBRANCH   2  18
BRANCH  11  23
ATOM     23  C   UNL     1       5.855   4.547  17.443  0.00  0.00    +0.000 C 
BRANCH  23  24
ATOM     24  C   UNL     1       6.086   4.135  16.016  0.00  0.00    +0.000 C 
ATOM     25  C   UNL     1       5.560   4.926  14.842  0.00  0.00    +0.000 C 
ATOM     26  C   UNL     1       7.041   4.834  15.077  0.00  0.00    +0.000 C 
ENDBRANCH  23  24
ENDBRANCH  11  23
TORSDOF 3
ENDMDL
MODEL 2
REMARK VINA RESULT:      -7.3      0.862      1.390
REMARK  Name = 
REMARK  3 active torsions:
REMARK  status: ('A' for Active; 'I' for Inactive)
REMARK    1  A    between atoms: C_2  and  C_3
REMARK    2  A    between atoms: N_16  and  C_17
REMARK    3  A    between atoms: C_17  and  C_18
REMARK                            x       y       z     vdW  Elec       q    Type
REMARK                         _______ _______ _______ _____ _____    ______ ____
ROOT
ATOM      1  O   UNL     1      -0.592  10.059  18.770  0.00  0.00    +0.000 OA
ATOM      2  C   UNL     1       0.258   9.664  19.570  0.00  0.00    +0.000 C 
ATOM      3  N   UNL     1       1.372   8.935  19.141  0.00  0.00    +0.000 N 
ATOM      4  C   UNL     1       2.380   8.293  19.983  0.00  0.00    +0.000 C 
ATOM      5  C   UNL     1       2.362   6.779  19.804  0.00  0.00    +0.000 C 
ATOM      6  C   UNL     1       2.475   6.374  18.329  0.00  0.00    +0.000 C 
ATOM      7  C   UNL     1       1.446   7.124  17.469  0.00  0.00    +0.000 C 
ATOM      8  C   UNL     1       1.498   8.636  17.713  0.00  0.00    +0.000 C 
ATOM      9  C   UNL     1       3.916   6.633  17.809  0.00  0.00    +0.000 C 
ATOM     10  O   UNL     1       4.487   7.713  17.782  0.00  0.00    +0.000 OA
ATOM     11  N   UNL     1       4.453   5.412  17.407  0.00  0.00    +0.000 N 
ATOM     12  C   UNL     1       3.558   4.365  17.633  0.00  0.00    +0.000 A 
ATOM     13  C   UNL     1       3.739   3.014  17.411  0.00  0.00    +0.000 A 
ATOM     14  C   UNL     1       2.698   2.149  17.748  0.00  0.00    +0.000 A 
ATOM     15  C   UNL     1       1.505   2.644  18.297  0.00  0.00    +0.000 A 
ATOM     16  C   UNL     1       1.329   4.013  18.510  0.00  0.00    +0.000 A 
ATOM     17  C   UNL     1       2.370   4.871  18.173  0.00  0.00    +0.000 A 
ENDROOT
BRANCH   2  18
ATOM     18  C   UNL     1       0.039   9.898  20.991  0.00  0.00    +0.000 A 
ATOM     19  C   UNL     1      -0.339   8.905  21.948  0.00  0.00    +0.000 A 
ATOM     20  C   UNL     1      -0.402   9.531  23.168  0.00  0.00    +0.000 A 
ATOM     21  O   UNL     1      -0.164  10.858  23.027  0.00  0.00    +0.000 OA
ATOM     22  C   UNL     1       0.053  11.080  21.704  0.00  0.00    +0.000 A 
ENDBRANCH   2  18
BRANCH  11  23
ATOM     23  C   UNL     1       5.814   5.270  16.943  0.00  0.00    +0.000 C 
BRANCH  23  24
ATOM     24  C   UNL     1       6.832   4.995  18.015  0.00  0.00    +0.000 C 
ATOM     25  C   UNL     1       7.719   6.072  18.593  0.00  0.00    +0.000 C 
ATOM     26  C   UNL     1       6.678   5.419  19.457  0.00  0.00    +0.000 C 
ENDBRANCH  23  24
ENDBRANCH  11  23
TORSDOF 3
ENDMDL
MODEL 3
REMARK VINA RESULT:      -7.2      2.286      7.561
REMARK  Name = 
REMARK  3 active torsions:
REMARK  status: ('A' for Active; 'I' for Inactive)
REMARK    1  A    between atoms: C_2  and  C_3
REMARK    2  A    between atoms: N_16  and  C_17
REMARK    3  A    between atoms: C_17  and  C_18
REMARK                            x       y       z     vdW  Elec       q    Type
REMARK                         _______ _______ _______ _____ _____    ______ ____
ROOT
ATOM      1  O   UNL     1       8.251   4.772  16.096  0.00  0.00    +0.000 OA
ATOM      2  C   UNL     1       7.162   4.994  15.565  0.00  0.00    +0.000 C 
ATOM      3  N   UNL     1       6.129   5.626  16.267  0.00  0.00    +0.000 N 
ATOM      4  C   UNL     1       4.755   5.831  15.813  0.00  0.00    +0.000 C 
ATOM      5  C   UNL     1       3.768   5.075  16.694  0.00  0.00    +0.000 C 
ATOM      6  C   UNL     1       3.957   5.402  18.180  0.00  0.00    +0.000 C 
ATOM      7  C   UNL     1       5.427   5.243  18.599  0.00  0.00    +0.000 C 
ATOM      8  C   UNL     1       6.369   6.005  17.661  0.00  0.00    +0.000 C 
ATOM      9  C   UNL     1       3.454   6.841  18.483  0.00  0.00    +0.000 C 
ATOM     10  O   UNL     1       3.876   7.871  17.978  0.00  0.00    +0.000 OA
ATOM     11  N   UNL     1       2.417   6.747  19.408  0.00  0.00    +0.000 N 
ATOM     12  C   UNL     1       2.141   5.418  19.729  0.00  0.00    +0.000 A 
ATOM     13  C   UNL     1       1.163   4.918  20.566  0.00  0.00    +0.000 A 
ATOM     14  C   UNL     1       1.063   3.534  20.706  0.00  0.00    +0.000 A 
ATOM     15  C   UNL     1       1.935   2.680  20.012  0.00  0.00    +0.000 A 
ATOM     16  C   UNL     1       2.926   3.196  19.174  0.00  0.00    +0.000 A 
ATOM     17  C   UNL     1       3.021   4.576  19.038  0.00  0.00    +0.000 A 
ENDROOT
BRANCH   2  18
ATOM     18  C   UNL     1       6.936   4.509  14.210  0.00  0.00    +0.000 A 
ATOM     19  C   UNL     1       5.987   3.508  13.833  0.00  0.00    +0.000 A 
ATOM     20  C   UNL     1       6.069   3.375  12.469  0.00  0.00    +0.000 A 
ATOM     21  O   UNL     1       7.053   4.168  11.979  0.00  0.00    +0.000 OA
ATOM     22  C   UNL     1       7.604   4.813  13.040  0.00  0.00    +0.000 A 
ENDBRANCH   2  18
BRANCH  11  23
ATOM     23  C   UNL     1       1.660   7.895  19.854  0.00  0.00    +0.000 C 
BRANCH  23  24
ATOM     24  C   UNL     1       1.238   7.864  21.296  0.00  0.00    +0.000 C 
ATOM     25  C   UNL     1       1.226   9.096  22.169  0.00  0.00    +0.000 C 
ATOM     26  C   UNL     1      -0.068   8.424  21.808  0.00  0.00    +0.000 C 
ENDBRANCH  23  24
ENDBRANCH  11  23
TORSDOF 3
ENDMDL
MODEL 4
REMARK VINA RESULT:      -7.1      2.442      7.371
REMARK  Name = 
REMARK  3 active torsions:
REMARK  status: ('A' for Active; 'I' for Inactive)
REMARK    1  A    between atoms: C_2  and  C_3
REMARK    2  A    between atoms: N_16  and  C_17
REMARK    3  A    between atoms: C_17  and  C_18
REMARK                            x       y       z     vdW  Elec       q    Type
REMARK                         _______ _______ _______ _____ _____    ______ ____
ROOT
ATOM      1  O   UNL     1       8.065   5.785  16.001  0.00  0.00    +0.000 OA
ATOM      2  C   UNL     1       6.923   5.528  15.619  0.00  0.00    +0.000 C 
ATOM      3  N   UNL     1       5.810   5.827  16.411  0.00  0.00    +0.000 N 
ATOM      4  C   UNL     1       4.419   5.462  16.148  0.00  0.00    +0.000 C 
ATOM      5  C   UNL     1       3.887   4.519  17.221  0.00  0.00    +0.000 C 
ATOM      6  C   UNL     1       4.097   5.078  18.633  0.00  0.00    +0.000 C 
ATOM      7  C   UNL     1       5.555   5.516  18.844  0.00  0.00    +0.000 C 
ATOM      8  C   UNL     1       6.036   6.441  17.722  0.00  0.00    +0.000 C 
ATOM      9  C   UNL     1       3.126   6.263  18.892  0.00  0.00    +0.000 C 
ATOM     10  O   UNL     1       3.075   7.303  18.252  0.00  0.00    +0.000 OA
ATOM     11  N   UNL     1       2.305   5.919  19.963  0.00  0.00    +0.000 N 
ATOM     12  C   UNL     1       2.584   4.633  20.425  0.00  0.00    +0.000 A 
ATOM     13  C   UNL     1       1.960   3.924  21.432  0.00  0.00    +0.000 A 
ATOM     14  C   UNL     1       2.403   2.627  21.693  0.00  0.00    +0.000 A 
ATOM     15  C   UNL     1       3.452   2.065  20.948  0.00  0.00    +0.000 A 
ATOM     16  C   UNL     1       4.082   2.793  19.937  0.00  0.00    +0.000 A 
ATOM     17  C   UNL     1       3.636   4.085  19.680  0.00  0.00    +0.000 A 
ENDROOT
BRANCH   2  18
ATOM     18  C   UNL     1       6.753   4.826  14.353  0.00  0.00    +0.000 A 
ATOM     19  C   UNL     1       5.862   3.732  14.123  0.00  0.00    +0.000 A 
ATOM     20  C   UNL     1       5.982   3.392  12.798  0.00  0.00    +0.000 A 
ATOM     21  O   UNL     1       6.938   4.148  12.206  0.00  0.00    +0.000 OA
ATOM     22  C   UNL     1       7.433   4.978  13.161  0.00  0.00    +0.000 A 
ENDBRANCH   2  18
BRANCH  11  23
ATOM     23  C   UNL     1       1.225   6.762  20.424  0.00  0.00    +0.000 C 
BRANCH  23  24
ATOM     24  C   UNL     1       1.640   8.107  20.951  0.00  0.00    +0.000 C 
ATOM     25  C   UNL     1       0.908   9.381  20.604  0.00  0.00    +0.000 C 
ATOM     26  C   UNL     1       0.886   8.868  22.016  0.00  0.00    +0.000 C 
ENDBRANCH  23  24
ENDBRANCH  11  23
TORSDOF 3
ENDMDL
MODEL 5
REMARK VINA RESULT:      -7.1      2.333      7.386
REMARK  Name = 
REMARK  3 active torsions:
REMARK  status: ('A' for Active; 'I' for Inactive)
REMARK    1  A    between atoms: C_2  and  C_3
REMARK    2  A    between atoms: N_16  and  C_17
REMARK    3  A    between atoms: C_17  and  C_18
REMARK                            x       y       z     vdW  Elec       q    Type
REMARK                         _______ _______ _______ _____ _____    ______ ____
ROOT
ATOM      1  O   UNL     1       8.202   4.422  16.139  0.00  0.00    +0.000 OA
ATOM      2  C   UNL     1       7.140   4.772  15.623  0.00  0.00    +0.000 C 
ATOM      3  N   UNL     1       6.157   5.436  16.365  0.00  0.00    +0.000 N 
ATOM      4  C   UNL     1       4.809   5.788  15.924  0.00  0.00    +0.000 C 
ATOM      5  C   UNL     1       3.754   5.055  16.746  0.00  0.00    +0.000 C 
ATOM      6  C   UNL     1       3.958   5.258  18.252  0.00  0.00    +0.000 C 
ATOM      7  C   UNL     1       5.406   4.947  18.662  0.00  0.00    +0.000 C 
ATOM      8  C   UNL     1       6.416   5.692  17.784  0.00  0.00    +0.000 C 
ATOM      9  C   UNL     1       3.574   6.708  18.657  0.00  0.00    +0.000 C 
ATOM     10  O   UNL     1       4.085   7.733  18.229  0.00  0.00    +0.000 OA
ATOM     11  N   UNL     1       2.525   6.636  19.570  0.00  0.00    +0.000 N 
ATOM     12  C   UNL     1       2.136   5.315  19.794  0.00  0.00    +0.000 A 
ATOM     13  C   UNL     1       1.113   4.840  20.590  0.00  0.00    +0.000 A 
ATOM     14  C   UNL     1       0.897   3.462  20.629  0.00  0.00    +0.000 A 
ATOM     15  C   UNL     1       1.700   2.590  19.878  0.00  0.00    +0.000 A 
ATOM     16  C   UNL     1       2.738   3.080  19.082  0.00  0.00    +0.000 A 
ATOM     17  C   UNL     1       2.949   4.454  19.046  0.00  0.00    +0.000 A 
ENDROOT
BRANCH   2  18
ATOM     18  C   UNL     1       6.886   4.406  14.235  0.00  0.00    +0.000 A 
ATOM     19  C   UNL     1       5.874   3.501  13.787  0.00  0.00    +0.000 A 
ATOM     20  C   UNL     1       5.950   3.466  12.416  0.00  0.00    +0.000 A 
ATOM     21  O   UNL     1       6.985   4.227  11.985  0.00  0.00    +0.000 OA
ATOM     22  C   UNL     1       7.575   4.753  13.090  0.00  0.00    +0.000 A 
ENDBRANCH   2  18
BRANCH  11  23
ATOM     23  C   UNL     1       1.862   7.808  20.096  0.00  0.00    +0.000 C 
BRANCH  23  24
ATOM     24  C   UNL     1       1.078   8.606  19.094  0.00  0.00    +0.000 C 
ATOM     25  C   UNL     1       0.326   9.863  19.460  0.00  0.00    +0.000 C 
ATOM     26  C   UNL     1       1.516   9.945  18.548  0.00  0.00    +0.000 C 
ENDBRANCH  23  24
ENDBRANCH  11  23
TORSDOF 3
ENDMDL
MODEL 6
REMARK VINA RESULT:      -6.5      1.776      3.876
REMARK  Name = 
REMARK  3 active torsions:
REMARK  status: ('A' for Active; 'I' for Inactive)
REMARK    1  A    between atoms: C_2  and  C_3
REMARK    2  A    between atoms: N_16  and  C_17
REMARK    3  A    between atoms: C_17  and  C_18
REMARK                            x       y       z     vdW  Elec       q    Type
REMARK                         _______ _______ _______ _____ _____    ______ ____
ROOT
ATOM      1  O   UNL     1       1.362   9.795  21.390  0.00  0.00    +0.000 OA
ATOM      2  C   UNL     1       1.188   9.712  20.174  0.00  0.00    +0.000 C 
ATOM      3  N   UNL     1       1.390   8.506  19.493  0.00  0.00    +0.000 N 
ATOM      4  C   UNL     1       1.352   8.295  18.047  0.00  0.00    +0.000 C 
ATOM      5  C   UNL     1       2.714   7.859  17.521  0.00  0.00    +0.000 C 
ATOM      6  C   UNL     1       3.263   6.647  18.283  0.00  0.00    +0.000 C 
ATOM      7  C   UNL     1       3.219   6.882  19.801  0.00  0.00    +0.000 C 
ATOM      8  C   UNL     1       1.832   7.341  20.263  0.00  0.00    +0.000 C 
ATOM      9  C   UNL     1       2.467   5.367  17.903  0.00  0.00    +0.000 C 
ATOM     10  O   UNL     1       1.267   5.195  18.057  0.00  0.00    +0.000 OA
ATOM     11  N   UNL     1       3.358   4.462  17.330  0.00  0.00    +0.000 N 
ATOM     12  C   UNL     1       4.643   4.999  17.246  0.00  0.00    +0.000 A 
ATOM     13  C   UNL     1       5.779   4.433  16.702  0.00  0.00    +0.000 A 
ATOM     14  C   UNL     1       6.954   5.186  16.707  0.00  0.00    +0.000 A 
ATOM     15  C   UNL     1       6.972   6.481  17.249  0.00  0.00    +0.000 A 
ATOM     16  C   UNL     1       5.819   7.041  17.804  0.00  0.00    +0.000 A 
ATOM     17  C   UNL     1       4.651   6.286  17.796  0.00  0.00    +0.000 A 
ENDROOT
BRANCH   2  18
ATOM     18  C   UNL     1       0.846  10.921  19.435  0.00  0.00    +0.000 A 
ATOM     19  C   UNL     1      -0.479  11.353  19.117  0.00  0.00    +0.000 A 
ATOM     20  C   UNL     1      -0.359  12.548  18.451  0.00  0.00    +0.000 A 
ATOM     21  O   UNL     1       0.948  12.852  18.267  0.00  0.00    +0.000 OA
ATOM     22  C   UNL     1       1.670  11.842  18.819  0.00  0.00    +0.000 A 
ENDBRANCH   2  18
BRANCH  11  23
ATOM     23  C   UNL     1       2.940   3.191  16.785  0.00  0.00    +0.000 C 
BRANCH  23  24
ATOM     24  C   UNL     1       2.971   2.038  17.748  0.00  0.00    +0.000 C 
ATOM     25  C   UNL     1       3.515   2.161  19.152  0.00  0.00    +0.000 C 
ATOM     26  C   UNL     1       2.050   1.904  18.938  0.00  0.00    +0.000 C 
ENDBRANCH  23  24
ENDBRANCH  11  23
TORSDOF 3
ENDMDL
MODEL 7
REMARK VINA RESULT:      -6.4      3.141      8.156
REMARK  Name = 
REMARK  3 active torsions:
REMARK  status: ('A' for Active; 'I' for Inactive)
REMARK    1  A    between atoms: C_2  and  C_3
REMARK    2  A    between atoms: N_16  and  C_17
REMARK    3  A    between atoms: C_17  and  C_18
REMARK                            x       y       z     vdW  Elec       q    Type
REMARK                         _______ _______ _______ _____ _____    ______ ____
ROOT
ATOM      1  O   UNL     1       2.101   6.067  20.585  0.00  0.00    +0.000 OA
ATOM      2  C   UNL     1       2.378   6.843  19.670  0.00  0.00    +0.000 C 
ATOM      3  N   UNL     1       1.931   8.169  19.684  0.00  0.00    +0.000 N 
ATOM      4  C   UNL     1       2.068   9.155  18.613  0.00  0.00    +0.000 C 
ATOM      5  C   UNL     1       0.704   9.576  18.079  0.00  0.00    +0.000 C 
ATOM      6  C   UNL     1      -0.233  10.043  19.200  0.00  0.00    +0.000 C 
ATOM      7  C   UNL     1      -0.292   9.011  20.338  0.00  0.00    +0.000 C 
ATOM      8  C   UNL     1       1.108   8.611  20.813  0.00  0.00    +0.000 C 
ATOM      9  C   UNL     1       0.222  11.428  19.740  0.00  0.00    +0.000 C 
ATOM     10  O   UNL     1       1.306  11.682  20.243  0.00  0.00    +0.000 OA
ATOM     11  N   UNL     1      -0.813  12.334  19.522  0.00  0.00    +0.000 N 
ATOM     12  C   UNL     1      -1.887  11.731  18.867  0.00  0.00    +0.000 A 
ATOM     13  C   UNL     1      -3.068  12.304  18.439  0.00  0.00    +0.000 A 
ATOM     14  C   UNL     1      -3.988  11.494  17.773  0.00  0.00    +0.000 A 
ATOM     15  C   UNL     1      -3.713  10.137  17.546  0.00  0.00    +0.000 A 
ATOM     16  C   UNL     1      -2.519   9.565  17.989  0.00  0.00    +0.000 A 
ATOM     17  C   UNL     1      -1.605  10.377  18.652  0.00  0.00    +0.000 A 
ENDROOT
BRANCH   2  18
ATOM     18  C   UNL     1       3.113   6.331  18.520  0.00  0.00    +0.000 A 
ATOM     19  C   UNL     1       4.109   7.047  17.786  0.00  0.00    +0.000 A 
ATOM     20  C   UNL     1       4.574   6.196  16.813  0.00  0.00    +0.000 A 
ATOM     21  O   UNL     1       3.886   5.029  16.843  0.00  0.00    +0.000 OA
ATOM     22  C   UNL     1       2.973   5.135  17.844  0.00  0.00    +0.000 A 
ENDBRANCH   2  18
BRANCH  11  23
ATOM     23  C   UNL     1      -0.699  13.741  19.830  0.00  0.00    +0.000 C 
BRANCH  23  24
ATOM     24  C   UNL     1      -0.132  14.595  18.731  0.00  0.00    +0.000 C 
ATOM     25  C   UNL     1      -0.190  16.104  18.758  0.00  0.00    +0.000 C 
ATOM     26  C   UNL     1       1.137  15.406  18.858  0.00  0.00    +0.000 C 
ENDBRANCH  23  24
ENDBRANCH  11  23
TORSDOF 3
ENDMDL
MODEL 8
REMARK VINA RESULT:      -6.2      6.323      9.047
REMARK  Name = 
REMARK  3 active torsions:
REMARK  status: ('A' for Active; 'I' for Inactive)
REMARK    1  A    between atoms: C_2  and  C_3
REMARK    2  A    between atoms: N_16  and  C_17
REMARK    3  A    between atoms: C_17  and  C_18
REMARK                            x       y       z     vdW  Elec       q    Type
REMARK                         _______ _______ _______ _____ _____    ______ ____
ROOT
ATOM      1  O   UNL     1      -4.498  15.475  24.856  0.00  0.00    +0.000 OA
ATOM      2  C   UNL     1      -3.371  15.692  24.410  0.00  0.00    +0.000 C 
ATOM      3  N   UNL     1      -2.919  15.061  23.246  0.00  0.00    +0.000 N 
ATOM      4  C   UNL     1      -1.571  15.118  22.681  0.00  0.00    +0.000 C 
ATOM      5  C   UNL     1      -0.916  13.742  22.686  0.00  0.00    +0.000 C 
ATOM      6  C   UNL     1      -1.797  12.684  22.012  0.00  0.00    +0.000 C 
ATOM      7  C   UNL     1      -3.223  12.705  22.585  0.00  0.00    +0.000 C 
ATOM      8  C   UNL     1      -3.816  14.117  22.576  0.00  0.00    +0.000 C 
ATOM      9  C   UNL     1      -1.821  12.903  20.474  0.00  0.00    +0.000 C 
ATOM     10  O   UNL     1      -2.210  13.908  19.897  0.00  0.00    +0.000 OA
ATOM     11  N   UNL     1      -1.294  11.764  19.870  0.00  0.00    +0.000 N 
ATOM     12  C   UNL     1      -0.885  10.828  20.820  0.00  0.00    +0.000 A 
ATOM     13  C   UNL     1      -0.277   9.604  20.619  0.00  0.00    +0.000 A 
ATOM     14  C   UNL     1       0.070   8.852  21.741  0.00  0.00    +0.000 A 
ATOM     15  C   UNL     1      -0.194   9.331  23.034  0.00  0.00    +0.000 A 
ATOM     16  C   UNL     1      -0.816  10.566  23.226  0.00  0.00    +0.000 A 
ATOM     17  C   UNL     1      -1.159  11.313  22.105  0.00  0.00    +0.000 A 
ENDROOT
BRANCH   2  18
ATOM     18  C   UNL     1      -2.477  16.560  25.166  0.00  0.00    +0.000 A 
ATOM     19  C   UNL     1      -1.572  16.134  26.187  0.00  0.00    +0.000 A 
ATOM     20  C   UNL     1      -0.897  17.251  26.613  0.00  0.00    +0.000 A 
ATOM     21  O   UNL     1      -1.370  18.353  25.982  0.00  0.00    +0.000 OA
ATOM     22  C   UNL     1      -2.356  17.936  25.146  0.00  0.00    +0.000 A 
ENDBRANCH   2  18
BRANCH  11  23
ATOM     23  C   UNL     1      -1.092  11.657  18.443  0.00  0.00    +0.000 C 
BRANCH  23  24
ATOM     24  C   UNL     1      -2.269  11.139  17.665  0.00  0.00    +0.000 C 
ATOM     25  C   UNL     1      -2.132  10.119  16.560  0.00  0.00    +0.000 C 
ATOM     26  C   UNL     1      -2.849   9.754  17.829  0.00  0.00    +0.000 C 
ENDBRANCH  23  24
ENDBRANCH  11  23
TORSDOF 3
ENDMDL
MODEL 9
REMARK VINA RESULT:      -6.2      2.653      8.303
REMARK  Name = 
REMARK  3 active torsions:
REMARK  status: ('A' for Active; 'I' for Inactive)
REMARK    1  A    between atoms: C_2  and  C_3
REMARK    2  A    between atoms: N_16  and  C_17
REMARK    3  A    between atoms: C_17  and  C_18
REMARK                            x       y       z     vdW  Elec       q    Type
REMARK                         _______ _______ _______ _____ _____    ______ ____
ROOT
ATOM      1  O   UNL     1       1.625   5.494  21.039  0.00  0.00    +0.000 OA
ATOM      2  C   UNL     1       2.124   6.341  20.297  0.00  0.00    +0.000 C 
ATOM      3  N   UNL     1       1.774   7.691  20.400  0.00  0.00    +0.000 N 
ATOM      4  C   UNL     1       2.180   8.776  19.508  0.00  0.00    +0.000 C 
ATOM      5  C   UNL     1       0.976   9.377  18.792  0.00  0.00    +0.000 C 
ATOM      6  C   UNL     1      -0.125   9.797  19.773  0.00  0.00    +0.000 C 
ATOM      7  C   UNL     1      -0.472   8.652  20.738  0.00  0.00    +0.000 C 
ATOM      8  C   UNL     1       0.780   8.075  21.406  0.00  0.00    +0.000 C 
ATOM      9  C   UNL     1       0.309  11.064  20.559  0.00  0.00    +0.000 C 
ATOM     10  O   UNL     1       1.291  11.161  21.281  0.00  0.00    +0.000 OA
ATOM     11  N   UNL     1      -0.601  12.079  20.274  0.00  0.00    +0.000 N 
ATOM     12  C   UNL     1      -1.567  11.654  19.362  0.00  0.00    +0.000 A 
ATOM     13  C   UNL     1      -2.602  12.377  18.803  0.00  0.00    +0.000 A 
ATOM     14  C   UNL     1      -3.428  11.734  17.881  0.00  0.00    +0.000 A 
ATOM     15  C   UNL     1      -3.207  10.391  17.535  0.00  0.00    +0.000 A 
ATOM     16  C   UNL     1      -2.162   9.667  18.113  0.00  0.00    +0.000 A 
ATOM     17  C   UNL     1      -1.341  10.313  19.030  0.00  0.00    +0.000 A 
ENDROOT
BRANCH   2  18
ATOM     18  C   UNL     1       3.031   5.898  19.246  0.00  0.00    +0.000 A 
ATOM     19  C   UNL     1       2.650   5.549  17.913  0.00  0.00    +0.000 A 
ATOM     20  C   UNL     1       3.803   5.226  17.241  0.00  0.00    +0.000 A 
ATOM     21  O   UNL     1       4.865   5.279  18.081  0.00  0.00    +0.000 OA
ATOM     22  C   UNL     1       4.386   5.638  19.300  0.00  0.00    +0.000 A 
ENDBRANCH   2  18
BRANCH  11  23
ATOM     23  C   UNL     1      -0.453  13.426  20.776  0.00  0.00    +0.000 C 
BRANCH  23  24
ATOM     24  C   UNL     1      -1.421  13.818  21.857  0.00  0.00    +0.000 C 
ATOM     25  C   UNL     1      -1.843  12.872  22.956  0.00  0.00    +0.000 C 
ATOM     26  C   UNL     1      -1.026  14.087  23.291  0.00  0.00    +0.000 C 
ENDBRANCH  23  24
ENDBRANCH  11  23
TORSDOF 3
ENDMDL
