MODEL 1
REMARK VINA RESULT:      -6.4      0.000      0.000
REMARK  Name = 
REMARK  12 active torsions:
REMARK  status: ('A' for Active; 'I' for Inactive)
REMARK    1  A    between atoms: C_1  and  O_2
REMARK    2  A    between atoms: O_2  and  C_3
REMARK    3  A    between atoms: C_5  and  C_6
REMARK    4  A    between atoms: C_8  and  C_9
REMARK    5  A    between atoms: C_9  and  N_10
REMARK    6  A    between atoms: N_10  and  C_11
REMARK    7  A    between atoms: N_10  and  C_14
REMARK    8  A    between atoms: C_11  and  C_12
REMARK    9  A    between atoms: C_12  and  O_13
REMARK   10  A    between atoms: C_14  and  C_15
REMARK   11  A    between atoms: C_15  and  O_16
REMARK   12  A    between atoms: C_17  and  C_18
REMARK                            x       y       z     vdW  Elec       q    Type
REMARK                         _______ _______ _______ _____ _____    ______ ____
ROOT
ATOM      1  C   UNL     1       2.900   6.232  19.223  0.00  0.00    +0.000 A 
ATOM      2  N   UNL     1       3.908   5.999  18.406  0.00  0.00    +0.000 NA
ATOM      3  C   UNL     1       4.251   4.683  18.648  0.00  0.00    +0.000 A 
ATOM      4  C   UNL     1       3.417   4.166  19.618  0.00  0.00    +0.000 A 
ATOM      5  C   UNL     1       3.254   2.873  20.302  0.00  0.00    +0.000 C 
ATOM      6  O   UNL     1       2.553   5.154  19.993  0.00  0.00    +0.000 OA
ENDROOT
BRANCH   1   9
ATOM      7  C   UNL     1       0.600   8.769  20.805  0.00  0.00    +0.000 A 
ATOM      8  C   UNL     1       1.345   7.605  20.578  0.00  0.00    +0.000 A 
ATOM      9  C   UNL     1       2.125   7.450  19.421  0.00  0.00    +0.000 A 
ATOM     10  C   UNL     1       2.138   8.486  18.475  0.00  0.00    +0.000 A 
ATOM     11  C   UNL     1       1.401   9.649  18.690  0.00  0.00    +0.000 A 
ATOM     12  C   UNL     1       0.643   9.789  19.849  0.00  0.00    +0.000 A 
ATOM     13  F   UNL     1      -0.038  10.932  20.005  0.00  0.00    +0.000 F 
BRANCH   7  15
ATOM     14  C   UNL     1       0.416   9.567  23.039  0.00  0.00    +0.000 C 
ATOM     15  O   UNL     1      -0.102   8.772  21.979  0.00  0.00    +0.000 OA
ENDBRANCH   7  15
ENDBRANCH   1   9
BRANCH   3  16
ATOM     16  C   UNL     1       5.411   4.076  17.928  0.00  0.00    +0.000 C 
BRANCH  16  17
ATOM     17  N   UNL     1       6.398   5.064  17.419  0.00  0.00    +0.000 NA
BRANCH  17  18
ATOM     18  C   UNL     1       7.679   4.930  18.174  0.00  0.00    +0.000 C 
BRANCH  18  19
ATOM     19  C   UNL     1       7.941   6.004  19.248  0.00  0.00    +0.000 C 
BRANCH  19  20
ATOM     20  O   UNL     1       8.024   5.382  20.530  0.00  0.00    +0.000 OA
ATOM     21  H   UNL     1       7.554   4.533  20.468  0.00  0.00    +0.000 HD
ENDBRANCH  19  20
ENDBRANCH  18  19
ENDBRANCH  17  18
BRANCH  17  22
ATOM     22  C   UNL     1       6.652   4.795  15.972  0.00  0.00    +0.000 C 
BRANCH  22  23
ATOM     23  C   UNL     1       5.614   5.375  14.993  0.00  0.00    +0.000 C 
BRANCH  23  24
ATOM     24  O   UNL     1       5.147   6.645  15.432  0.00  0.00    +0.000 OA
ATOM     25  H   UNL     1       4.925   6.539  16.377  0.00  0.00    +0.000 HD
ENDBRANCH  23  24
ENDBRANCH  22  23
ENDBRANCH  17  22
ENDBRANCH  16  17
ENDBRANCH   3  16
TORSDOF 10
ENDMDL
MODEL 2
REMARK VINA RESULT:      -6.4      4.306      8.177
REMARK  Name = 
REMARK  12 active torsions:
REMARK  status: ('A' for Active; 'I' for Inactive)
REMARK    1  A    between atoms: C_1  and  O_2
REMARK    2  A    between atoms: O_2  and  C_3
REMARK    3  A    between atoms: C_5  and  C_6
REMARK    4  A    between atoms: C_8  and  C_9
REMARK    5  A    between atoms: C_9  and  N_10
REMARK    6  A    between atoms: N_10  and  C_11
REMARK    7  A    between atoms: N_10  and  C_14
REMARK    8  A    between atoms: C_11  and  C_12
REMARK    9  A    between atoms: C_12  and  O_13
REMARK   10  A    between atoms: C_14  and  C_15
REMARK   11  A    between atoms: C_15  and  O_16
REMARK   12  A    between atoms: C_17  and  C_18
REMARK                            x       y       z     vdW  Elec       q    Type
REMARK                         _______ _______ _______ _____ _____    ______ ____
ROOT
ATOM      1  C   UNL     1       6.459   4.571  16.135  0.00  0.00    +0.000 A 
ATOM      2  N   UNL     1       5.456   4.052  16.816  0.00  0.00    +0.000 NA
ATOM      3  C   UNL     1       5.729   4.373  18.132  0.00  0.00    +0.000 A 
ATOM      4  C   UNL     1       6.907   5.089  18.191  0.00  0.00    +0.000 A 
ATOM      5  C   UNL     1       7.722   5.711  19.246  0.00  0.00    +0.000 C 
ATOM      6  O   UNL     1       7.380   5.216  16.916  0.00  0.00    +0.000 OA
ENDROOT
BRANCH   1   9
ATOM      7  C   UNL     1       6.205   3.663  12.483  0.00  0.00    +0.000 A 
ATOM      8  C   UNL     1       5.989   3.694  13.866  0.00  0.00    +0.000 A 
ATOM      9  C   UNL     1       6.720   4.553  14.702  0.00  0.00    +0.000 A 
ATOM     10  C   UNL     1       7.694   5.382  14.126  0.00  0.00    +0.000 A 
ATOM     11  C   UNL     1       7.918   5.360  12.750  0.00  0.00    +0.000 A 
ATOM     12  C   UNL     1       7.174   4.511  11.937  0.00  0.00    +0.000 A 
ATOM     13  F   UNL     1       7.428   4.539  10.622  0.00  0.00    +0.000 F 
BRANCH   7  15
ATOM     14  C   UNL     1       6.016   1.566  11.374  0.00  0.00    +0.000 C 
ATOM     15  O   UNL     1       5.410   2.779  11.806  0.00  0.00    +0.000 OA
ENDBRANCH   7  15
ENDBRANCH   1   9
BRANCH   3  16
ATOM     16  C   UNL     1       4.821   3.891  19.215  0.00  0.00    +0.000 C 
BRANCH  16  17
ATOM     17  N   UNL     1       3.421   4.381  19.100  0.00  0.00    +0.000 NA
BRANCH  17  18
ATOM     18  C   UNL     1       2.659   3.510  18.159  0.00  0.00    +0.000 C 
BRANCH  18  19
ATOM     19  C   UNL     1       2.914   1.996  18.288  0.00  0.00    +0.000 C 
BRANCH  19  20
ATOM     20  O   UNL     1       1.737   1.358  18.784  0.00  0.00    +0.000 OA
ATOM     21  H   UNL     1       1.243   1.030  18.013  0.00  0.00    +0.000 HD
ENDBRANCH  19  20
ENDBRANCH  18  19
ENDBRANCH  17  18
BRANCH  17  22
ATOM     22  C   UNL     1       2.778   4.329  20.447  0.00  0.00    +0.000 C 
BRANCH  22  23
ATOM     23  C   UNL     1       1.238   4.371  20.454  0.00  0.00    +0.000 C 
BRANCH  23  24
ATOM     24  O   UNL     1       0.692   3.135  20.896  0.00  0.00    +0.000 OA
ATOM     25  H   UNL     1       0.678   3.179  21.871  0.00  0.00    +0.000 HD
ENDBRANCH  23  24
ENDBRANCH  22  23
ENDBRANCH  17  22
ENDBRANCH  16  17
ENDBRANCH   3  16
TORSDOF 10
ENDMDL
MODEL 3
REMARK VINA RESULT:      -6.3      4.523      7.972
REMARK  Name = 
REMARK  12 active torsions:
REMARK  status: ('A' for Active; 'I' for Inactive)
REMARK    1  A    between atoms: C_1  and  O_2
REMARK    2  A    between atoms: O_2  and  C_3
REMARK    3  A    between atoms: C_5  and  C_6
REMARK    4  A    between atoms: C_8  and  C_9
REMARK    5  A    between atoms: C_9  and  N_10
REMARK    6  A    between atoms: N_10  and  C_11
REMARK    7  A    between atoms: N_10  and  C_14
REMARK    8  A    between atoms: C_11  and  C_12
REMARK    9  A    between atoms: C_12  and  O_13
REMARK   10  A    between atoms: C_14  and  C_15
REMARK   11  A    between atoms: C_15  and  O_16
REMARK   12  A    between atoms: C_17  and  C_18
REMARK                            x       y       z     vdW  Elec       q    Type
REMARK                         _______ _______ _______ _____ _____    ______ ____
ROOT
ATOM      1  C   UNL     1       5.912   4.523  16.202  0.00  0.00    +0.000 A 
ATOM      2  N   UNL     1       4.773   4.139  16.744  0.00  0.00    +0.000 NA
ATOM      3  C   UNL     1       4.921   4.411  18.090  0.00  0.00    +0.000 A 
ATOM      4  C   UNL     1       6.167   4.962  18.308  0.00  0.00    +0.000 A 
ATOM      5  C   UNL     1       6.921   5.461  19.470  0.00  0.00    +0.000 C 
ATOM      6  O   UNL     1       6.808   5.032  17.104  0.00  0.00    +0.000 OA
ENDROOT
BRANCH   1   9
ATOM      7  C   UNL     1       6.047   3.609  12.545  0.00  0.00    +0.000 A 
ATOM      8  C   UNL     1       5.666   3.662  13.892  0.00  0.00    +0.000 A 
ATOM      9  C   UNL     1       6.344   4.478  14.811  0.00  0.00    +0.000 A 
ATOM     10  C   UNL     1       7.432   5.240  14.360  0.00  0.00    +0.000 A 
ATOM     11  C   UNL     1       7.819   5.195  13.021  0.00  0.00    +0.000 A 
ATOM     12  C   UNL     1       7.127   4.390  12.122  0.00  0.00    +0.000 A 
ATOM     13  F   UNL     1       7.540   4.393  10.848  0.00  0.00    +0.000 F 
BRANCH   7  15
ATOM     14  C   UNL     1       5.885   1.552  11.360  0.00  0.00    +0.000 C 
ATOM     15  O   UNL     1       5.285   2.773  11.775  0.00  0.00    +0.000 OA
ENDBRANCH   7  15
ENDBRANCH   1   9
BRANCH   3  16
ATOM     16  C   UNL     1       3.830   4.050  19.043  0.00  0.00    +0.000 C 
BRANCH  16  17
ATOM     17  N   UNL     1       3.980   2.707  19.664  0.00  0.00    +0.000 NA
BRANCH  17  18
ATOM     18  C   UNL     1       3.272   2.678  20.976  0.00  0.00    +0.000 C 
BRANCH  18  19
ATOM     19  C   UNL     1       2.191   3.757  21.181  0.00  0.00    +0.000 C 
BRANCH  19  20
ATOM     20  O   UNL     1       0.898   3.161  21.070  0.00  0.00    +0.000 OA
ATOM     21  H   UNL     1       0.288   3.854  20.768  0.00  0.00    +0.000 HD
ENDBRANCH  19  20
ENDBRANCH  18  19
ENDBRANCH  17  18
BRANCH  17  22
ATOM     22  C   UNL     1       3.378   1.684  18.758  0.00  0.00    +0.000 C 
BRANCH  22  23
ATOM     23  C   UNL     1       2.160   2.152  17.939  0.00  0.00    +0.000 C 
BRANCH  23  24
ATOM     24  O   UNL     1       0.943   1.722  18.537  0.00  0.00    +0.000 OA
ATOM     25  H   UNL     1       0.795   2.312  19.301  0.00  0.00    +0.000 HD
ENDBRANCH  23  24
ENDBRANCH  22  23
ENDBRANCH  17  22
ENDBRANCH  16  17
ENDBRANCH   3  16
TORSDOF 10
ENDMDL
MODEL 4
REMARK VINA RESULT:      -6.3      4.214      7.883
REMARK  Name = 
REMARK  12 active torsions:
REMARK  status: ('A' for Active; 'I' for Inactive)
REMARK    1  A    between atoms: C_1  and  O_2
REMARK    2  A    between atoms: O_2  and  C_3
REMARK    3  A    between atoms: C_5  and  C_6
REMARK    4  A    between atoms: C_8  and  C_9
REMARK    5  A    between atoms: C_9  and  N_10
REMARK    6  A    between atoms: N_10  and  C_11
REMARK    7  A    between atoms: N_10  and  C_14
REMARK    8  A    between atoms: C_11  and  C_12
REMARK    9  A    between atoms: C_12  and  O_13
REMARK   10  A    between atoms: C_14  and  C_15
REMARK   11  A    between atoms: C_15  and  O_16
REMARK   12  A    between atoms: C_17  and  C_18
REMARK                            x       y       z     vdW  Elec       q    Type
REMARK                         _______ _______ _______ _____ _____    ______ ____
ROOT
ATOM      1  C   UNL     1       5.389   5.118  16.008  0.00  0.00    +0.000 A 
ATOM      2  N   UNL     1       5.353   4.440  17.138  0.00  0.00    +0.000 NA
ATOM      3  C   UNL     1       4.642   5.248  18.004  0.00  0.00    +0.000 A 
ATOM      4  C   UNL     1       4.268   6.401  17.346  0.00  0.00    +0.000 A 
ATOM      5  C   UNL     1       3.517   7.622  17.683  0.00  0.00    +0.000 C 
ATOM      6  O   UNL     1       4.747   6.326  16.070  0.00  0.00    +0.000 OA
ENDROOT
BRANCH   1   9
ATOM      7  C   UNL     1       5.922   3.540  12.624  0.00  0.00    +0.000 A 
ATOM      8  C   UNL     1       5.363   3.880  13.862  0.00  0.00    +0.000 A 
ATOM      9  C   UNL     1       6.006   4.773  14.734  0.00  0.00    +0.000 A 
ATOM     10  C   UNL     1       7.240   5.319  14.349  0.00  0.00    +0.000 A 
ATOM     11  C   UNL     1       7.805   4.988  13.118  0.00  0.00    +0.000 A 
ATOM     12  C   UNL     1       7.147   4.110  12.262  0.00  0.00    +0.000 A 
ATOM     13  F   UNL     1       7.734   3.835  11.090  0.00  0.00    +0.000 F 
BRANCH   7  15
ATOM     14  C   UNL     1       4.043   3.195  11.207  0.00  0.00    +0.000 C 
ATOM     15  O   UNL     1       5.173   2.663  11.887  0.00  0.00    +0.000 OA
ENDBRANCH   7  15
ENDBRANCH   1   9
BRANCH   3  16
ATOM     16  C   UNL     1       4.444   4.821  19.421  0.00  0.00    +0.000 C 
BRANCH  16  17
ATOM     17  N   UNL     1       3.375   3.804  19.610  0.00  0.00    +0.000 NA
BRANCH  17  18
ATOM     18  C   UNL     1       3.990   2.476  19.901  0.00  0.00    +0.000 C 
BRANCH  18  19
ATOM     19  C   UNL     1       3.681   1.356  18.889  0.00  0.00    +0.000 C 
BRANCH  19  20
ATOM     20  O   UNL     1       4.202   1.715  17.609  0.00  0.00    +0.000 OA
ATOM     21  H   UNL     1       5.083   1.311  17.535  0.00  0.00    +0.000 HD
ENDBRANCH  19  20
ENDBRANCH  18  19
ENDBRANCH  17  18
BRANCH  17  22
ATOM     22  C   UNL     1       2.517   4.211  20.762  0.00  0.00    +0.000 C 
BRANCH  22  23
ATOM     23  C   UNL     1       1.015   4.358  20.457  0.00  0.00    +0.000 C 
BRANCH  23  24
ATOM     24  O   UNL     1       0.376   3.089  20.394  0.00  0.00    +0.000 OA
ATOM     25  H   UNL     1       0.632   2.617  21.209  0.00  0.00    +0.000 HD
ENDBRANCH  23  24
ENDBRANCH  22  23
ENDBRANCH  17  22
ENDBRANCH  16  17
ENDBRANCH   3  16
TORSDOF 10
ENDMDL
MODEL 5
REMARK VINA RESULT:      -6.3      3.003      6.997
REMARK  Name = 
REMARK  12 active torsions:
REMARK  status: ('A' for Active; 'I' for Inactive)
REMARK    1  A    between atoms: C_1  and  O_2
REMARK    2  A    between atoms: O_2  and  C_3
REMARK    3  A    between atoms: C_5  and  C_6
REMARK    4  A    between atoms: C_8  and  C_9
REMARK    5  A    between atoms: C_9  and  N_10
REMARK    6  A    between atoms: N_10  and  C_11
REMARK    7  A    between atoms: N_10  and  C_14
REMARK    8  A    between atoms: C_11  and  C_12
REMARK    9  A    between atoms: C_12  and  O_13
REMARK   10  A    between atoms: C_14  and  C_15
REMARK   11  A    between atoms: C_15  and  O_16
REMARK   12  A    between atoms: C_17  and  C_18
REMARK                            x       y       z     vdW  Elec       q    Type
REMARK                         _______ _______ _______ _____ _____    ______ ____
ROOT
ATOM      1  C   UNL     1       3.549   5.431  18.563  0.00  0.00    +0.000 A 
ATOM      2  N   UNL     1       3.064   6.518  19.131  0.00  0.00    +0.000 NA
ATOM      3  C   UNL     1       2.101   6.052  20.004  0.00  0.00    +0.000 A 
ATOM      4  C   UNL     1       2.045   4.676  19.928  0.00  0.00    +0.000 A 
ATOM      5  C   UNL     1       1.268   3.605  20.573  0.00  0.00    +0.000 C 
ATOM      6  O   UNL     1       2.967   4.273  19.005  0.00  0.00    +0.000 OA
ENDROOT
BRANCH   1   9
ATOM      7  C   UNL     1       6.752   5.995  16.653  0.00  0.00    +0.000 A 
ATOM      8  C   UNL     1       5.727   6.113  17.600  0.00  0.00    +0.000 A 
ATOM      9  C   UNL     1       4.590   5.293  17.553  0.00  0.00    +0.000 A 
ATOM     10  C   UNL     1       4.484   4.347  16.522  0.00  0.00    +0.000 A 
ATOM     11  C   UNL     1       5.499   4.220  15.574  0.00  0.00    +0.000 A 
ATOM     12  C   UNL     1       6.625   5.034  15.645  0.00  0.00    +0.000 A 
ATOM     13  F   UNL     1       7.570   4.862  14.711  0.00  0.00    +0.000 F 
BRANCH   7  15
ATOM     14  C   UNL     1       7.513   8.075  17.523  0.00  0.00    +0.000 C 
ATOM     15  O   UNL     1       7.796   6.860  16.838  0.00  0.00    +0.000 OA
ENDBRANCH   7  15
ENDBRANCH   1   9
BRANCH   3  16
ATOM     16  C   UNL     1       1.287   7.023  20.795  0.00  0.00    +0.000 C 
BRANCH  16  17
ATOM     17  N   UNL     1       1.671   8.446  20.597  0.00  0.00    +0.000 NA
BRANCH  17  18
ATOM     18  C   UNL     1       0.741   9.086  19.621  0.00  0.00    +0.000 C 
BRANCH  18  19
ATOM     19  C   UNL     1       1.405   9.807  18.432  0.00  0.00    +0.000 C 
BRANCH  19  20
ATOM     20  O   UNL     1       2.315   8.917  17.786  0.00  0.00    +0.000 OA
ATOM     21  H   UNL     1       1.889   8.619  16.964  0.00  0.00    +0.000 HD
ENDBRANCH  19  20
ENDBRANCH  18  19
ENDBRANCH  17  18
BRANCH  17  22
ATOM     22  C   UNL     1       1.578   9.160  21.905  0.00  0.00    +0.000 C 
BRANCH  22  23
ATOM     23  C   UNL     1       0.156   9.333  22.471  0.00  0.00    +0.000 C 
BRANCH  23  24
ATOM     24  O   UNL     1       0.189   9.890  23.780  0.00  0.00    +0.000 OA
ATOM     25  H   UNL     1      -0.626   9.585  24.223  0.00  0.00    +0.000 HD
ENDBRANCH  23  24
ENDBRANCH  22  23
ENDBRANCH  17  22
ENDBRANCH  16  17
ENDBRANCH   3  16
TORSDOF 10
ENDMDL
MODEL 6
REMARK VINA RESULT:      -6.2      3.743      7.981
REMARK  Name = 
REMARK  12 active torsions:
REMARK  status: ('A' for Active; 'I' for Inactive)
REMARK    1  A    between atoms: C_1  and  O_2
REMARK    2  A    between atoms: O_2  and  C_3
REMARK    3  A    between atoms: C_5  and  C_6
REMARK    4  A    between atoms: C_8  and  C_9
REMARK    5  A    between atoms: C_9  and  N_10
REMARK    6  A    between atoms: N_10  and  C_11
REMARK    7  A    between atoms: N_10  and  C_14
REMARK    8  A    between atoms: C_11  and  C_12
REMARK    9  A    between atoms: C_12  and  O_13
REMARK   10  A    between atoms: C_14  and  C_15
REMARK   11  A    between atoms: C_15  and  O_16
REMARK   12  A    between atoms: C_17  and  C_18
REMARK                            x       y       z     vdW  Elec       q    Type
REMARK                         _______ _______ _______ _____ _____    ______ ____
ROOT
ATOM      1  C   UNL     1       6.469   4.720  16.172  0.00  0.00    +0.000 A 
ATOM      2  N   UNL     1       5.390   4.382  16.850  0.00  0.00    +0.000 NA
ATOM      3  C   UNL     1       5.699   4.681  18.163  0.00  0.00    +0.000 A 
ATOM      4  C   UNL     1       6.976   5.201  18.222  0.00  0.00    +0.000 A 
ATOM      5  C   UNL     1       7.871   5.705  19.276  0.00  0.00    +0.000 C 
ATOM      6  O   UNL     1       7.475   5.224  16.952  0.00  0.00    +0.000 OA
ENDROOT
BRANCH   1   9
ATOM      7  C   UNL     1       6.226   3.639  12.566  0.00  0.00    +0.000 A 
ATOM      8  C   UNL     1       6.003   3.738  13.945  0.00  0.00    +0.000 A 
ATOM      9  C   UNL     1       6.737   4.630  14.742  0.00  0.00    +0.000 A 
ATOM     10  C   UNL     1       7.720   5.424  14.133  0.00  0.00    +0.000 A 
ATOM     11  C   UNL     1       7.950   5.335  12.760  0.00  0.00    +0.000 A 
ATOM     12  C   UNL     1       7.203   4.452  11.985  0.00  0.00    +0.000 A 
ATOM     13  F   UNL     1       7.463   4.415  10.671  0.00  0.00    +0.000 F 
BRANCH   7  15
ATOM     14  C   UNL     1       4.226   3.221  11.347  0.00  0.00    +0.000 C 
ATOM     15  O   UNL     1       5.427   2.729  11.928  0.00  0.00    +0.000 OA
ENDBRANCH   7  15
ENDBRANCH   1   9
BRANCH   3  16
ATOM     16  C   UNL     1       4.715   4.374  19.243  0.00  0.00    +0.000 C 
BRANCH  16  17
ATOM     17  N   UNL     1       3.392   3.907  18.750  0.00  0.00    +0.000 NA
BRANCH  17  18
ATOM     18  C   UNL     1       3.104   2.548  19.294  0.00  0.00    +0.000 C 
BRANCH  18  19
ATOM     19  C   UNL     1       1.618   2.227  19.548  0.00  0.00    +0.000 C 
BRANCH  19  20
ATOM     20  O   UNL     1       1.007   1.810  18.328  0.00  0.00    +0.000 OA
ATOM     21  H   UNL     1       1.468   2.269  17.605  0.00  0.00    +0.000 HD
ENDBRANCH  19  20
ENDBRANCH  18  19
ENDBRANCH  17  18
BRANCH  17  22
ATOM     22  C   UNL     1       2.339   4.857  19.217  0.00  0.00    +0.000 C 
BRANCH  22  23
ATOM     23  C   UNL     1       2.828   6.270  19.582  0.00  0.00    +0.000 C 
BRANCH  23  24
ATOM     24  O   UNL     1       2.067   6.818  20.651  0.00  0.00    +0.000 OA
ATOM     25  H   UNL     1       1.944   6.093  21.294  0.00  0.00    +0.000 HD
ENDBRANCH  23  24
ENDBRANCH  22  23
ENDBRANCH  17  22
ENDBRANCH  16  17
ENDBRANCH   3  16
TORSDOF 10
ENDMDL
MODEL 7
REMARK VINA RESULT:      -6.2      1.451      1.649
REMARK  Name = 
REMARK  12 active torsions:
REMARK  status: ('A' for Active; 'I' for Inactive)
REMARK    1  A    between atoms: C_1  and  O_2
REMARK    2  A    between atoms: O_2  and  C_3
REMARK    3  A    between atoms: C_5  and  C_6
REMARK    4  A    between atoms: C_8  and  C_9
REMARK    5  A    between atoms: C_9  and  N_10
REMARK    6  A    between atoms: N_10  and  C_11
REMARK    7  A    between atoms: N_10  and  C_14
REMARK    8  A    between atoms: C_11  and  C_12
REMARK    9  A    between atoms: C_12  and  O_13
REMARK   10  A    between atoms: C_14  and  C_15
REMARK   11  A    between atoms: C_15  and  O_16
REMARK   12  A    between atoms: C_17  and  C_18
REMARK                            x       y       z     vdW  Elec       q    Type
REMARK                         _______ _______ _______ _____ _____    ______ ____
ROOT
ATOM      1  C   UNL     1       2.036   7.161  19.991  0.00  0.00    +0.000 A 
ATOM      2  N   UNL     1       2.937   6.756  19.117  0.00  0.00    +0.000 NA
ATOM      3  C   UNL     1       3.148   5.427  19.429  0.00  0.00    +0.000 A 
ATOM      4  C   UNL     1       2.347   5.077  20.497  0.00  0.00    +0.000 A 
ATOM      5  C   UNL     1       2.097   3.860  21.286  0.00  0.00    +0.000 C 
ATOM      6  O   UNL     1       1.637   6.184  20.864  0.00  0.00    +0.000 OA
ENDROOT
BRANCH   1   9
ATOM      7  C   UNL     1       0.442  10.163  21.627  0.00  0.00    +0.000 A 
ATOM      8  C   UNL     1       1.020   8.902  21.432  0.00  0.00    +0.000 A 
ATOM      9  C   UNL     1       1.424   8.473  20.158  0.00  0.00    +0.000 A 
ATOM     10  C   UNL     1       1.226   9.330  19.064  0.00  0.00    +0.000 A 
ATOM     11  C   UNL     1       0.653  10.587  19.248  0.00  0.00    +0.000 A 
ATOM     12  C   UNL     1       0.270  11.000  20.520  0.00  0.00    +0.000 A 
ATOM     13  F   UNL     1      -0.268  12.221  20.636  0.00  0.00    +0.000 F 
BRANCH   7  15
ATOM     14  C   UNL     1      -1.242  10.800  23.181  0.00  0.00    +0.000 C 
ATOM     15  O   UNL     1       0.109  10.437  22.926  0.00  0.00    +0.000 OA
ENDBRANCH   7  15
ENDBRANCH   1   9
BRANCH   3  16
ATOM     16  C   UNL     1       4.165   4.640  18.669  0.00  0.00    +0.000 C 
BRANCH  16  17
ATOM     17  N   UNL     1       5.329   5.438  18.202  0.00  0.00    +0.000 NA
BRANCH  17  18
ATOM     18  C   UNL     1       6.589   4.863  18.757  0.00  0.00    +0.000 C 
BRANCH  18  19
ATOM     19  C   UNL     1       7.623   5.882  19.274  0.00  0.00    +0.000 C 
BRANCH  19  20
ATOM     20  O   UNL     1       8.075   5.485  20.568  0.00  0.00    +0.000 OA
ATOM     21  H   UNL     1       8.949   5.075  20.453  0.00  0.00    +0.000 HD
ENDBRANCH  19  20
ENDBRANCH  18  19
ENDBRANCH  17  18
BRANCH  17  22
ATOM     22  C   UNL     1       5.383   5.389  16.710  0.00  0.00    +0.000 C 
BRANCH  22  23
ATOM     23  C   UNL     1       6.421   4.421  16.111  0.00  0.00    +0.000 C 
BRANCH  23  24
ATOM     24  O   UNL     1       5.847   3.145  15.857  0.00  0.00    +0.000 OA
ATOM     25  H   UNL     1       6.535   2.490  16.082  0.00  0.00    +0.000 HD
ENDBRANCH  23  24
ENDBRANCH  22  23
ENDBRANCH  17  22
ENDBRANCH  16  17
ENDBRANCH   3  16
TORSDOF 10
ENDMDL
MODEL 8
REMARK VINA RESULT:      -6.2      3.889      7.590
REMARK  Name = 
REMARK  12 active torsions:
REMARK  status: ('A' for Active; 'I' for Inactive)
REMARK    1  A    between atoms: C_1  and  O_2
REMARK    2  A    between atoms: O_2  and  C_3
REMARK    3  A    between atoms: C_5  and  C_6
REMARK    4  A    between atoms: C_8  and  C_9
REMARK    5  A    between atoms: C_9  and  N_10
REMARK    6  A    between atoms: N_10  and  C_11
REMARK    7  A    between atoms: N_10  and  C_14
REMARK    8  A    between atoms: C_11  and  C_12
REMARK    9  A    between atoms: C_12  and  O_13
REMARK   10  A    between atoms: C_14  and  C_15
REMARK   11  A    between atoms: C_15  and  O_16
REMARK   12  A    between atoms: C_17  and  C_18
REMARK                            x       y       z     vdW  Elec       q    Type
REMARK                         _______ _______ _______ _____ _____    ______ ____
ROOT
ATOM      1  C   UNL     1       5.151   4.271  16.362  0.00  0.00    +0.000 A 
ATOM      2  N   UNL     1       4.968   5.233  17.246  0.00  0.00    +0.000 NA
ATOM      3  C   UNL     1       4.273   4.629  18.275  0.00  0.00    +0.000 A 
ATOM      4  C   UNL     1       4.064   3.301  17.966  0.00  0.00    +0.000 A 
ATOM      5  C   UNL     1       3.419   2.147  18.612  0.00  0.00    +0.000 C 
ATOM      6  O   UNL     1       4.621   3.067  16.741  0.00  0.00    +0.000 OA
ENDROOT
BRANCH   1   9
ATOM      7  C   UNL     1       5.939   3.569  12.741  0.00  0.00    +0.000 A 
ATOM      8  C   UNL     1       5.328   3.543  14.001  0.00  0.00    +0.000 A 
ATOM      9  C   UNL     1       5.820   4.310  15.068  0.00  0.00    +0.000 A 
ATOM     10  C   UNL     1       6.956   5.106  14.858  0.00  0.00    +0.000 A 
ATOM     11  C   UNL     1       7.572   5.140  13.607  0.00  0.00    +0.000 A 
ATOM     12  C   UNL     1       7.062   4.382  12.558  0.00  0.00    +0.000 A 
ATOM     13  F   UNL     1       7.691   4.462  11.378  0.00  0.00    +0.000 F 
BRANCH   7  15
ATOM     14  C   UNL     1       4.115   3.240  11.249  0.00  0.00    +0.000 C 
ATOM     15  O   UNL     1       5.338   2.773  11.804  0.00  0.00    +0.000 OA
ENDBRANCH   7  15
ENDBRANCH   1   9
BRANCH   3  16
ATOM     16  C   UNL     1       3.834   5.442  19.449  0.00  0.00    +0.000 C 
BRANCH  16  17
ATOM     17  N   UNL     1       2.419   5.895  19.384  0.00  0.00    +0.000 NA
BRANCH  17  18
ATOM     18  C   UNL     1       1.715   5.527  20.646  0.00  0.00    +0.000 C 
BRANCH  18  19
ATOM     19  C   UNL     1       1.942   4.087  21.148  0.00  0.00    +0.000 C 
BRANCH  19  20
ATOM     20  O   UNL     1       0.787   3.298  20.862  0.00  0.00    +0.000 OA
ATOM     21  H   UNL     1       0.093   3.570  21.486  0.00  0.00    +0.000 HD
ENDBRANCH  19  20
ENDBRANCH  18  19
ENDBRANCH  17  18
BRANCH  17  22
ATOM     22  C   UNL     1       2.393   7.379  19.222  0.00  0.00    +0.000 C 
BRANCH  22  23
ATOM     23  C   UNL     1       2.840   7.909  17.846  0.00  0.00    +0.000 C 
BRANCH  23  24
ATOM     24  O   UNL     1       2.121   9.084  17.489  0.00  0.00    +0.000 OA
ATOM     25  H   UNL     1       2.583   9.457  16.715  0.00  0.00    +0.000 HD
ENDBRANCH  23  24
ENDBRANCH  22  23
ENDBRANCH  17  22
ENDBRANCH  16  17
ENDBRANCH   3  16
TORSDOF 10
ENDMDL
MODEL 9
REMARK VINA RESULT:      -6.2      1.720      3.188
REMARK  Name = 
REMARK  12 active torsions:
REMARK  status: ('A' for Active; 'I' for Inactive)
REMARK    1  A    between atoms: C_1  and  O_2
REMARK    2  A    between atoms: O_2  and  C_3
REMARK    3  A    between atoms: C_5  and  C_6
REMARK    4  A    between atoms: C_8  and  C_9
REMARK    5  A    between atoms: C_9  and  N_10
REMARK    6  A    between atoms: N_10  and  C_11
REMARK    7  A    between atoms: N_10  and  C_14
REMARK    8  A    between atoms: C_11  and  C_12
REMARK    9  A    between atoms: C_12  and  O_13
REMARK   10  A    between atoms: C_14  and  C_15
REMARK   11  A    between atoms: C_15  and  O_16
REMARK   12  A    between atoms: C_17  and  C_18
REMARK                            x       y       z     vdW  Elec       q    Type
REMARK                         _______ _______ _______ _____ _____    ______ ____
ROOT
ATOM      1  C   UNL     1       2.676   7.144  18.530  0.00  0.00    +0.000 A 
ATOM      2  N   UNL     1       3.780   7.357  17.840  0.00  0.00    +0.000 NA
ATOM      3  C   UNL     1       4.101   6.121  17.313  0.00  0.00    +0.000 A 
ATOM      4  C   UNL     1       3.158   5.196  17.713  0.00  0.00    +0.000 A 
ATOM      5  C   UNL     1       2.922   3.759  17.504  0.00  0.00    +0.000 C 
ATOM      6  O   UNL     1       2.246   5.845  18.495  0.00  0.00    +0.000 OA
ENDROOT
BRANCH   1   9
ATOM      7  C   UNL     1       0.572  10.144  19.426  0.00  0.00    +0.000 A 
ATOM      8  C   UNL     1       1.361   9.237  18.708  0.00  0.00    +0.000 A 
ATOM      9  C   UNL     1       1.872   8.076  19.310  0.00  0.00    +0.000 A 
ATOM     10  C   UNL     1       1.589   7.840  20.664  0.00  0.00    +0.000 A 
ATOM     11  C   UNL     1       0.804   8.736  21.388  0.00  0.00    +0.000 A 
ATOM     12  C   UNL     1       0.296   9.875  20.770  0.00  0.00    +0.000 A 
ATOM     13  F   UNL     1      -0.458  10.695  21.514  0.00  0.00    +0.000 F 
BRANCH   7  15
ATOM     14  C   UNL     1      -1.226  11.241  18.319  0.00  0.00    +0.000 C 
ATOM     15  O   UNL     1       0.145  11.221  18.699  0.00  0.00    +0.000 OA
ENDBRANCH   7  15
ENDBRANCH   1   9
BRANCH   3  16
ATOM     16  C   UNL     1       5.346   5.962  16.504  0.00  0.00    +0.000 C 
BRANCH  16  17
ATOM     17  N   UNL     1       6.254   4.886  16.984  0.00  0.00    +0.000 NA
BRANCH  17  18
ATOM     18  C   UNL     1       6.825   4.152  15.817  0.00  0.00    +0.000 C 
BRANCH  18  19
ATOM     19  C   UNL     1       6.687   4.852  14.451  0.00  0.00    +0.000 C 
BRANCH  19  20
ATOM     20  O   UNL     1       7.925   5.475  14.110  0.00  0.00    +0.000 OA
ATOM     21  H   UNL     1       8.537   4.769  13.843  0.00  0.00    +0.000 HD
ENDBRANCH  19  20
ENDBRANCH  18  19
ENDBRANCH  17  18
BRANCH  17  22
ATOM     22  C   UNL     1       7.365   5.503  17.768  0.00  0.00    +0.000 C 
BRANCH  22  23
ATOM     23  C   UNL     1       7.124   5.627  19.284  0.00  0.00    +0.000 C 
BRANCH  23  24
ATOM     24  O   UNL     1       8.324   5.408  20.015  0.00  0.00    +0.000 OA
ATOM     25  H   UNL     1       8.249   4.511  20.394  0.00  0.00    +0.000 HD
ENDBRANCH  23  24
ENDBRANCH  22  23
ENDBRANCH  17  22
ENDBRANCH  16  17
ENDBRANCH   3  16
TORSDOF 10
ENDMDL
