MODEL 1
REMARK VINA RESULT:      -7.5      0.000      0.000
REMARK  Name = 
REMARK  4 active torsions:
REMARK  status: ('A' for Active; 'I' for Inactive)
REMARK    1  A    between atoms: C_1  and  N_2
REMARK    2  A    between atoms: C_5  and  C_6
REMARK    3  A    between atoms: C_19  and  C_21
REMARK    4  A    between atoms: C_23  and  O_24
REMARK                            x       y       z     vdW  Elec       q    Type
REMARK                         _______ _______ _______ _____ _____    ______ ____
ROOT
ATOM      1  C   UNL     1       4.364   4.769  18.902  0.00  0.00    +0.000 A 
ATOM      2  C   UNL     1       4.805   3.441  19.074  0.00  0.00    +0.000 A 
ATOM      3  C   UNL     1       4.147   2.563  19.930  0.00  0.00    +0.000 A 
ATOM      4 CL   UNL     1       4.778   0.956  20.065  0.00  0.00    +0.000 Cl
ATOM      5  C   UNL     1       3.023   2.978  20.651  0.00  0.00    +0.000 A 
ATOM      6 CL   UNL     1       2.164   1.937  21.730  0.00  0.00    +0.000 Cl
ATOM      7  C   UNL     1       2.584   4.302  20.486  0.00  0.00    +0.000 A 
ATOM      8  N   UNL     1       1.525   4.949  21.094  0.00  0.00    +0.000 N 
ATOM      9  C   UNL     1       1.471   6.235  20.668  0.00  0.00    +0.000 A 
ATOM     10  C   UNL     1       2.471   6.444  19.738  0.00  0.00    +0.000 A 
ATOM     11  C   UNL     1       3.222   5.220  19.628  0.00  0.00    +0.000 A 
ATOM     12  C   UNL     1       2.679   7.775  19.068  0.00  0.00    +0.000 C 
ATOM     13  N   UNL     1       1.608   8.722  19.444  0.00  0.00    +0.000 N 
ATOM     14  C   UNL     1       1.327   9.759  18.557  0.00  0.00    +0.000 C 
ATOM     15  O   UNL     1       1.915   9.843  17.471  0.00  0.00    +0.000 OA
ATOM     16  C   UNL     1       1.135   8.649  20.839  0.00  0.00    +0.000 C 
ATOM     17  C   UNL     1       0.511   7.272  21.133  0.00  0.00    +0.000 C 
ATOM     18  H   UNL     1       0.903   4.508  21.763  0.00  0.00    +0.000 HD
ENDROOT
BRANCH   1  23
ATOM     19  C   UNL     1       7.621   7.970  17.356  0.00  0.00    +0.000 C 
ATOM     20  N   UNL     1       6.529   7.031  17.255  0.00  0.00    +0.000 N 
ATOM     21  C   UNL     1       5.698   6.842  16.195  0.00  0.00    +0.000 A 
ATOM     22  C   UNL     1       4.747   5.950  16.628  0.00  0.00    +0.000 A 
ATOM     23  C   UNL     1       5.086   5.645  17.978  0.00  0.00    +0.000 A 
ATOM     24  N   UNL     1       6.234   6.250  18.306  0.00  0.00    +0.000 NA
ENDBRANCH   1  23
BRANCH  14  25
ATOM     25  C   UNL     1       0.259  10.803  18.978  0.00  0.00    +0.000 C 
ATOM     26  C   UNL     1      -1.060  10.876  18.167  0.00  0.00    +0.000 C 
ATOM     27  C   UNL     1      -0.966  12.410  18.182  0.00  0.00    +0.000 C 
ATOM     28  C   UNL     1       0.518  12.277  18.557  0.00  0.00    +0.000 C 
BRANCH  27  29
ATOM     29  O   UNL     1      -1.812  13.094  19.126  0.00  0.00    +0.000 OA
ATOM     30  H   UNL     1      -1.685  12.642  19.977  0.00  0.00    +0.000 HD
ENDBRANCH  27  29
ENDBRANCH  14  25
TORSDOF 3
ENDMDL
MODEL 2
REMARK VINA RESULT:      -6.5      6.307      9.506
REMARK  Name = 
REMARK  4 active torsions:
REMARK  status: ('A' for Active; 'I' for Inactive)
REMARK    1  A    between atoms: C_1  and  N_2
REMARK    2  A    between atoms: C_5  and  C_6
REMARK    3  A    between atoms: C_19  and  C_21
REMARK    4  A    between atoms: C_23  and  O_24
REMARK                            x       y       z     vdW  Elec       q    Type
REMARK                         _______ _______ _______ _____ _____    ______ ____
ROOT
ATOM      1  C   UNL     1       1.094  13.169  19.504  0.00  0.00    +0.000 A 
ATOM      2  C   UNL     1       2.239  13.577  18.791  0.00  0.00    +0.000 A 
ATOM      3  C   UNL     1       2.425  14.904  18.413  0.00  0.00    +0.000 A 
ATOM      4 CL   UNL     1       3.869  15.291  17.539  0.00  0.00    +0.000 Cl
ATOM      5  C   UNL     1       1.472  15.876  18.732  0.00  0.00    +0.000 A 
ATOM      6 CL   UNL     1       1.644  17.538  18.291  0.00  0.00    +0.000 Cl
ATOM      7  C   UNL     1       0.327  15.472  19.437  0.00  0.00    +0.000 A 
ATOM      8  N   UNL     1      -0.754  16.229  19.847  0.00  0.00    +0.000 N 
ATOM      9  C   UNL     1      -1.655  15.436  20.478  0.00  0.00    +0.000 A 
ATOM     10  C   UNL     1      -1.160  14.147  20.532  0.00  0.00    +0.000 A 
ATOM     11  C   UNL     1       0.103  14.140  19.839  0.00  0.00    +0.000 A 
ATOM     12  C   UNL     1      -1.922  13.021  21.174  0.00  0.00    +0.000 C 
ATOM     13  N   UNL     1      -3.150  13.525  21.825  0.00  0.00    +0.000 N 
ATOM     14  C   UNL     1      -3.671  12.778  22.880  0.00  0.00    +0.000 C 
ATOM     15  O   UNL     1      -3.089  11.765  23.289  0.00  0.00    +0.000 OA
ATOM     16  C   UNL     1      -3.862  14.607  21.120  0.00  0.00    +0.000 C 
ATOM     17  C   UNL     1      -2.976  15.863  21.012  0.00  0.00    +0.000 C 
ATOM     18  H   UNL     1      -0.842  17.226  19.679  0.00  0.00    +0.000 HD
ENDROOT
BRANCH   1  23
ATOM     19  C   UNL     1       1.311   9.215  22.253  0.00  0.00    +0.000 C 
ATOM     20  N   UNL     1       1.009  10.005  21.083  0.00  0.00    +0.000 N 
ATOM     21  C   UNL     1       0.646   9.552  19.853  0.00  0.00    +0.000 A 
ATOM     22  C   UNL     1       0.605  10.666  19.049  0.00  0.00    +0.000 A 
ATOM     23  C   UNL     1       0.956  11.764  19.887  0.00  0.00    +0.000 A 
ATOM     24  N   UNL     1       1.109  11.342  21.149  0.00  0.00    +0.000 NA
ENDBRANCH   1  23
BRANCH  14  25
ATOM     25  C   UNL     1      -5.001  13.257  23.518  0.00  0.00    +0.000 C 
ATOM     26  C   UNL     1      -5.556  12.478  24.738  0.00  0.00    +0.000 C 
ATOM     27  C   UNL     1      -6.961  12.541  24.120  0.00  0.00    +0.000 C 
ATOM     28  C   UNL     1      -6.311  12.879  22.769  0.00  0.00    +0.000 C 
BRANCH  27  29
ATOM     29  O   UNL     1      -7.858  13.527  24.669  0.00  0.00    +0.000 OA
ATOM     30  H   UNL     1      -7.596  14.376  24.278  0.00  0.00    +0.000 HD
ENDBRANCH  27  29
ENDBRANCH  14  25
TORSDOF 3
ENDMDL
MODEL 3
REMARK VINA RESULT:      -6.3      0.715      1.001
REMARK  Name = 
REMARK  4 active torsions:
REMARK  status: ('A' for Active; 'I' for Inactive)
REMARK    1  A    between atoms: C_1  and  N_2
REMARK    2  A    between atoms: C_5  and  C_6
REMARK    3  A    between atoms: C_19  and  C_21
REMARK    4  A    between atoms: C_23  and  O_24
REMARK                            x       y       z     vdW  Elec       q    Type
REMARK                         _______ _______ _______ _____ _____    ______ ____
ROOT
ATOM      1  C   UNL     1       4.310   4.699  18.906  0.00  0.00    +0.000 A 
ATOM      2  C   UNL     1       4.753   3.375  19.098  0.00  0.00    +0.000 A 
ATOM      3  C   UNL     1       4.124   2.522  20.001  0.00  0.00    +0.000 A 
ATOM      4 CL   UNL     1       4.756   0.917  20.157  0.00  0.00    +0.000 Cl
ATOM      5  C   UNL     1       3.028   2.960  20.749  0.00  0.00    +0.000 A 
ATOM      6 CL   UNL     1       2.205   1.952  21.886  0.00  0.00    +0.000 Cl
ATOM      7  C   UNL     1       2.586   4.280  20.565  0.00  0.00    +0.000 A 
ATOM      8  N   UNL     1       1.551   4.947  21.191  0.00  0.00    +0.000 N 
ATOM      9  C   UNL     1       1.483   6.221  20.732  0.00  0.00    +0.000 A 
ATOM     10  C   UNL     1       2.450   6.402  19.762  0.00  0.00    +0.000 A 
ATOM     11  C   UNL     1       3.194   5.173  19.660  0.00  0.00    +0.000 A 
ATOM     12  C   UNL     1       2.637   7.713  19.049  0.00  0.00    +0.000 C 
ATOM     13  N   UNL     1       1.582   8.674  19.437  0.00  0.00    +0.000 N 
ATOM     14  C   UNL     1       1.272   9.687  18.533  0.00  0.00    +0.000 C 
ATOM     15  O   UNL     1       1.821   9.739  17.424  0.00  0.00    +0.000 OA
ATOM     16  C   UNL     1       1.160   8.640  20.849  0.00  0.00    +0.000 C 
ATOM     17  C   UNL     1       0.543   7.273  21.203  0.00  0.00    +0.000 C 
ATOM     18  H   UNL     1       0.951   4.526  21.893  0.00  0.00    +0.000 HD
ENDROOT
BRANCH   1  23
ATOM     19  C   UNL     1       5.284   6.842  14.699  0.00  0.00    +0.000 C 
ATOM     20  N   UNL     1       5.440   6.534  16.101  0.00  0.00    +0.000 N 
ATOM     21  C   UNL     1       6.488   6.857  16.905  0.00  0.00    +0.000 A 
ATOM     22  C   UNL     1       6.238   6.231  18.103  0.00  0.00    +0.000 A 
ATOM     23  C   UNL     1       4.999   5.546  17.934  0.00  0.00    +0.000 A 
ATOM     24  N   UNL     1       4.488   5.825  16.728  0.00  0.00    +0.000 NA
ENDBRANCH   1  23
BRANCH  14  25
ATOM     25  C   UNL     1       0.221  10.745  18.962  0.00  0.00    +0.000 C 
ATOM     26  C   UNL     1      -1.095  10.849  18.151  0.00  0.00    +0.000 C 
ATOM     27  C   UNL     1      -0.974  12.380  18.180  0.00  0.00    +0.000 C 
ATOM     28  C   UNL     1       0.507  12.218  18.556  0.00  0.00    +0.000 C 
BRANCH  27  29
ATOM     29  O   UNL     1      -1.809  13.070  19.130  0.00  0.00    +0.000 OA
ATOM     30  H   UNL     1      -1.290  13.829  19.443  0.00  0.00    +0.000 HD
ENDBRANCH  27  29
ENDBRANCH  14  25
TORSDOF 3
ENDMDL
MODEL 4
REMARK VINA RESULT:      -6.2      8.365     11.424
REMARK  Name = 
REMARK  4 active torsions:
REMARK  status: ('A' for Active; 'I' for Inactive)
REMARK    1  A    between atoms: C_1  and  N_2
REMARK    2  A    between atoms: C_5  and  C_6
REMARK    3  A    between atoms: C_19  and  C_21
REMARK    4  A    between atoms: C_23  and  O_24
REMARK                            x       y       z     vdW  Elec       q    Type
REMARK                         _______ _______ _______ _____ _____    ______ ____
ROOT
ATOM      1  C   UNL     1      -2.857  14.591  24.150  0.00  0.00    +0.000 A 
ATOM      2  C   UNL     1      -2.527  15.433  25.232  0.00  0.00    +0.000 A 
ATOM      3  C   UNL     1      -1.367  16.203  25.226  0.00  0.00    +0.000 A 
ATOM      4 CL   UNL     1      -1.063  17.199  26.609  0.00  0.00    +0.000 Cl
ATOM      5  C   UNL     1      -0.490  16.160  24.139  0.00  0.00    +0.000 A 
ATOM      6 CL   UNL     1       0.965  17.090  24.070  0.00  0.00    +0.000 Cl
ATOM      7  C   UNL     1      -0.812  15.319  23.062  0.00  0.00    +0.000 A 
ATOM      8  N   UNL     1      -0.106  15.089  21.896  0.00  0.00    +0.000 N 
ATOM      9  C   UNL     1      -0.765  14.180  21.135  0.00  0.00    +0.000 A 
ATOM     10  C   UNL     1      -1.940  13.828  21.770  0.00  0.00    +0.000 A 
ATOM     11  C   UNL     1      -1.976  14.526  23.029  0.00  0.00    +0.000 A 
ATOM     12  C   UNL     1      -2.905  12.835  21.181  0.00  0.00    +0.000 C 
ATOM     13  N   UNL     1      -2.478  12.433  19.824  0.00  0.00    +0.000 N 
ATOM     14  C   UNL     1      -3.461  11.979  18.948  0.00  0.00    +0.000 C 
ATOM     15  O   UNL     1      -4.654  11.971  19.282  0.00  0.00    +0.000 OA
ATOM     16  C   UNL     1      -1.025  12.283  19.618  0.00  0.00    +0.000 C 
ATOM     17  C   UNL     1      -0.300  13.624  19.835  0.00  0.00    +0.000 C 
ATOM     18  H   UNL     1       0.775  15.537  21.672  0.00  0.00    +0.000 HD
ENDROOT
BRANCH   1  23
ATOM     19  C   UNL     1      -7.569  13.615  23.867  0.00  0.00    +0.000 C 
ATOM     20  N   UNL     1      -6.165  13.342  24.058  0.00  0.00    +0.000 N 
ATOM     21  C   UNL     1      -5.607  12.209  24.562  0.00  0.00    +0.000 A 
ATOM     22  C   UNL     1      -4.264  12.479  24.674  0.00  0.00    +0.000 A 
ATOM     23  C   UNL     1      -4.095  13.815  24.204  0.00  0.00    +0.000 A 
ATOM     24  N   UNL     1      -5.263  14.285  23.747  0.00  0.00    +0.000 NA
ENDBRANCH   1  23
BRANCH  14  25
ATOM     25  C   UNL     1      -3.013  11.482  17.549  0.00  0.00    +0.000 C 
ATOM     26  C   UNL     1      -4.074  11.397  16.422  0.00  0.00    +0.000 C 
ATOM     27  C   UNL     1      -3.507  10.028  16.014  0.00  0.00    +0.000 C 
ATOM     28  C   UNL     1      -2.814   9.949  17.383  0.00  0.00    +0.000 C 
BRANCH  27  29
ATOM     29  O   UNL     1      -2.651  10.010  14.855  0.00  0.00    +0.000 OA
ATOM     30  H   UNL     1      -3.218   9.762  14.106  0.00  0.00    +0.000 HD
ENDBRANCH  27  29
ENDBRANCH  14  25
TORSDOF 3
ENDMDL
MODEL 5
REMARK VINA RESULT:      -6.0      8.244     11.147
REMARK  Name = 
REMARK  4 active torsions:
REMARK  status: ('A' for Active; 'I' for Inactive)
REMARK    1  A    between atoms: C_1  and  N_2
REMARK    2  A    between atoms: C_5  and  C_6
REMARK    3  A    between atoms: C_19  and  C_21
REMARK    4  A    between atoms: C_23  and  O_24
REMARK                            x       y       z     vdW  Elec       q    Type
REMARK                         _______ _______ _______ _____ _____    ______ ____
ROOT
ATOM      1  C   UNL     1      -4.482  13.691  22.273  0.00  0.00    +0.000 A 
ATOM      2  C   UNL     1      -4.344  14.377  23.497  0.00  0.00    +0.000 A 
ATOM      3  C   UNL     1      -3.116  14.887  23.910  0.00  0.00    +0.000 A 
ATOM      4 CL   UNL     1      -3.064  15.710  25.432  0.00  0.00    +0.000 Cl
ATOM      5  C   UNL     1      -1.977  14.729  23.116  0.00  0.00    +0.000 A 
ATOM      6 CL   UNL     1      -0.425  15.337  23.572  0.00  0.00    +0.000 Cl
ATOM      7  C   UNL     1      -2.108  14.042  21.899  0.00  0.00    +0.000 A 
ATOM      8  N   UNL     1      -1.140  13.742  20.960  0.00  0.00    +0.000 N 
ATOM      9  C   UNL     1      -1.694  13.039  19.940  0.00  0.00    +0.000 A 
ATOM     10  C   UNL     1      -3.049  12.902  20.172  0.00  0.00    +0.000 A 
ATOM     11  C   UNL     1      -3.333  13.513  21.445  0.00  0.00    +0.000 A 
ATOM     12  C   UNL     1      -3.956  12.171  19.221  0.00  0.00    +0.000 C 
ATOM     13  N   UNL     1      -3.223  11.773  18.000  0.00  0.00    +0.000 N 
ATOM     14  C   UNL     1      -3.964  11.590  16.836  0.00  0.00    +0.000 C 
ATOM     15  O   UNL     1      -5.182  11.811  16.817  0.00  0.00    +0.000 OA
ATOM     16  C   UNL     1      -1.828  11.336  18.194  0.00  0.00    +0.000 C 
ATOM     17  C   UNL     1      -0.970  12.481  18.767  0.00  0.00    +0.000 C 
ATOM     18  H   UNL     1      -0.166  14.010  21.048  0.00  0.00    +0.000 HD
ENDROOT
BRANCH   1  23
ATOM     19  C   UNL     1      -7.916  10.524  21.084  0.00  0.00    +0.000 C 
ATOM     20  N   UNL     1      -7.347  11.816  21.385  0.00  0.00    +0.000 N 
ATOM     21  C   UNL     1      -7.916  13.035  21.186  0.00  0.00    +0.000 A 
ATOM     22  C   UNL     1      -6.940  13.951  21.496  0.00  0.00    +0.000 A 
ATOM     23  C   UNL     1      -5.799  13.189  21.883  0.00  0.00    +0.000 A 
ATOM     24  N   UNL     1      -6.107  11.885  21.894  0.00  0.00    +0.000 NA
ENDBRANCH   1  23
BRANCH  14  25
ATOM     25  C   UNL     1      -3.215  11.098  15.569  0.00  0.00    +0.000 C 
ATOM     26  C   UNL     1      -4.049  10.731  14.315  0.00  0.00    +0.000 C 
ATOM     27  C   UNL     1      -3.183   9.476  14.126  0.00  0.00    +0.000 C 
ATOM     28  C   UNL     1      -2.714   9.626  15.582  0.00  0.00    +0.000 C 
BRANCH  27  29
ATOM     29  O   UNL     1      -2.165   9.548  13.109  0.00  0.00    +0.000 OA
ATOM     30  H   UNL     1      -1.326   9.346  13.554  0.00  0.00    +0.000 HD
ENDBRANCH  27  29
ENDBRANCH  14  25
TORSDOF 3
ENDMDL
MODEL 6
REMARK VINA RESULT:      -6.0      6.257      9.545
REMARK  Name = 
REMARK  4 active torsions:
REMARK  status: ('A' for Active; 'I' for Inactive)
REMARK    1  A    between atoms: C_1  and  N_2
REMARK    2  A    between atoms: C_5  and  C_6
REMARK    3  A    between atoms: C_19  and  C_21
REMARK    4  A    between atoms: C_23  and  O_24
REMARK                            x       y       z     vdW  Elec       q    Type
REMARK                         _______ _______ _______ _____ _____    ______ ____
ROOT
ATOM      1  C   UNL     1      -1.445  12.268  22.508  0.00  0.00    +0.000 A 
ATOM      2  C   UNL     1      -2.650  11.968  23.175  0.00  0.00    +0.000 A 
ATOM      3  C   UNL     1      -3.290  12.909  23.977  0.00  0.00    +0.000 A 
ATOM      4 CL   UNL     1      -4.765  12.430  24.748  0.00  0.00    +0.000 Cl
ATOM      5  C   UNL     1      -2.749  14.187  24.146  0.00  0.00    +0.000 A 
ATOM      6 CL   UNL     1      -3.494  15.398  25.128  0.00  0.00    +0.000 Cl
ATOM      7  C   UNL     1      -1.546  14.488  23.488  0.00  0.00    +0.000 A 
ATOM      8  N   UNL     1      -0.810  15.657  23.512  0.00  0.00    +0.000 N 
ATOM      9  C   UNL     1       0.305  15.511  22.754  0.00  0.00    +0.000 A 
ATOM     10  C   UNL     1       0.299  14.254  22.182  0.00  0.00    +0.000 A 
ATOM     11  C   UNL     1      -0.869  13.564  22.667  0.00  0.00    +0.000 A 
ATOM     12  C   UNL     1       1.403  13.778  21.277  0.00  0.00    +0.000 C 
ATOM     13  N   UNL     1       2.362  14.870  21.005  0.00  0.00    +0.000 N 
ATOM     14  C   UNL     1       3.100  14.798  19.826  0.00  0.00    +0.000 C 
ATOM     15  O   UNL     1       2.910  13.884  19.013  0.00  0.00    +0.000 OA
ATOM     16  C   UNL     1       2.653  15.775  22.132  0.00  0.00    +0.000 C 
ATOM     17  C   UNL     1       1.381  16.523  22.574  0.00  0.00    +0.000 C 
ATOM     18  H   UNL     1      -1.080  16.483  24.035  0.00  0.00    +0.000 HD
ENDROOT
BRANCH   1  23
ATOM     19  C   UNL     1       1.294   8.487  21.309  0.00  0.00    +0.000 C 
ATOM     20  N   UNL     1       0.351   9.561  21.109  0.00  0.00    +0.000 N 
ATOM     21  C   UNL     1      -0.106  10.047  19.923  0.00  0.00    +0.000 A 
ATOM     22  C   UNL     1      -0.869  11.144  20.246  0.00  0.00    +0.000 A 
ATOM     23  C   UNL     1      -0.823  11.246  21.668  0.00  0.00    +0.000 A 
ATOM     24  N   UNL     1      -0.144  10.208  22.175  0.00  0.00    +0.000 NA
ENDBRANCH   1  23
BRANCH  14  25
ATOM     25  C   UNL     1       4.164  15.897  19.569  0.00  0.00    +0.000 C 
ATOM     26  C   UNL     1       4.635  16.141  18.112  0.00  0.00    +0.000 C 
ATOM     27  C   UNL     1       6.085  16.223  18.611  0.00  0.00    +0.000 C 
ATOM     28  C   UNL     1       5.637  15.536  19.911  0.00  0.00    +0.000 C 
BRANCH  27  29
ATOM     29  O   UNL     1       6.645  17.544  18.739  0.00  0.00    +0.000 OA
ATOM     30  H   UNL     1       6.154  18.106  18.117  0.00  0.00    +0.000 HD
ENDBRANCH  27  29
ENDBRANCH  14  25
TORSDOF 3
ENDMDL
MODEL 7
REMARK VINA RESULT:      -6.0      2.739      4.659
REMARK  Name = 
REMARK  4 active torsions:
REMARK  status: ('A' for Active; 'I' for Inactive)
REMARK    1  A    between atoms: C_1  and  N_2
REMARK    2  A    between atoms: C_5  and  C_6
REMARK    3  A    between atoms: C_19  and  C_21
REMARK    4  A    between atoms: C_23  and  O_24
REMARK                            x       y       z     vdW  Elec       q    Type
REMARK                         _______ _______ _______ _____ _____    ______ ____
ROOT
ATOM      1  C   UNL     1       3.309   4.517  17.970  0.00  0.00    +0.000 A 
ATOM      2  C   UNL     1       4.147   3.698  17.186  0.00  0.00    +0.000 A 
ATOM      3  C   UNL     1       5.028   4.241  16.255  0.00  0.00    +0.000 A 
ATOM      4 CL   UNL     1       6.009   3.140  15.347  0.00  0.00    +0.000 Cl
ATOM      5  C   UNL     1       5.105   5.624  16.069  0.00  0.00    +0.000 A 
ATOM      6 CL   UNL     1       6.176   6.359  14.930  0.00  0.00    +0.000 Cl
ATOM      7  C   UNL     1       4.267   6.443  16.844  0.00  0.00    +0.000 A 
ATOM      8  N   UNL     1       4.143   7.819  16.831  0.00  0.00    +0.000 N 
ATOM      9  C   UNL     1       3.196   8.200  17.724  0.00  0.00    +0.000 A 
ATOM     10  C   UNL     1       2.710   7.080  18.371  0.00  0.00    +0.000 A 
ATOM     11  C   UNL     1       3.364   5.932  17.797  0.00  0.00    +0.000 A 
ATOM     12  C   UNL     1       1.644   7.163  19.429  0.00  0.00    +0.000 C 
ATOM     13  N   UNL     1       1.327   8.573  19.742  0.00  0.00    +0.000 N 
ATOM     14  C   UNL     1       0.803   8.850  21.002  0.00  0.00    +0.000 C 
ATOM     15  O   UNL     1       0.667   7.952  21.844  0.00  0.00    +0.000 OA
ATOM     16  C   UNL     1       1.327   9.508  18.601  0.00  0.00    +0.000 C 
ATOM     17  C   UNL     1       2.727   9.592  17.964  0.00  0.00    +0.000 C 
ATOM     18  H   UNL     1       4.683   8.430  16.228  0.00  0.00    +0.000 HD
ENDROOT
BRANCH   1  23
ATOM     19  C   UNL     1       1.835   2.574  22.129  0.00  0.00    +0.000 C 
ATOM     20  N   UNL     1       1.719   3.060  20.774  0.00  0.00    +0.000 N 
ATOM     21  C   UNL     1       0.679   2.875  19.918  0.00  0.00    +0.000 A 
ATOM     22  C   UNL     1       1.093   3.401  18.717  0.00  0.00    +0.000 A 
ATOM     23  C   UNL     1       2.412   3.893  18.943  0.00  0.00    +0.000 A 
ATOM     24  N   UNL     1       2.734   3.754  20.235  0.00  0.00    +0.000 NA
ENDBRANCH   1  23
BRANCH  14  25
ATOM     25  C   UNL     1       0.395  10.314  21.312  0.00  0.00    +0.000 C 
ATOM     26  C   UNL     1      -0.337  10.609  22.647  0.00  0.00    +0.000 C 
ATOM     27  C   UNL     1      -1.312  11.524  21.892  0.00  0.00    +0.000 C 
ATOM     28  C   UNL     1      -0.866  10.856  20.582  0.00  0.00    +0.000 C 
BRANCH  27  29
ATOM     29  O   UNL     1      -1.079  12.941  22.006  0.00  0.00    +0.000 OA
ATOM     30  H   UNL     1      -1.759  13.371  21.462  0.00  0.00    +0.000 HD
ENDBRANCH  27  29
ENDBRANCH  14  25
TORSDOF 3
ENDMDL
MODEL 8
REMARK VINA RESULT:      -5.9      6.476      9.614
REMARK  Name = 
REMARK  4 active torsions:
REMARK  status: ('A' for Active; 'I' for Inactive)
REMARK    1  A    between atoms: C_1  and  N_2
REMARK    2  A    between atoms: C_5  and  C_6
REMARK    3  A    between atoms: C_19  and  C_21
REMARK    4  A    between atoms: C_23  and  O_24
REMARK                            x       y       z     vdW  Elec       q    Type
REMARK                         _______ _______ _______ _____ _____    ______ ____
ROOT
ATOM      1  C   UNL     1      -1.445  12.321  22.400  0.00  0.00    +0.000 A 
ATOM      2  C   UNL     1      -2.652  11.997  23.053  0.00  0.00    +0.000 A 
ATOM      3  C   UNL     1      -3.288  12.905  23.896  0.00  0.00    +0.000 A 
ATOM      4 CL   UNL     1      -4.765  12.399  24.645  0.00  0.00    +0.000 Cl
ATOM      5  C   UNL     1      -2.741  14.171  24.122  0.00  0.00    +0.000 A 
ATOM      6 CL   UNL     1      -3.481  15.341  25.156  0.00  0.00    +0.000 Cl
ATOM      7  C   UNL     1      -1.536  14.495  23.478  0.00  0.00    +0.000 A 
ATOM      8  N   UNL     1      -0.795  15.659  23.554  0.00  0.00    +0.000 N 
ATOM      9  C   UNL     1       0.319  15.542  22.790  0.00  0.00    +0.000 A 
ATOM     10  C   UNL     1       0.308  14.311  22.163  0.00  0.00    +0.000 A 
ATOM     11  C   UNL     1      -0.863  13.606  22.617  0.00  0.00    +0.000 A 
ATOM     12  C   UNL     1       1.410  13.872  21.238  0.00  0.00    +0.000 C 
ATOM     13  N   UNL     1       2.374  14.969  21.015  0.00  0.00    +0.000 N 
ATOM     14  C   UNL     1       3.112  14.947  19.833  0.00  0.00    +0.000 C 
ATOM     15  O   UNL     1       2.918  14.070  18.981  0.00  0.00    +0.000 OA
ATOM     16  C   UNL     1       2.669  15.823  22.181  0.00  0.00    +0.000 C 
ATOM     17  C   UNL     1       1.400  16.556  22.656  0.00  0.00    +0.000 C 
ATOM     18  H   UNL     1      -1.061  16.463  24.113  0.00  0.00    +0.000 HD
ENDROOT
BRANCH   1  23
ATOM     19  C   UNL     1      -0.361   9.995  18.319  0.00  0.00    +0.000 C 
ATOM     20  N   UNL     1      -0.303  10.304  19.728  0.00  0.00    +0.000 N 
ATOM     21  C   UNL     1       0.269   9.560  20.713  0.00  0.00    +0.000 A 
ATOM     22  C   UNL     1      -0.054  10.196  21.888  0.00  0.00    +0.000 A 
ATOM     23  C   UNL     1      -0.827  11.334  21.515  0.00  0.00    +0.000 A 
ATOM     24  N   UNL     1      -0.886  11.426  20.180  0.00  0.00    +0.000 NA
ENDBRANCH   1  23
BRANCH  14  25
ATOM     25  C   UNL     1       4.181  16.051  19.626  0.00  0.00    +0.000 C 
ATOM     26  C   UNL     1       4.686  16.328  18.186  0.00  0.00    +0.000 C 
ATOM     27  C   UNL     1       6.125  16.398  18.721  0.00  0.00    +0.000 C 
ATOM     28  C   UNL     1       5.646  15.683  19.994  0.00  0.00    +0.000 C 
BRANCH  27  29
ATOM     29  O   UNL     1       6.680  17.716  18.891  0.00  0.00    +0.000 OA
ATOM     30  H   UNL     1       6.849  18.055  17.997  0.00  0.00    +0.000 HD
ENDBRANCH  27  29
ENDBRANCH  14  25
TORSDOF 3
ENDMDL
MODEL 9
REMARK VINA RESULT:      -5.9      4.990      9.250
REMARK  Name = 
REMARK  4 active torsions:
REMARK  status: ('A' for Active; 'I' for Inactive)
REMARK    1  A    between atoms: C_1  and  N_2
REMARK    2  A    between atoms: C_5  and  C_6
REMARK    3  A    between atoms: C_19  and  C_21
REMARK    4  A    between atoms: C_23  and  O_24
REMARK                            x       y       z     vdW  Elec       q    Type
REMARK                         _______ _______ _______ _____ _____    ______ ____
ROOT
ATOM      1  C   UNL     1      -3.151  12.520  20.093  0.00  0.00    +0.000 A 
ATOM      2  C   UNL     1      -3.946  13.547  20.642  0.00  0.00    +0.000 A 
ATOM      3  C   UNL     1      -3.611  14.160  21.846  0.00  0.00    +0.000 A 
ATOM      4 CL   UNL     1      -4.661  15.408  22.426  0.00  0.00    +0.000 Cl
ATOM      5  C   UNL     1      -2.468  13.769  22.551  0.00  0.00    +0.000 A 
ATOM      6 CL   UNL     1      -1.999  14.490  24.050  0.00  0.00    +0.000 Cl
ATOM      7  C   UNL     1      -1.677  12.743  22.010  0.00  0.00    +0.000 A 
ATOM      8  N   UNL     1      -0.526  12.173  22.519  0.00  0.00    +0.000 N 
ATOM      9  C   UNL     1      -0.096  11.192  21.687  0.00  0.00    +0.000 A 
ATOM     10  C   UNL     1      -0.935  11.129  20.592  0.00  0.00    +0.000 A 
ATOM     11  C   UNL     1      -1.981  12.099  20.794  0.00  0.00    +0.000 A 
ATOM     12  C   UNL     1      -0.729  10.142  19.477  0.00  0.00    +0.000 C 
ATOM     13  N   UNL     1       0.531   9.392  19.669  0.00  0.00    +0.000 N 
ATOM     14  C   UNL     1       1.142   8.861  18.536  0.00  0.00    +0.000 C 
ATOM     15  O   UNL     1       0.674   9.064  17.408  0.00  0.00    +0.000 OA
ATOM     16  C   UNL     1       0.869   9.037  21.060  0.00  0.00    +0.000 C 
ATOM     17  C   UNL     1       1.076  10.303  21.913  0.00  0.00    +0.000 C 
ATOM     18  H   UNL     1      -0.093  12.456  23.392  0.00  0.00    +0.000 HD
ENDROOT
BRANCH   1  23
ATOM     19  C   UNL     1      -2.787  11.030  15.523  0.00  0.00    +0.000 C 
ATOM     20  N   UNL     1      -3.407  11.222  16.813  0.00  0.00    +0.000 N 
ATOM     21  C   UNL     1      -4.713  11.028  17.137  0.00  0.00    +0.000 A 
ATOM     22  C   UNL     1      -4.840  11.473  18.431  0.00  0.00    +0.000 A 
ATOM     23  C   UNL     1      -3.543  11.921  18.818  0.00  0.00    +0.000 A 
ATOM     24  N   UNL     1      -2.666  11.669  17.838  0.00  0.00    +0.000 NA
ENDBRANCH   1  23
BRANCH  14  25
ATOM     25  C   UNL     1       2.422   8.007  18.736  0.00  0.00    +0.000 C 
ATOM     26  C   UNL     1       3.350   7.773  17.517  0.00  0.00    +0.000 C 
ATOM     27  C   UNL     1       3.478   6.295  17.918  0.00  0.00    +0.000 C 
ATOM     28  C   UNL     1       2.231   6.466  18.799  0.00  0.00    +0.000 C 
BRANCH  27  29
ATOM     29  O   UNL     1       4.696   5.918  18.590  0.00  0.00    +0.000 OA
ATOM     30  H   UNL     1       5.390   5.923  17.911  0.00  0.00    +0.000 HD
ENDBRANCH  27  29
ENDBRANCH  14  25
TORSDOF 3
ENDMDL
