MODEL 1
REMARK VINA RESULT:      -8.4      0.000      0.000
REMARK  Name = 
REMARK  4 active torsions:
REMARK  status: ('A' for Active; 'I' for Inactive)
REMARK    1  A    between atoms: N_17  and  C_18
REMARK    2  A    between atoms: C_18  and  C_19
REMARK    3  A    between atoms: C_22  and  O_23
REMARK    4  A    between atoms: O_23  and  C_24
REMARK                            x       y       z     vdW  Elec       q    Type
REMARK                         _______ _______ _______ _____ _____    ______ ____
ROOT
ATOM      1  O   UNL     1      -3.449  11.028  16.848  0.00  0.00    +0.000 OA
ATOM      2  C   UNL     1      -2.649  11.506  17.633  0.00  0.00    +0.000 C 
ATOM      3  C   UNL     1      -2.777  11.460  19.131  0.00  0.00    +0.000 C 
ATOM      4  C   UNL     1      -1.590  12.290  19.641  0.00  0.00    +0.000 C 
ATOM      5  C   UNL     1      -0.947  12.804  18.345  0.00  0.00    +0.000 C 
ATOM      6  O   UNL     1      -0.068  13.646  18.236  0.00  0.00    +0.000 OA
ATOM      7  N   UNL     1      -1.541  12.202  17.285  0.00  0.00    +0.000 N 
ATOM      8  C   UNL     1      -2.030  13.448  20.532  0.00  0.00    +0.000 A 
ATOM      9  C   UNL     1      -3.096  14.328  20.381  0.00  0.00    +0.000 A 
ATOM     10  C   UNL     1      -3.361  15.266  21.395  0.00  0.00    +0.000 A 
ATOM     11  C   UNL     1      -2.555  15.355  22.542  0.00  0.00    +0.000 A 
ATOM     12  C   UNL     1      -1.468  14.512  22.679  0.00  0.00    +0.000 A 
ATOM     13  C   UNL     1      -1.251  13.594  21.670  0.00  0.00    +0.000 A 
ATOM     14  S   UNL     1      -0.047  12.373  21.778  0.00  0.00    +0.000 S 
ATOM     15  O   UNL     1       1.239  12.996  21.575  0.00  0.00    +0.000 OA
ATOM     16  O   UNL     1      -0.380  11.579  22.940  0.00  0.00    +0.000 OA
ATOM     17  N   UNL     1      -0.495  11.514  20.377  0.00  0.00    +0.000 NA
ATOM     18  H   UNL     1      -1.304  12.418  16.327  0.00  0.00    +0.000 HD
ENDROOT
BRANCH  17  19
ATOM     19  C   UNL     1      -0.529  10.036  20.478  0.00  0.00    +0.000 C 
BRANCH  19  20
ATOM     20  C   UNL     1       0.584   9.240  19.801  0.00  0.00    +0.000 A 
ATOM     21  C   UNL     1       1.032   9.468  18.492  0.00  0.00    +0.000 A 
ATOM     22  C   UNL     1       1.972   8.660  17.865  0.00  0.00    +0.000 A 
ATOM     23  C   UNL     1       2.556   7.627  18.566  0.00  0.00    +0.000 A 
ATOM     24  C   UNL     1       2.208   7.417  19.902  0.00  0.00    +0.000 A 
ATOM     25  C   UNL     1       1.247   8.230  20.523  0.00  0.00    +0.000 A 
BRANCH  23  26
ATOM     26  O   UNL     1       3.416   6.863  17.825  0.00  0.00    +0.000 OA
BRANCH  26  27
ATOM     27  C   UNL     1       3.423   5.511  18.018  0.00  0.00    +0.000 A 
ATOM     28  C   UNL     1       2.218   4.852  17.787  0.00  0.00    +0.000 A 
ATOM     29  C   UNL     1       2.122   3.487  18.030  0.00  0.00    +0.000 A 
ATOM     30  C   UNL     1       3.235   2.786  18.497  0.00  0.00    +0.000 A 
ATOM     31  C   UNL     1       4.459   3.434  18.662  0.00  0.00    +0.000 A 
ATOM     32  C   UNL     1       4.556   4.800  18.388  0.00  0.00    +0.000 A 
ENDBRANCH  26  27
ENDBRANCH  23  26
ENDBRANCH  19  20
ENDBRANCH  17  19
TORSDOF 4
ENDMDL
MODEL 2
REMARK VINA RESULT:      -8.4      2.036      3.047
REMARK  Name = 
REMARK  4 active torsions:
REMARK  status: ('A' for Active; 'I' for Inactive)
REMARK    1  A    between atoms: N_17  and  C_18
REMARK    2  A    between atoms: C_18  and  C_19
REMARK    3  A    between atoms: C_22  and  O_23
REMARK    4  A    between atoms: O_23  and  C_24
REMARK                            x       y       z     vdW  Elec       q    Type
REMARK                         _______ _______ _______ _____ _____    ______ ____
ROOT
ATOM      1  O   UNL     1       3.260  13.730  17.918  0.00  0.00    +0.000 OA
ATOM      2  C   UNL     1       2.354  13.602  18.722  0.00  0.00    +0.000 C 
ATOM      3  C   UNL     1       0.889  13.707  18.395  0.00  0.00    +0.000 C 
ATOM      4  C   UNL     1       0.185  13.584  19.754  0.00  0.00    +0.000 C 
ATOM      5  C   UNL     1       1.356  13.507  20.743  0.00  0.00    +0.000 C 
ATOM      6  O   UNL     1       1.304  13.570  21.963  0.00  0.00    +0.000 OA
ATOM      7  N   UNL     1       2.517  13.396  20.050  0.00  0.00    +0.000 N 
ATOM      8  C   UNL     1      -0.710  14.781  20.056  0.00  0.00    +0.000 A 
ATOM      9  C   UNL     1      -0.479  16.136  19.849  0.00  0.00    +0.000 A 
ATOM     10  C   UNL     1      -1.505  17.058  20.122  0.00  0.00    +0.000 A 
ATOM     11  C   UNL     1      -2.747  16.645  20.630  0.00  0.00    +0.000 A 
ATOM     12  C   UNL     1      -2.971  15.303  20.879  0.00  0.00    +0.000 A 
ATOM     13  C   UNL     1      -1.944  14.428  20.582  0.00  0.00    +0.000 A 
ATOM     14  S   UNL     1      -2.131  12.722  20.677  0.00  0.00    +0.000 S 
ATOM     15  O   UNL     1      -2.129  12.352  22.072  0.00  0.00    +0.000 OA
ATOM     16  O   UNL     1      -3.192  12.380  19.756  0.00  0.00    +0.000 OA
ATOM     17  N   UNL     1      -0.636  12.310  19.973  0.00  0.00    +0.000 NA
ATOM     18  H   UNL     1       3.422  13.371  20.497  0.00  0.00    +0.000 HD
ENDROOT
BRANCH  17  19
ATOM     19  C   UNL     1      -0.645  11.214  18.975  0.00  0.00    +0.000 C 
BRANCH  19  20
ATOM     20  C   UNL     1       0.340  10.062  19.159  0.00  0.00    +0.000 A 
ATOM     21  C   UNL     1       1.135   9.532  18.133  0.00  0.00    +0.000 A 
ATOM     22  C   UNL     1       1.943   8.415  18.304  0.00  0.00    +0.000 A 
ATOM     23  C   UNL     1       2.038   7.830  19.549  0.00  0.00    +0.000 A 
ATOM     24  C   UNL     1       1.335   8.377  20.625  0.00  0.00    +0.000 A 
ATOM     25  C   UNL     1       0.510   9.498  20.437  0.00  0.00    +0.000 A 
BRANCH  23  26
ATOM     26  O   UNL     1       2.811   6.701  19.579  0.00  0.00    +0.000 OA
BRANCH  26  27
ATOM     27  C   UNL     1       2.205   5.488  19.415  0.00  0.00    +0.000 A 
ATOM     28  C   UNL     1       1.702   4.893  20.569  0.00  0.00    +0.000 A 
ATOM     29  C   UNL     1       1.135   3.626  20.499  0.00  0.00    +0.000 A 
ATOM     30  C   UNL     1       1.068   2.963  19.273  0.00  0.00    +0.000 A 
ATOM     31  C   UNL     1       1.510   3.589  18.107  0.00  0.00    +0.000 A 
ATOM     32  C   UNL     1       2.052   4.874  18.180  0.00  0.00    +0.000 A 
ENDBRANCH  26  27
ENDBRANCH  23  26
ENDBRANCH  19  20
ENDBRANCH  17  19
TORSDOF 4
ENDMDL
MODEL 3
REMARK VINA RESULT:      -8.2      1.290      1.894
REMARK  Name = 
REMARK  4 active torsions:
REMARK  status: ('A' for Active; 'I' for Inactive)
REMARK    1  A    between atoms: N_17  and  C_18
REMARK    2  A    between atoms: C_18  and  C_19
REMARK    3  A    between atoms: C_22  and  O_23
REMARK    4  A    between atoms: O_23  and  C_24
REMARK                            x       y       z     vdW  Elec       q    Type
REMARK                         _______ _______ _______ _____ _____    ______ ____
ROOT
ATOM      1  O   UNL     1      -3.484  10.972  16.897  0.00  0.00    +0.000 OA
ATOM      2  C   UNL     1      -2.598  11.391  17.622  0.00  0.00    +0.000 C 
ATOM      3  C   UNL     1      -2.578  11.263  19.120  0.00  0.00    +0.000 C 
ATOM      4  C   UNL     1      -1.327  12.041  19.553  0.00  0.00    +0.000 C 
ATOM      5  C   UNL     1      -0.804  12.615  18.229  0.00  0.00    +0.000 C 
ATOM      6  O   UNL     1       0.081  13.445  18.077  0.00  0.00    +0.000 OA
ATOM      7  N   UNL     1      -1.514  12.085  17.203  0.00  0.00    +0.000 N 
ATOM      8  C   UNL     1      -1.648  13.154  20.545  0.00  0.00    +0.000 A 
ATOM      9  C   UNL     1      -2.702  14.061  20.550  0.00  0.00    +0.000 A 
ATOM     10  C   UNL     1      -2.842  14.945  21.635  0.00  0.00    +0.000 A 
ATOM     11  C   UNL     1      -1.924  14.955  22.698  0.00  0.00    +0.000 A 
ATOM     12  C   UNL     1      -0.849  14.085  22.679  0.00  0.00    +0.000 A 
ATOM     13  C   UNL     1      -0.756  13.222  21.605  0.00  0.00    +0.000 A 
ATOM     14  S   UNL     1       0.423  11.974  21.525  0.00  0.00    +0.000 S 
ATOM     15  O   UNL     1       1.697  12.585  21.228  0.00  0.00    +0.000 OA
ATOM     16  O   UNL     1       0.188  11.123  22.670  0.00  0.00    +0.000 OA
ATOM     17  N   UNL     1      -0.182  11.204  20.132  0.00  0.00    +0.000 NA
ATOM     18  H   UNL     1      -1.368  12.350  16.239  0.00  0.00    +0.000 HD
ENDROOT
BRANCH  17  19
ATOM     19  C   UNL     1      -0.242   9.724  20.156  0.00  0.00    +0.000 C 
BRANCH  19  20
ATOM     20  C   UNL     1       0.874   8.945  19.462  0.00  0.00    +0.000 A 
ATOM     21  C   UNL     1       1.372   9.248  18.187  0.00  0.00    +0.000 A 
ATOM     22  C   UNL     1       2.312   8.459  17.537  0.00  0.00    +0.000 A 
ATOM     23  C   UNL     1       2.847   7.366  18.186  0.00  0.00    +0.000 A 
ATOM     24  C   UNL     1       2.448   7.076  19.493  0.00  0.00    +0.000 A 
ATOM     25  C   UNL     1       1.486   7.872  20.135  0.00  0.00    +0.000 A 
BRANCH  23  26
ATOM     26  O   UNL     1       3.712   6.630  17.422  0.00  0.00    +0.000 OA
BRANCH  26  27
ATOM     27  C   UNL     1       4.990   6.452  17.869  0.00  0.00    +0.000 A 
ATOM     28  C   UNL     1       5.971   7.220  17.246  0.00  0.00    +0.000 A 
ATOM     29  C   UNL     1       7.305   7.046  17.592  0.00  0.00    +0.000 A 
ATOM     30  C   UNL     1       7.652   6.108  18.566  0.00  0.00    +0.000 A 
ATOM     31  C   UNL     1       6.663   5.390  19.238  0.00  0.00    +0.000 A 
ATOM     32  C   UNL     1       5.322   5.590  18.905  0.00  0.00    +0.000 A 
ENDBRANCH  26  27
ENDBRANCH  23  26
ENDBRANCH  19  20
ENDBRANCH  17  19
TORSDOF 4
ENDMDL
MODEL 4
REMARK VINA RESULT:      -8.2      2.344      3.443
REMARK  Name = 
REMARK  4 active torsions:
REMARK  status: ('A' for Active; 'I' for Inactive)
REMARK    1  A    between atoms: N_17  and  C_18
REMARK    2  A    between atoms: C_18  and  C_19
REMARK    3  A    between atoms: C_22  and  O_23
REMARK    4  A    between atoms: O_23  and  C_24
REMARK                            x       y       z     vdW  Elec       q    Type
REMARK                         _______ _______ _______ _____ _____    ______ ____
ROOT
ATOM      1  O   UNL     1       4.144  14.413  18.043  0.00  0.00    +0.000 OA
ATOM      2  C   UNL     1       3.200  14.115  18.753  0.00  0.00    +0.000 C 
ATOM      3  C   UNL     1       1.759  14.125  18.322  0.00  0.00    +0.000 C 
ATOM      4  C   UNL     1       0.975  13.788  19.599  0.00  0.00    +0.000 C 
ATOM      5  C   UNL     1       2.076  13.706  20.666  0.00  0.00    +0.000 C 
ATOM      6  O   UNL     1       1.931  13.626  21.877  0.00  0.00    +0.000 OA
ATOM      7  N   UNL     1       3.288  13.777  20.061  0.00  0.00    +0.000 N 
ATOM      8  C   UNL     1      -0.051  14.860  19.951  0.00  0.00    +0.000 A 
ATOM      9  C   UNL     1       0.062  16.245  19.908  0.00  0.00    +0.000 A 
ATOM     10  C   UNL     1      -1.066  17.036  20.192  0.00  0.00    +0.000 A 
ATOM     11  C   UNL     1      -2.295  16.459  20.552  0.00  0.00    +0.000 A 
ATOM     12  C   UNL     1      -2.404  15.084  20.639  0.00  0.00    +0.000 A 
ATOM     13  C   UNL     1      -1.279  14.342  20.336  0.00  0.00    +0.000 A 
ATOM     14  S   UNL     1      -1.305  12.627  20.236  0.00  0.00    +0.000 S 
ATOM     15  O   UNL     1      -1.366  12.104  21.580  0.00  0.00    +0.000 OA
ATOM     16  O   UNL     1      -2.261  12.297  19.201  0.00  0.00    +0.000 OA
ATOM     17  N   UNL     1       0.268  12.430  19.615  0.00  0.00    +0.000 NA
ATOM     18  H   UNL     1       4.158  13.782  20.575  0.00  0.00    +0.000 HD
ENDROOT
BRANCH  17  19
ATOM     19  C   UNL     1       0.437  11.457  18.510  0.00  0.00    +0.000 C 
BRANCH  19  20
ATOM     20  C   UNL     1       1.013  10.082  18.841  0.00  0.00    +0.000 A 
ATOM     21  C   UNL     1       0.929   9.475  20.102  0.00  0.00    +0.000 A 
ATOM     22  C   UNL     1       1.553   8.271  20.402  0.00  0.00    +0.000 A 
ATOM     23  C   UNL     1       2.230   7.590  19.412  0.00  0.00    +0.000 A 
ATOM     24  C   UNL     1       2.265   8.112  18.117  0.00  0.00    +0.000 A 
ATOM     25  C   UNL     1       1.642   9.336  17.827  0.00  0.00    +0.000 A 
BRANCH  23  26
ATOM     26  O   UNL     1       2.857   6.453  19.843  0.00  0.00    +0.000 OA
BRANCH  26  27
ATOM     27  C   UNL     1       2.217   5.256  19.695  0.00  0.00    +0.000 A 
ATOM     28  C   UNL     1       2.163   4.745  18.401  0.00  0.00    +0.000 A 
ATOM     29  C   UNL     1       1.467   3.568  18.153  0.00  0.00    +0.000 A 
ATOM     30  C   UNL     1       0.833   2.903  19.204  0.00  0.00    +0.000 A 
ATOM     31  C   UNL     1       0.946   3.379  20.510  0.00  0.00    +0.000 A 
ATOM     32  C   UNL     1       1.671   4.547  20.756  0.00  0.00    +0.000 A 
ENDBRANCH  26  27
ENDBRANCH  23  26
ENDBRANCH  19  20
ENDBRANCH  17  19
TORSDOF 4
ENDMDL
MODEL 5
REMARK VINA RESULT:      -7.8      1.348      1.834
REMARK  Name = 
REMARK  4 active torsions:
REMARK  status: ('A' for Active; 'I' for Inactive)
REMARK    1  A    between atoms: N_17  and  C_18
REMARK    2  A    between atoms: C_18  and  C_19
REMARK    3  A    between atoms: C_22  and  O_23
REMARK    4  A    between atoms: O_23  and  C_24
REMARK                            x       y       z     vdW  Elec       q    Type
REMARK                         _______ _______ _______ _____ _____    ______ ____
ROOT
ATOM      1  O   UNL     1      -3.702  11.402  17.737  0.00  0.00    +0.000 OA
ATOM      2  C   UNL     1      -2.815  11.961  18.358  0.00  0.00    +0.000 C 
ATOM      3  C   UNL     1      -2.900  12.374  19.802  0.00  0.00    +0.000 C 
ATOM      4  C   UNL     1      -1.587  13.127  20.062  0.00  0.00    +0.000 C 
ATOM      5  C   UNL     1      -0.917  13.138  18.681  0.00  0.00    +0.000 C 
ATOM      6  O   UNL     1       0.073  13.767  18.341  0.00  0.00    +0.000 OA
ATOM      7  N   UNL     1      -1.628  12.350  17.836  0.00  0.00    +0.000 N 
ATOM      8  C   UNL     1      -1.821  14.546  20.569  0.00  0.00    +0.000 A 
ATOM      9  C   UNL     1      -2.749  15.495  20.154  0.00  0.00    +0.000 A 
ATOM     10  C   UNL     1      -2.839  16.716  20.846  0.00  0.00    +0.000 A 
ATOM     11  C   UNL     1      -1.992  17.012  21.926  0.00  0.00    +0.000 A 
ATOM     12  C   UNL     1      -1.038  16.091  22.318  0.00  0.00    +0.000 A 
ATOM     13  C   UNL     1      -0.992  14.898  21.624  0.00  0.00    +0.000 A 
ATOM     14  S   UNL     1       0.020  13.593  22.100  0.00  0.00    +0.000 S 
ATOM     15  O   UNL     1       1.376  13.929  21.740  0.00  0.00    +0.000 OA
ATOM     16  O   UNL     1      -0.390  13.232  23.440  0.00  0.00    +0.000 OA
ATOM     17  N   UNL     1      -0.596  12.442  21.007  0.00  0.00    +0.000 NA
ATOM     18  H   UNL     1      -1.392  12.239  16.860  0.00  0.00    +0.000 HD
ENDROOT
BRANCH  17  19
ATOM     19  C   UNL     1      -0.845  11.080  21.536  0.00  0.00    +0.000 C 
BRANCH  19  20
ATOM     20  C   UNL     1       0.019   9.934  21.015  0.00  0.00    +0.000 A 
ATOM     21  C   UNL     1       0.311   8.773  21.745  0.00  0.00    +0.000 A 
ATOM     22  C   UNL     1       1.185   7.795  21.288  0.00  0.00    +0.000 A 
ATOM     23  C   UNL     1       1.745   7.915  20.034  0.00  0.00    +0.000 A 
ATOM     24  C   UNL     1       1.413   9.011  19.233  0.00  0.00    +0.000 A 
ATOM     25  C   UNL     1       0.539  10.001  19.709  0.00  0.00    +0.000 A 
BRANCH  23  26
ATOM     26  O   UNL     1       2.638   6.927  19.722  0.00  0.00    +0.000 OA
BRANCH  26  27
ATOM     27  C   UNL     1       2.173   5.654  19.551  0.00  0.00    +0.000 A 
ATOM     28  C   UNL     1       2.106   5.196  18.238  0.00  0.00    +0.000 A 
ATOM     29  C   UNL     1       1.577   3.939  17.973  0.00  0.00    +0.000 A 
ATOM     30  C   UNL     1       1.122   3.142  19.026  0.00  0.00    +0.000 A 
ATOM     31  C   UNL     1       1.253   3.575  20.345  0.00  0.00    +0.000 A 
ATOM     32  C   UNL     1       1.812   4.828  20.606  0.00  0.00    +0.000 A 
ENDBRANCH  26  27
ENDBRANCH  23  26
ENDBRANCH  19  20
ENDBRANCH  17  19
TORSDOF 4
ENDMDL
MODEL 6
REMARK VINA RESULT:      -7.7      2.174      3.207
REMARK  Name = 
REMARK  4 active torsions:
REMARK  status: ('A' for Active; 'I' for Inactive)
REMARK    1  A    between atoms: N_17  and  C_18
REMARK    2  A    between atoms: C_18  and  C_19
REMARK    3  A    between atoms: C_22  and  O_23
REMARK    4  A    between atoms: O_23  and  C_24
REMARK                            x       y       z     vdW  Elec       q    Type
REMARK                         _______ _______ _______ _____ _____    ______ ____
ROOT
ATOM      1  O   UNL     1       2.819  12.916  17.897  0.00  0.00    +0.000 OA
ATOM      2  C   UNL     1       1.994  13.137  18.766  0.00  0.00    +0.000 C 
ATOM      3  C   UNL     1       0.558  13.507  18.518  0.00  0.00    +0.000 C 
ATOM      4  C   UNL     1      -0.012  13.786  19.916  0.00  0.00    +0.000 C 
ATOM      5  C   UNL     1       1.215  13.626  20.826  0.00  0.00    +0.000 C 
ATOM      6  O   UNL     1       1.303  13.913  22.011  0.00  0.00    +0.000 OA
ATOM      7  N   UNL     1       2.248  13.138  20.096  0.00  0.00    +0.000 N 
ATOM      8  C   UNL     1      -0.603  15.187  20.034  0.00  0.00    +0.000 A 
ATOM      9  C   UNL     1      -0.118  16.398  19.553  0.00  0.00    +0.000 A 
ATOM     10  C   UNL     1      -0.897  17.559  19.706  0.00  0.00    +0.000 A 
ATOM     11  C   UNL     1      -2.139  17.530  20.362  0.00  0.00    +0.000 A 
ATOM     12  C   UNL     1      -2.608  16.338  20.881  0.00  0.00    +0.000 A 
ATOM     13  C   UNL     1      -1.822  15.217  20.696  0.00  0.00    +0.000 A 
ATOM     14  S   UNL     1      -2.347  13.640  21.134  0.00  0.00    +0.000 S 
ATOM     15  O   UNL     1      -2.277  13.531  22.571  0.00  0.00    +0.000 OA
ATOM     16  O   UNL     1      -3.546  13.387  20.366  0.00  0.00    +0.000 OA
ATOM     17  N   UNL     1      -1.052  12.787  20.430  0.00  0.00    +0.000 NA
ATOM     18  H   UNL     1       3.170  12.990  20.481  0.00  0.00    +0.000 HD
ENDROOT
BRANCH  17  19
ATOM     19  C   UNL     1      -1.391  11.562  19.668  0.00  0.00    +0.000 C 
BRANCH  19  20
ATOM     20  C   UNL     1      -0.413  10.390  19.712  0.00  0.00    +0.000 A 
ATOM     21  C   UNL     1      -0.165   9.613  20.853  0.00  0.00    +0.000 A 
ATOM     22  C   UNL     1       0.807   8.622  20.893  0.00  0.00    +0.000 A 
ATOM     23  C   UNL     1       1.521   8.323  19.752  0.00  0.00    +0.000 A 
ATOM     24  C   UNL     1       1.247   9.009  18.567  0.00  0.00    +0.000 A 
ATOM     25  C   UNL     1       0.272  10.019  18.540  0.00  0.00    +0.000 A 
BRANCH  23  26
ATOM     26  O   UNL     1       2.493   7.377  19.932  0.00  0.00    +0.000 OA
BRANCH  26  27
ATOM     27  C   UNL     1       2.201   6.075  19.642  0.00  0.00    +0.000 A 
ATOM     28  C   UNL     1       2.453   5.666  18.335  0.00  0.00    +0.000 A 
ATOM     29  C   UNL     1       2.116   4.377  17.939  0.00  0.00    +0.000 A 
ATOM     30  C   UNL     1       1.534   3.500  18.856  0.00  0.00    +0.000 A 
ATOM     31  C   UNL     1       1.347   3.889  20.183  0.00  0.00    +0.000 A 
ATOM     32  C   UNL     1       1.714   5.176  20.581  0.00  0.00    +0.000 A 
ENDBRANCH  26  27
ENDBRANCH  23  26
ENDBRANCH  19  20
ENDBRANCH  17  19
TORSDOF 4
ENDMDL
MODEL 7
REMARK VINA RESULT:      -7.6      1.988      2.895
REMARK  Name = 
REMARK  4 active torsions:
REMARK  status: ('A' for Active; 'I' for Inactive)
REMARK    1  A    between atoms: N_17  and  C_18
REMARK    2  A    between atoms: C_18  and  C_19
REMARK    3  A    between atoms: C_22  and  O_23
REMARK    4  A    between atoms: O_23  and  C_24
REMARK                            x       y       z     vdW  Elec       q    Type
REMARK                         _______ _______ _______ _____ _____    ______ ____
ROOT
ATOM      1  O   UNL     1       2.647  14.820  17.354  0.00  0.00    +0.000 OA
ATOM      2  C   UNL     1       2.261  14.289  18.380  0.00  0.00    +0.000 C 
ATOM      3  C   UNL     1       0.827  13.961  18.696  0.00  0.00    +0.000 C 
ATOM      4  C   UNL     1       0.866  13.419  20.132  0.00  0.00    +0.000 C 
ATOM      5  C   UNL     1       2.343  13.581  20.521  0.00  0.00    +0.000 C 
ATOM      6  O   UNL     1       2.838  13.443  21.630  0.00  0.00    +0.000 OA
ATOM      7  N   UNL     1       3.052  13.955  19.427  0.00  0.00    +0.000 N 
ATOM      8  C   UNL     1      -0.039  14.204  21.075  0.00  0.00    +0.000 A 
ATOM      9  C   UNL     1      -0.241  15.576  21.174  0.00  0.00    +0.000 A 
ATOM     10  C   UNL     1      -1.209  16.066  22.068  0.00  0.00    +0.000 A 
ATOM     11  C   UNL     1      -1.955  15.203  22.888  0.00  0.00    +0.000 A 
ATOM     12  C   UNL     1      -1.730  13.840  22.827  0.00  0.00    +0.000 A 
ATOM     13  C   UNL     1      -0.782  13.398  21.924  0.00  0.00    +0.000 A 
ATOM     14  S   UNL     1      -0.513  11.729  21.614  0.00  0.00    +0.000 S 
ATOM     15  O   UNL     1       0.207  11.179  22.737  0.00  0.00    +0.000 OA
ATOM     16  O   UNL     1      -1.769  11.201  21.128  0.00  0.00    +0.000 OA
ATOM     17  N   UNL     1       0.547  11.930  20.297  0.00  0.00    +0.000 NA
ATOM     18  H   UNL     1       4.041  14.158  19.457  0.00  0.00    +0.000 HD
ENDROOT
BRANCH  17  19
ATOM     19  C   UNL     1       0.335  11.050  19.124  0.00  0.00    +0.000 C 
BRANCH  19  20
ATOM     20  C   UNL     1       1.175   9.780  19.012  0.00  0.00    +0.000 A 
ATOM     21  C   UNL     1       1.881   9.401  17.862  0.00  0.00    +0.000 A 
ATOM     22  C   UNL     1       2.550   8.189  17.753  0.00  0.00    +0.000 A 
ATOM     23  C   UNL     1       2.596   7.337  18.837  0.00  0.00    +0.000 A 
ATOM     24  C   UNL     1       1.982   7.712  20.034  0.00  0.00    +0.000 A 
ATOM     25  C   UNL     1       1.297   8.934  20.130  0.00  0.00    +0.000 A 
BRANCH  23  26
ATOM     26  O   UNL     1       3.226   6.148  18.589  0.00  0.00    +0.000 OA
BRANCH  26  27
ATOM     27  C   UNL     1       2.585   4.987  18.915  0.00  0.00    +0.000 A 
ATOM     28  C   UNL     1       3.035   4.339  20.062  0.00  0.00    +0.000 A 
ATOM     29  C   UNL     1       2.485   3.115  20.422  0.00  0.00    +0.000 A 
ATOM     30  C   UNL     1       1.480   2.548  19.636  0.00  0.00    +0.000 A 
ATOM     31  C   UNL     1       0.982   3.231  18.527  0.00  0.00    +0.000 A 
ATOM     32  C   UNL     1       1.520   4.475  18.186  0.00  0.00    +0.000 A 
ENDBRANCH  26  27
ENDBRANCH  23  26
ENDBRANCH  19  20
ENDBRANCH  17  19
TORSDOF 4
ENDMDL
MODEL 8
REMARK VINA RESULT:      -7.6      1.879      3.181
REMARK  Name = 
REMARK  4 active torsions:
REMARK  status: ('A' for Active; 'I' for Inactive)
REMARK    1  A    between atoms: N_17  and  C_18
REMARK    2  A    between atoms: C_18  and  C_19
REMARK    3  A    between atoms: C_22  and  O_23
REMARK    4  A    between atoms: O_23  and  C_24
REMARK                            x       y       z     vdW  Elec       q    Type
REMARK                         _______ _______ _______ _____ _____    ______ ____
ROOT
ATOM      1  O   UNL     1       2.582  13.747  19.500  0.00  0.00    +0.000 OA
ATOM      2  C   UNL     1       1.515  13.591  20.069  0.00  0.00    +0.000 C 
ATOM      3  C   UNL     1       0.164  13.783  19.436  0.00  0.00    +0.000 C 
ATOM      4  C   UNL     1      -0.830  13.579  20.588  0.00  0.00    +0.000 C 
ATOM      5  C   UNL     1       0.087  13.374  21.802  0.00  0.00    +0.000 C 
ATOM      6  O   UNL     1      -0.236  13.339  22.980  0.00  0.00    +0.000 OA
ATOM      7  N   UNL     1       1.371  13.272  21.377  0.00  0.00    +0.000 N 
ATOM      8  C   UNL     1      -1.743  14.784  20.788  0.00  0.00    +0.000 A 
ATOM      9  C   UNL     1      -1.441  16.141  20.759  0.00  0.00    +0.000 A 
ATOM     10  C   UNL     1      -2.482  17.079  20.878  0.00  0.00    +0.000 A 
ATOM     11  C   UNL     1      -3.815  16.678  21.059  0.00  0.00    +0.000 A 
ATOM     12  C   UNL     1      -4.119  15.331  21.133  0.00  0.00    +0.000 A 
ATOM     13  C   UNL     1      -3.071  14.441  20.994  0.00  0.00    +0.000 A 
ATOM     14  S   UNL     1      -3.312  12.742  20.894  0.00  0.00    +0.000 S 
ATOM     15  O   UNL     1      -3.632  12.260  22.216  0.00  0.00    +0.000 OA
ATOM     16  O   UNL     1      -4.147  12.521  19.734  0.00  0.00    +0.000 OA
ATOM     17  N   UNL     1      -1.707  12.327  20.505  0.00  0.00    +0.000 NA
ATOM     18  H   UNL     1       2.152  13.173  22.009  0.00  0.00    +0.000 HD
ENDROOT
BRANCH  17  19
ATOM     19  C   UNL     1      -1.515  11.317  19.438  0.00  0.00    +0.000 C 
BRANCH  19  20
ATOM     20  C   UNL     1      -0.381  10.307  19.594  0.00  0.00    +0.000 A 
ATOM     21  C   UNL     1       0.556  10.012  18.594  0.00  0.00    +0.000 A 
ATOM     22  C   UNL     1       1.511   9.012  18.726  0.00  0.00    +0.000 A 
ATOM     23  C   UNL     1       1.607   8.316  19.912  0.00  0.00    +0.000 A 
ATOM     24  C   UNL     1       0.753   8.636  20.971  0.00  0.00    +0.000 A 
ATOM     25  C   UNL     1      -0.218   9.639  20.822  0.00  0.00    +0.000 A 
BRANCH  23  26
ATOM     26  O   UNL     1       2.539   7.315  19.900  0.00  0.00    +0.000 OA
BRANCH  26  27
ATOM     27  C   UNL     1       2.154   6.067  19.501  0.00  0.00    +0.000 A 
ATOM     28  C   UNL     1       1.548   5.273  20.471  0.00  0.00    +0.000 A 
ATOM     29  C   UNL     1       1.193   3.964  20.166  0.00  0.00    +0.000 A 
ATOM     30  C   UNL     1       1.440   3.458  18.889  0.00  0.00    +0.000 A 
ATOM     31  C   UNL     1       1.984   4.276  17.899  0.00  0.00    +0.000 A 
ATOM     32  C   UNL     1       2.312   5.599  18.204  0.00  0.00    +0.000 A 
ENDBRANCH  26  27
ENDBRANCH  23  26
ENDBRANCH  19  20
ENDBRANCH  17  19
TORSDOF 4
ENDMDL
MODEL 9
REMARK VINA RESULT:      -7.6      1.882      2.913
REMARK  Name = 
REMARK  4 active torsions:
REMARK  status: ('A' for Active; 'I' for Inactive)
REMARK    1  A    between atoms: N_17  and  C_18
REMARK    2  A    between atoms: C_18  and  C_19
REMARK    3  A    between atoms: C_22  and  O_23
REMARK    4  A    between atoms: O_23  and  C_24
REMARK                            x       y       z     vdW  Elec       q    Type
REMARK                         _______ _______ _______ _____ _____    ______ ____
ROOT
ATOM      1  O   UNL     1       2.868  13.165  17.838  0.00  0.00    +0.000 OA
ATOM      2  C   UNL     1       2.002  13.188  18.694  0.00  0.00    +0.000 C 
ATOM      3  C   UNL     1       0.536  13.400  18.432  0.00  0.00    +0.000 C 
ATOM      4  C   UNL     1      -0.098  13.456  19.829  0.00  0.00    +0.000 C 
ATOM      5  C   UNL     1       1.117  13.353  20.763  0.00  0.00    +0.000 C 
ATOM      6  O   UNL     1       1.140  13.521  21.973  0.00  0.00    +0.000 OA
ATOM      7  N   UNL     1       2.221  13.079  20.025  0.00  0.00    +0.000 N 
ATOM      8  C   UNL     1      -0.866  14.752  20.069  0.00  0.00    +0.000 A 
ATOM      9  C   UNL     1      -0.528  16.058  19.733  0.00  0.00    +0.000 A 
ATOM     10  C   UNL     1      -1.452  17.090  19.975  0.00  0.00    +0.000 A 
ATOM     11  C   UNL     1      -2.695  16.837  20.578  0.00  0.00    +0.000 A 
ATOM     12  C   UNL     1      -3.021  15.547  20.954  0.00  0.00    +0.000 A 
ATOM     13  C   UNL     1      -2.094  14.559  20.684  0.00  0.00    +0.000 A 
ATOM     14  S   UNL     1      -2.424  12.892  20.938  0.00  0.00    +0.000 S 
ATOM     15  O   UNL     1      -2.375  12.640  22.358  0.00  0.00    +0.000 OA
ATOM     16  O   UNL     1      -3.562  12.574  20.104  0.00  0.00    +0.000 OA
ATOM     17  N   UNL     1      -1.014  12.286  20.199  0.00  0.00    +0.000 NA
ATOM     18  H   UNL     1       3.145  13.006  20.427  0.00  0.00    +0.000 HD
ENDROOT
BRANCH  17  19
ATOM     19  C   UNL     1      -1.176  11.117  19.303  0.00  0.00    +0.000 C 
BRANCH  19  20
ATOM     20  C   UNL     1      -0.123  10.012  19.360  0.00  0.00    +0.000 A 
ATOM     21  C   UNL     1       0.192   9.283  20.516  0.00  0.00    +0.000 A 
ATOM     22  C   UNL     1       1.227   8.358  20.565  0.00  0.00    +0.000 A 
ATOM     23  C   UNL     1       1.941   8.076  19.420  0.00  0.00    +0.000 A 
ATOM     24  C   UNL     1       1.605   8.711  18.222  0.00  0.00    +0.000 A 
ATOM     25  C   UNL     1       0.566   9.655  18.186  0.00  0.00    +0.000 A 
BRANCH  23  26
ATOM     26  O   UNL     1       2.976   7.199  19.607  0.00  0.00    +0.000 OA
BRANCH  26  27
ATOM     27  C   UNL     1       3.099   6.141  18.753  0.00  0.00    +0.000 A 
ATOM     28  C   UNL     1       2.118   5.157  18.849  0.00  0.00    +0.000 A 
ATOM     29  C   UNL     1       2.212   4.013  18.066  0.00  0.00    +0.000 A 
ATOM     30  C   UNL     1       3.284   3.861  17.184  0.00  0.00    +0.000 A 
ATOM     31  C   UNL     1       4.227   4.878  17.040  0.00  0.00    +0.000 A 
ATOM     32  C   UNL     1       4.112   6.038  17.809  0.00  0.00    +0.000 A 
ENDBRANCH  26  27
ENDBRANCH  23  26
ENDBRANCH  19  20
ENDBRANCH  17  19
TORSDOF 4
ENDMDL
