MODEL 1
REMARK VINA RESULT:      -7.6      0.000      0.000
REMARK  Name = 
REMARK  16 active torsions:
REMARK  status: ('A' for Active; 'I' for Inactive)
REMARK    1  A    between atoms: C_8  and  C_9
REMARK    2  A    between atoms: C_10  and  C_11
REMARK    3  A    between atoms: C_11  and  C_12
REMARK    4  A    between atoms: C_11  and  C_13
REMARK    5  A    between atoms: C_13  and  C_14
REMARK    6  A    between atoms: C_14  and  C_15
REMARK    7  A    between atoms: C_15  and  O_16
REMARK    8  A    between atoms: O_16  and  C_17
REMARK    9  A    between atoms: C_17  and  C_18
REMARK   10  A    between atoms: C_20  and  O_21
REMARK   11  A    between atoms: O_21  and  C_22
REMARK   12  A    between atoms: C_22  and  C_24
REMARK   13  A    between atoms: C_24  and  O_25
REMARK   14  A    between atoms: O_25  and  C_26
REMARK   15  A    between atoms: C_29  and  C_30
REMARK   16  A    between atoms: C_30  and  C_31
REMARK                            x       y       z     vdW  Elec       q    Type
REMARK                         _______ _______ _______ _____ _____    ______ ____
ROOT
ATOM      1  C   UNL     1       2.321   4.371  21.023  0.00  0.00    +0.000 C 
ATOM      2  C   UNL     1       1.847   4.308  19.775  0.00  0.00    +0.000 C 
ATOM      3  C   UNL     1       1.093   3.130  19.287  0.00  0.00    +0.000 C 
ATOM      4  O   UNL     1       0.615   2.241  19.964  0.00  0.00    +0.000 OA
ATOM      5  O   UNL     1       1.004   3.240  17.935  0.00  0.00    +0.000 OA
ATOM      6  C   UNL     1       1.866   4.299  17.478  0.00  0.00    +0.000 C 
ATOM      7  C   UNL     1       3.210   3.708  17.051  0.00  0.00    +0.000 C 
ATOM      8  C   UNL     1       4.450   4.543  17.294  0.00  0.00    +0.000 C 
ATOM      9  C   UNL     1       5.680   3.944  16.654  0.00  0.00    +0.000 C 
ATOM     10  C   UNL     1       4.449   5.689  18.021  0.00  0.00    +0.000 C 
ATOM     11  C   UNL     1       3.143   6.231  18.586  0.00  0.00    +0.000 C 
ATOM     12  C   UNL     1       1.940   5.272  18.639  0.00  0.00    +0.000 C 
ENDROOT
BRANCH  10  13
ATOM     13  C   UNL     1       5.742   6.458  18.386  0.00  0.00    +0.000 C 
ATOM     14  C   UNL     1       6.731   5.599  19.189  0.00  0.00    +0.000 C 
BRANCH  13  15
ATOM     15  C   UNL     1       6.521   7.058  17.184  0.00  0.00    +0.000 C 
BRANCH  15  16
ATOM     16  C   UNL     1       7.947   7.531  17.471  0.00  0.00    +0.000 C 
BRANCH  16  17
ATOM     17  C   UNL     1       7.945   9.028  17.803  0.00  0.00    +0.000 C 
BRANCH  17  18
ATOM     18  O   UNL     1       8.823   9.310  18.902  0.00  0.00    +0.000 OA
BRANCH  18  19
ATOM     19  C   UNL     1       9.386  10.547  18.895  0.00  0.00    +0.000 C 
ATOM     20  C   UNL     1       9.581  11.058  20.291  0.00  0.00    +0.000 C 
ATOM     21  O   UNL     1       9.694  11.178  17.894  0.00  0.00    +0.000 OA
ENDBRANCH  18  19
ENDBRANCH  17  18
ENDBRANCH  16  17
ENDBRANCH  15  16
ENDBRANCH  13  15
ENDBRANCH  10  13
BRANCH  11  22
ATOM     22  O   UNL     1       2.803   7.520  18.021  0.00  0.00    +0.000 OA
BRANCH  22  23
ATOM     23  C   UNL     1       2.012   8.386  18.703  0.00  0.00    +0.000 C 
ATOM     24  O   UNL     1       1.754   8.332  19.895  0.00  0.00    +0.000 OA
BRANCH  23  25
ATOM     25  C   UNL     1       1.611   9.519  17.784  0.00  0.00    +0.000 C 
BRANCH  25  26
ATOM     26  O   UNL     1       2.354  10.655  18.166  0.00  0.00    +0.000 OA
BRANCH  26  27
ATOM     27  C   UNL     1       1.611  11.730  18.549  0.00  0.00    +0.000 A 
ATOM     28  C   UNL     1       2.205  12.960  18.281  0.00  0.00    +0.000 A 
ATOM     29  C   UNL     1       1.538  14.150  18.578  0.00  0.00    +0.000 A 
ATOM     30  C   UNL     1       0.258  14.115  19.137  0.00  0.00    +0.000 A 
ATOM     31  C   UNL     1      -0.333  12.870  19.409  0.00  0.00    +0.000 A 
ATOM     32  C   UNL     1       0.336  11.679  19.114  0.00  0.00    +0.000 A 
BRANCH  30  33
ATOM     33  C   UNL     1      -0.539  15.339  19.444  0.00  0.00    +0.000 C 
ATOM     34  C   UNL     1      -0.168  16.676  18.857  0.00  0.00    +0.000 C 
ATOM     35  O   UNL     1      -1.523  15.246  20.179  0.00  0.00    +0.000 OA
ENDBRANCH  30  33
ENDBRANCH  26  27
ENDBRANCH  25  26
ENDBRANCH  23  25
ENDBRANCH  22  23
ENDBRANCH  11  22
TORSDOF 12
ENDMDL
MODEL 2
REMARK VINA RESULT:      -7.6      2.871      8.532
REMARK  Name = 
REMARK  16 active torsions:
REMARK  status: ('A' for Active; 'I' for Inactive)
REMARK    1  A    between atoms: C_8  and  C_9
REMARK    2  A    between atoms: C_10  and  C_11
REMARK    3  A    between atoms: C_11  and  C_12
REMARK    4  A    between atoms: C_11  and  C_13
REMARK    5  A    between atoms: C_13  and  C_14
REMARK    6  A    between atoms: C_14  and  C_15
REMARK    7  A    between atoms: C_15  and  O_16
REMARK    8  A    between atoms: O_16  and  C_17
REMARK    9  A    between atoms: C_17  and  C_18
REMARK   10  A    between atoms: C_20  and  O_21
REMARK   11  A    between atoms: O_21  and  C_22
REMARK   12  A    between atoms: C_22  and  C_24
REMARK   13  A    between atoms: C_24  and  O_25
REMARK   14  A    between atoms: O_25  and  C_26
REMARK   15  A    between atoms: C_29  and  C_30
REMARK   16  A    between atoms: C_30  and  C_31
REMARK                            x       y       z     vdW  Elec       q    Type
REMARK                         _______ _______ _______ _____ _____    ______ ____
ROOT
ATOM      1  C   UNL     1       2.670   3.213  17.123  0.00  0.00    +0.000 C 
ATOM      2  C   UNL     1       2.995   3.184  18.419  0.00  0.00    +0.000 C 
ATOM      3  C   UNL     1       2.412   2.186  19.345  0.00  0.00    +0.000 C 
ATOM      4  O   UNL     1       1.806   1.177  19.041  0.00  0.00    +0.000 OA
ATOM      5  O   UNL     1       2.707   2.589  20.610  0.00  0.00    +0.000 OA
ATOM      6  C   UNL     1       3.243   3.925  20.578  0.00  0.00    +0.000 C 
ATOM      7  C   UNL     1       2.116   4.927  20.833  0.00  0.00    +0.000 C 
ATOM      8  C   UNL     1       2.191   6.260  20.116  0.00  0.00    +0.000 C 
ATOM      9  C   UNL     1       1.139   7.230  20.597  0.00  0.00    +0.000 C 
ATOM     10  C   UNL     1       3.093   6.534  19.140  0.00  0.00    +0.000 C 
ATOM     11  C   UNL     1       4.143   5.498  18.761  0.00  0.00    +0.000 C 
ATOM     12  C   UNL     1       3.910   4.048  19.223  0.00  0.00    +0.000 C 
ENDROOT
BRANCH  10  13
ATOM     13  C   UNL     1       3.071   7.843  18.313  0.00  0.00    +0.000 C 
ATOM     14  C   UNL     1       3.775   7.693  16.955  0.00  0.00    +0.000 C 
BRANCH  13  15
ATOM     15  C   UNL     1       1.661   8.434  18.041  0.00  0.00    +0.000 C 
BRANCH  15  16
ATOM     16  C   UNL     1       1.544   9.958  18.098  0.00  0.00    +0.000 C 
BRANCH  16  17
ATOM     17  C   UNL     1       0.113  10.359  18.475  0.00  0.00    +0.000 C 
BRANCH  17  18
ATOM     18  O   UNL     1       0.095  11.637  19.128  0.00  0.00    +0.000 OA
BRANCH  18  19
ATOM     19  C   UNL     1      -1.121  12.039  19.585  0.00  0.00    +0.000 C 
ATOM     20  C   UNL     1      -2.226  11.463  18.752  0.00  0.00    +0.000 C 
ATOM     21  O   UNL     1      -1.308  12.775  20.543  0.00  0.00    +0.000 OA
ENDBRANCH  18  19
ENDBRANCH  17  18
ENDBRANCH  16  17
ENDBRANCH  15  16
ENDBRANCH  13  15
ENDBRANCH  10  13
BRANCH  11  22
ATOM     22  O   UNL     1       5.486   5.962  19.040  0.00  0.00    +0.000 OA
BRANCH  22  23
ATOM     23  C   UNL     1       6.551   5.417  18.401  0.00  0.00    +0.000 C 
ATOM     24  O   UNL     1       7.109   4.373  18.701  0.00  0.00    +0.000 OA
BRANCH  23  25
ATOM     25  C   UNL     1       6.857   6.233  17.164  0.00  0.00    +0.000 C 
BRANCH  25  26
ATOM     26  O   UNL     1       7.649   5.432  16.315  0.00  0.00    +0.000 OA
BRANCH  26  27
ATOM     27  C   UNL     1       6.980   4.845  15.284  0.00  0.00    +0.000 A 
ATOM     28  C   UNL     1       7.560   5.050  14.036  0.00  0.00    +0.000 A 
ATOM     29  C   UNL     1       7.008   4.470  12.893  0.00  0.00    +0.000 A 
ATOM     30  C   UNL     1       5.872   3.663  12.995  0.00  0.00    +0.000 A 
ATOM     31  C   UNL     1       5.290   3.463  14.258  0.00  0.00    +0.000 A 
ATOM     32  C   UNL     1       5.840   4.047  15.401  0.00  0.00    +0.000 A 
BRANCH  30  33
ATOM     33  C   UNL     1       5.246   2.970  11.830  0.00  0.00    +0.000 C 
ATOM     34  C   UNL     1       5.827   1.693  11.282  0.00  0.00    +0.000 C 
ATOM     35  O   UNL     1       4.232   3.449  11.320  0.00  0.00    +0.000 OA
ENDBRANCH  30  33
ENDBRANCH  26  27
ENDBRANCH  25  26
ENDBRANCH  23  25
ENDBRANCH  22  23
ENDBRANCH  11  22
TORSDOF 12
ENDMDL
MODEL 3
REMARK VINA RESULT:      -7.4      2.933      8.485
REMARK  Name = 
REMARK  16 active torsions:
REMARK  status: ('A' for Active; 'I' for Inactive)
REMARK    1  A    between atoms: C_8  and  C_9
REMARK    2  A    between atoms: C_10  and  C_11
REMARK    3  A    between atoms: C_11  and  C_12
REMARK    4  A    between atoms: C_11  and  C_13
REMARK    5  A    between atoms: C_13  and  C_14
REMARK    6  A    between atoms: C_14  and  C_15
REMARK    7  A    between atoms: C_15  and  O_16
REMARK    8  A    between atoms: O_16  and  C_17
REMARK    9  A    between atoms: C_17  and  C_18
REMARK   10  A    between atoms: C_20  and  O_21
REMARK   11  A    between atoms: O_21  and  C_22
REMARK   12  A    between atoms: C_22  and  C_24
REMARK   13  A    between atoms: C_24  and  O_25
REMARK   14  A    between atoms: O_25  and  C_26
REMARK   15  A    between atoms: C_29  and  C_30
REMARK   16  A    between atoms: C_30  and  C_31
REMARK                            x       y       z     vdW  Elec       q    Type
REMARK                         _______ _______ _______ _____ _____    ______ ____
ROOT
ATOM      1  C   UNL     1       2.041   3.668  17.155  0.00  0.00    +0.000 C 
ATOM      2  C   UNL     1       2.436   3.471  18.417  0.00  0.00    +0.000 C 
ATOM      3  C   UNL     1       1.849   2.401  19.257  0.00  0.00    +0.000 C 
ATOM      4  O   UNL     1       1.171   1.468  18.878  0.00  0.00    +0.000 OA
ATOM      5  O   UNL     1       2.236   2.638  20.539  0.00  0.00    +0.000 OA
ATOM      6  C   UNL     1       2.845   3.940  20.627  0.00  0.00    +0.000 C 
ATOM      7  C   UNL     1       1.793   4.961  21.064  0.00  0.00    +0.000 C 
ATOM      8  C   UNL     1       1.905   6.363  20.500  0.00  0.00    +0.000 C 
ATOM      9  C   UNL     1       0.938   7.321  21.154  0.00  0.00    +0.000 C 
ATOM     10  C   UNL     1       2.765   6.704  19.508  0.00  0.00    +0.000 C 
ATOM     11  C   UNL     1       3.731   5.669  18.949  0.00  0.00    +0.000 C 
ATOM     12  C   UNL     1       3.442   4.188  19.256  0.00  0.00    +0.000 C 
ENDROOT
BRANCH  10  13
ATOM     13  C   UNL     1       2.772   8.101  18.839  0.00  0.00    +0.000 C 
ATOM     14  C   UNL     1       2.843   8.018  17.306  0.00  0.00    +0.000 C 
BRANCH  13  15
ATOM     15  C   UNL     1       1.570   9.015  19.198  0.00  0.00    +0.000 C 
BRANCH  15  16
ATOM     16  C   UNL     1       0.738   9.530  18.022  0.00  0.00    +0.000 C 
BRANCH  16  17
ATOM     17  C   UNL     1      -0.003  10.810  18.427  0.00  0.00    +0.000 C 
BRANCH  17  18
ATOM     18  O   UNL     1      -0.231  10.843  19.843  0.00  0.00    +0.000 OA
BRANCH  18  19
ATOM     19  C   UNL     1      -1.248  11.649  20.250  0.00  0.00    +0.000 C 
ATOM     20  C   UNL     1      -1.155  11.934  21.719  0.00  0.00    +0.000 C 
ATOM     21  O   UNL     1      -2.133  12.089  19.530  0.00  0.00    +0.000 OA
ENDBRANCH  18  19
ENDBRANCH  17  18
ENDBRANCH  16  17
ENDBRANCH  15  16
ENDBRANCH  13  15
ENDBRANCH  10  13
BRANCH  11  22
ATOM     22  O   UNL     1       5.112   6.028  19.196  0.00  0.00    +0.000 OA
BRANCH  22  23
ATOM     23  C   UNL     1       6.102   5.555  18.398  0.00  0.00    +0.000 C 
ATOM     24  O   UNL     1       6.727   4.520  18.571  0.00  0.00    +0.000 OA
BRANCH  23  25
ATOM     25  C   UNL     1       6.217   6.437  17.175  0.00  0.00    +0.000 C 
BRANCH  25  26
ATOM     26  O   UNL     1       7.155   5.837  16.310  0.00  0.00    +0.000 OA
BRANCH  26  27
ATOM     27  C   UNL     1       6.620   5.160  15.257  0.00  0.00    +0.000 A 
ATOM     28  C   UNL     1       7.470   5.042  14.161  0.00  0.00    +0.000 A 
ATOM     29  C   UNL     1       7.072   4.333  13.026  0.00  0.00    +0.000 A 
ATOM     30  C   UNL     1       5.815   3.723  12.986  0.00  0.00    +0.000 A 
ATOM     31  C   UNL     1       4.961   3.850  14.095  0.00  0.00    +0.000 A 
ATOM     32  C   UNL     1       5.359   4.562  15.229  0.00  0.00    +0.000 A 
BRANCH  30  33
ATOM     33  C   UNL     1       5.330   2.912  11.831  0.00  0.00    +0.000 C 
ATOM     34  C   UNL     1       4.045   3.256  11.125  0.00  0.00    +0.000 C 
ATOM     35  O   UNL     1       6.003   1.955  11.445  0.00  0.00    +0.000 OA
ENDBRANCH  30  33
ENDBRANCH  26  27
ENDBRANCH  25  26
ENDBRANCH  23  25
ENDBRANCH  22  23
ENDBRANCH  11  22
TORSDOF 12
ENDMDL
MODEL 4
REMARK VINA RESULT:      -7.3      3.700     10.221
REMARK  Name = 
REMARK  16 active torsions:
REMARK  status: ('A' for Active; 'I' for Inactive)
REMARK    1  A    between atoms: C_8  and  C_9
REMARK    2  A    between atoms: C_10  and  C_11
REMARK    3  A    between atoms: C_11  and  C_12
REMARK    4  A    between atoms: C_11  and  C_13
REMARK    5  A    between atoms: C_13  and  C_14
REMARK    6  A    between atoms: C_14  and  C_15
REMARK    7  A    between atoms: C_15  and  O_16
REMARK    8  A    between atoms: O_16  and  C_17
REMARK    9  A    between atoms: C_17  and  C_18
REMARK   10  A    between atoms: C_20  and  O_21
REMARK   11  A    between atoms: O_21  and  C_22
REMARK   12  A    between atoms: C_22  and  C_24
REMARK   13  A    between atoms: C_24  and  O_25
REMARK   14  A    between atoms: O_25  and  C_26
REMARK   15  A    between atoms: C_29  and  C_30
REMARK   16  A    between atoms: C_30  and  C_31
REMARK                            x       y       z     vdW  Elec       q    Type
REMARK                         _______ _______ _______ _____ _____    ______ ____
ROOT
ATOM      1  C   UNL     1      -3.586  12.576  22.481  0.00  0.00    +0.000 C 
ATOM      2  C   UNL     1      -2.475  13.167  22.932  0.00  0.00    +0.000 C 
ATOM      3  C   UNL     1      -2.526  14.425  23.713  0.00  0.00    +0.000 C 
ATOM      4  O   UNL     1      -3.507  14.921  24.231  0.00  0.00    +0.000 OA
ATOM      5  O   UNL     1      -1.259  14.914  23.773  0.00  0.00    +0.000 OA
ATOM      6  C   UNL     1      -0.413  14.177  22.869  0.00  0.00    +0.000 C 
ATOM      7  C   UNL     1      -0.328  14.922  21.537  0.00  0.00    +0.000 C 
ATOM      8  C   UNL     1      -0.221  14.088  20.276  0.00  0.00    +0.000 C 
ATOM      9  C   UNL     1       0.056  14.930  19.054  0.00  0.00    +0.000 C 
ATOM     10  C   UNL     1      -0.377  12.740  20.256  0.00  0.00    +0.000 C 
ATOM     11  C   UNL     1      -0.608  11.981  21.555  0.00  0.00    +0.000 C 
ATOM     12  C   UNL     1      -1.036  12.797  22.788  0.00  0.00    +0.000 C 
ENDROOT
BRANCH  10  13
ATOM     13  C   UNL     1      -0.410  11.913  18.947  0.00  0.00    +0.000 C 
ATOM     14  C   UNL     1       0.981  11.404  18.538  0.00  0.00    +0.000 C 
BRANCH  13  15
ATOM     15  C   UNL     1      -1.366  10.690  18.957  0.00  0.00    +0.000 C 
BRANCH  15  16
ATOM     16  C   UNL     1      -1.502   9.927  17.637  0.00  0.00    +0.000 C 
BRANCH  16  17
ATOM     17  C   UNL     1      -2.767  10.382  16.899  0.00  0.00    +0.000 C 
BRANCH  17  18
ATOM     18  O   UNL     1      -3.894  10.412  17.786  0.00  0.00    +0.000 OA
BRANCH  18  19
ATOM     19  C   UNL     1      -4.671  11.525  17.702  0.00  0.00    +0.000 C 
ATOM     20  C   UNL     1      -5.123  11.970  19.060  0.00  0.00    +0.000 C 
ATOM     21  O   UNL     1      -4.975  12.098  16.666  0.00  0.00    +0.000 OA
ENDBRANCH  18  19
ENDBRANCH  17  18
ENDBRANCH  16  17
ENDBRANCH  15  16
ENDBRANCH  13  15
ENDBRANCH  10  13
BRANCH  11  22
ATOM     22  O   UNL     1       0.472  11.060  21.844  0.00  0.00    +0.000 OA
BRANCH  22  23
ATOM     23  C   UNL     1       0.212   9.823  22.334  0.00  0.00    +0.000 C 
ATOM     24  O   UNL     1      -0.843   9.455  22.826  0.00  0.00    +0.000 OA
BRANCH  23  25
ATOM     25  C   UNL     1       1.390   8.919  22.046  0.00  0.00    +0.000 C 
BRANCH  25  26
ATOM     26  O   UNL     1       1.635   8.975  20.658  0.00  0.00    +0.000 OA
BRANCH  26  27
ATOM     27  C   UNL     1       1.870   7.773  20.063  0.00  0.00    +0.000 A 
ATOM     28  C   UNL     1       1.561   6.672  20.855  0.00  0.00    +0.000 A 
ATOM     29  C   UNL     1       1.709   5.376  20.359  0.00  0.00    +0.000 A 
ATOM     30  C   UNL     1       2.157   5.173  19.051  0.00  0.00    +0.000 A 
ATOM     31  C   UNL     1       2.472   6.290  18.258  0.00  0.00    +0.000 A 
ATOM     32  C   UNL     1       2.327   7.587  18.757  0.00  0.00    +0.000 A 
BRANCH  30  33
ATOM     33  C   UNL     1       2.301   3.823  18.429  0.00  0.00    +0.000 C 
ATOM     34  C   UNL     1       1.253   2.760  18.631  0.00  0.00    +0.000 C 
ATOM     35  O   UNL     1       3.287   3.585  17.732  0.00  0.00    +0.000 OA
ENDBRANCH  30  33
ENDBRANCH  26  27
ENDBRANCH  25  26
ENDBRANCH  23  25
ENDBRANCH  22  23
ENDBRANCH  11  22
TORSDOF 12
ENDMDL
MODEL 5
REMARK VINA RESULT:      -7.2      2.996      4.086
REMARK  Name = 
REMARK  16 active torsions:
REMARK  status: ('A' for Active; 'I' for Inactive)
REMARK    1  A    between atoms: C_8  and  C_9
REMARK    2  A    between atoms: C_10  and  C_11
REMARK    3  A    between atoms: C_11  and  C_12
REMARK    4  A    between atoms: C_11  and  C_13
REMARK    5  A    between atoms: C_13  and  C_14
REMARK    6  A    between atoms: C_14  and  C_15
REMARK    7  A    between atoms: C_15  and  O_16
REMARK    8  A    between atoms: O_16  and  C_17
REMARK    9  A    between atoms: C_17  and  C_18
REMARK   10  A    between atoms: C_20  and  O_21
REMARK   11  A    between atoms: O_21  and  C_22
REMARK   12  A    between atoms: C_22  and  C_24
REMARK   13  A    between atoms: C_24  and  O_25
REMARK   14  A    between atoms: O_25  and  C_26
REMARK   15  A    between atoms: C_29  and  C_30
REMARK   16  A    between atoms: C_30  and  C_31
REMARK                            x       y       z     vdW  Elec       q    Type
REMARK                         _______ _______ _______ _____ _____    ______ ____
ROOT
ATOM      1  C   UNL     1       2.553   4.739  21.568  0.00  0.00    +0.000 C 
ATOM      2  C   UNL     1       1.820   4.356  20.517  0.00  0.00    +0.000 C 
ATOM      3  C   UNL     1       1.069   3.079  20.517  0.00  0.00    +0.000 C 
ATOM      4  O   UNL     1       0.823   2.379  21.480  0.00  0.00    +0.000 OA
ATOM      5  O   UNL     1       0.674   2.844  19.238  0.00  0.00    +0.000 OA
ATOM      6  C   UNL     1       1.330   3.771  18.352  0.00  0.00    +0.000 C 
ATOM      7  C   UNL     1       2.587   3.116  17.776  0.00  0.00    +0.000 C 
ATOM      8  C   UNL     1       3.782   4.009  17.515  0.00  0.00    +0.000 C 
ATOM      9  C   UNL     1       4.881   3.291  16.768  0.00  0.00    +0.000 C 
ATOM     10  C   UNL     1       3.855   5.300  17.926  0.00  0.00    +0.000 C 
ATOM     11  C   UNL     1       2.670   5.942  18.633  0.00  0.00    +0.000 C 
ATOM     12  C   UNL     1       1.584   5.005  19.194  0.00  0.00    +0.000 C 
ENDROOT
BRANCH  10  13
ATOM     13  C   UNL     1       5.135   6.161  17.783  0.00  0.00    +0.000 C 
ATOM     14  C   UNL     1       6.307   5.614  18.612  0.00  0.00    +0.000 C 
BRANCH  13  15
ATOM     15  C   UNL     1       5.646   6.355  16.329  0.00  0.00    +0.000 C 
BRANCH  15  16
ATOM     16  C   UNL     1       7.122   6.033  16.084  0.00  0.00    +0.000 C 
BRANCH  16  17
ATOM     17  C   UNL     1       7.245   4.849  15.117  0.00  0.00    +0.000 C 
BRANCH  17  18
ATOM     18  O   UNL     1       7.328   5.305  13.758  0.00  0.00    +0.000 OA
BRANCH  18  19
ATOM     19  C   UNL     1       6.871   4.431  12.823  0.00  0.00    +0.000 C 
ATOM     20  C   UNL     1       5.673   3.682  13.325  0.00  0.00    +0.000 C 
ATOM     21  O   UNL     1       7.361   4.260  11.715  0.00  0.00    +0.000 OA
ENDBRANCH  18  19
ENDBRANCH  17  18
ENDBRANCH  16  17
ENDBRANCH  15  16
ENDBRANCH  13  15
ENDBRANCH  10  13
BRANCH  11  22
ATOM     22  O   UNL     1       2.115   7.042  17.871  0.00  0.00    +0.000 OA
BRANCH  22  23
ATOM     23  C   UNL     1       2.095   8.297  18.384  0.00  0.00    +0.000 C 
ATOM     24  O   UNL     1       2.809   9.224  18.035  0.00  0.00    +0.000 OA
BRANCH  23  25
ATOM     25  C   UNL     1       0.948   8.414  19.363  0.00  0.00    +0.000 C 
BRANCH  25  26
ATOM     26  O   UNL     1       1.493   8.785  20.609  0.00  0.00    +0.000 OA
BRANCH  26  27
ATOM     27  C   UNL     1       0.743   9.664  21.330  0.00  0.00    +0.000 A 
ATOM     28  C   UNL     1       0.678  10.943  20.784  0.00  0.00    +0.000 A 
ATOM     29  C   UNL     1      -0.092  11.936  21.392  0.00  0.00    +0.000 A 
ATOM     30  C   UNL     1      -0.817  11.650  22.551  0.00  0.00    +0.000 A 
ATOM     31  C   UNL     1      -0.743  10.357  23.099  0.00  0.00    +0.000 A 
ATOM     32  C   UNL     1       0.030   9.365  22.492  0.00  0.00    +0.000 A 
BRANCH  30  33
ATOM     33  C   UNL     1      -1.697  12.641  23.238  0.00  0.00    +0.000 C 
ATOM     34  C   UNL     1      -3.172  12.383  23.407  0.00  0.00    +0.000 C 
ATOM     35  O   UNL     1      -1.203  13.677  23.681  0.00  0.00    +0.000 OA
ENDBRANCH  30  33
ENDBRANCH  26  27
ENDBRANCH  25  26
ENDBRANCH  23  25
ENDBRANCH  22  23
ENDBRANCH  11  22
TORSDOF 12
ENDMDL
MODEL 6
REMARK VINA RESULT:      -7.1      2.981      4.035
REMARK  Name = 
REMARK  16 active torsions:
REMARK  status: ('A' for Active; 'I' for Inactive)
REMARK    1  A    between atoms: C_8  and  C_9
REMARK    2  A    between atoms: C_10  and  C_11
REMARK    3  A    between atoms: C_11  and  C_12
REMARK    4  A    between atoms: C_11  and  C_13
REMARK    5  A    between atoms: C_13  and  C_14
REMARK    6  A    between atoms: C_14  and  C_15
REMARK    7  A    between atoms: C_15  and  O_16
REMARK    8  A    between atoms: O_16  and  C_17
REMARK    9  A    between atoms: C_17  and  C_18
REMARK   10  A    between atoms: C_20  and  O_21
REMARK   11  A    between atoms: O_21  and  C_22
REMARK   12  A    between atoms: C_22  and  C_24
REMARK   13  A    between atoms: C_24  and  O_25
REMARK   14  A    between atoms: O_25  and  C_26
REMARK   15  A    between atoms: C_29  and  C_30
REMARK   16  A    between atoms: C_30  and  C_31
REMARK                            x       y       z     vdW  Elec       q    Type
REMARK                         _______ _______ _______ _____ _____    ______ ____
ROOT
ATOM      1  C   UNL     1       2.853   4.356  21.462  0.00  0.00    +0.000 C 
ATOM      2  C   UNL     1       2.008   4.156  20.445  0.00  0.00    +0.000 C 
ATOM      3  C   UNL     1       1.078   3.003  20.422  0.00  0.00    +0.000 C 
ATOM      4  O   UNL     1       0.792   2.280  21.356  0.00  0.00    +0.000 OA
ATOM      5  O   UNL     1       0.575   2.916  19.162  0.00  0.00    +0.000 OA
ATOM      6  C   UNL     1       1.304   3.799  18.289  0.00  0.00    +0.000 C 
ATOM      7  C   UNL     1       2.412   3.013  17.587  0.00  0.00    +0.000 C 
ATOM      8  C   UNL     1       3.707   3.743  17.294  0.00  0.00    +0.000 C 
ATOM      9  C   UNL     1       4.640   2.929  16.429  0.00  0.00    +0.000 C 
ATOM     10  C   UNL     1       3.995   4.978  17.776  0.00  0.00    +0.000 C 
ATOM     11  C   UNL     1       2.963   5.732  18.603  0.00  0.00    +0.000 C 
ATOM     12  C   UNL     1       1.789   4.923  19.183  0.00  0.00    +0.000 C 
ENDROOT
BRANCH  10  13
ATOM     13  C   UNL     1       5.376   5.655  17.593  0.00  0.00    +0.000 C 
ATOM     14  C   UNL     1       6.504   4.888  18.299  0.00  0.00    +0.000 C 
BRANCH  13  15
ATOM     15  C   UNL     1       5.817   5.878  16.121  0.00  0.00    +0.000 C 
BRANCH  15  16
ATOM     16  C   UNL     1       7.108   5.178  15.690  0.00  0.00    +0.000 C 
BRANCH  16  17
ATOM     17  C   UNL     1       7.101   4.957  14.173  0.00  0.00    +0.000 C 
BRANCH  17  18
ATOM     18  O   UNL     1       6.345   3.787  13.830  0.00  0.00    +0.000 OA
BRANCH  18  19
ATOM     19  C   UNL     1       6.244   3.529  12.498  0.00  0.00    +0.000 C 
ATOM     20  C   UNL     1       7.306   4.254  11.728  0.00  0.00    +0.000 C 
ATOM     21  O   UNL     1       5.403   2.809  11.979  0.00  0.00    +0.000 OA
ENDBRANCH  18  19
ENDBRANCH  17  18
ENDBRANCH  16  17
ENDBRANCH  15  16
ENDBRANCH  13  15
ENDBRANCH  10  13
BRANCH  11  22
ATOM     22  O   UNL     1       2.530   6.950  17.950  0.00  0.00    +0.000 OA
BRANCH  22  23
ATOM     23  C   UNL     1       2.097   8.008  18.679  0.00  0.00    +0.000 C 
ATOM     24  O   UNL     1       1.992   8.045  19.895  0.00  0.00    +0.000 OA
BRANCH  23  25
ATOM     25  C   UNL     1       1.896   9.193  17.761  0.00  0.00    +0.000 C 
BRANCH  25  26
ATOM     26  O   UNL     1       0.587   9.672  17.970  0.00  0.00    +0.000 OA
BRANCH  26  27
ATOM     27  C   UNL     1       0.475  10.666  18.895  0.00  0.00    +0.000 A 
ATOM     28  C   UNL     1      -0.575  10.497  19.793  0.00  0.00    +0.000 A 
ATOM     29  C   UNL     1      -0.783  11.416  20.823  0.00  0.00    +0.000 A 
ATOM     30  C   UNL     1       0.074  12.510  20.970  0.00  0.00    +0.000 A 
ATOM     31  C   UNL     1       1.129  12.676  20.057  0.00  0.00    +0.000 A 
ATOM     32  C   UNL     1       1.334  11.759  19.024  0.00  0.00    +0.000 A 
BRANCH  30  33
ATOM     33  C   UNL     1      -0.052  13.512  22.069  0.00  0.00    +0.000 C 
ATOM     34  C   UNL     1      -1.300  13.592  22.908  0.00  0.00    +0.000 C 
ATOM     35  O   UNL     1       0.888  14.275  22.297  0.00  0.00    +0.000 OA
ENDBRANCH  30  33
ENDBRANCH  26  27
ENDBRANCH  25  26
ENDBRANCH  23  25
ENDBRANCH  22  23
ENDBRANCH  11  22
TORSDOF 12
ENDMDL
MODEL 7
REMARK VINA RESULT:      -7.1      1.502      1.746
REMARK  Name = 
REMARK  16 active torsions:
REMARK  status: ('A' for Active; 'I' for Inactive)
REMARK    1  A    between atoms: C_8  and  C_9
REMARK    2  A    between atoms: C_10  and  C_11
REMARK    3  A    between atoms: C_11  and  C_12
REMARK    4  A    between atoms: C_11  and  C_13
REMARK    5  A    between atoms: C_13  and  C_14
REMARK    6  A    between atoms: C_14  and  C_15
REMARK    7  A    between atoms: C_15  and  O_16
REMARK    8  A    between atoms: O_16  and  C_17
REMARK    9  A    between atoms: C_17  and  C_18
REMARK   10  A    between atoms: C_20  and  O_21
REMARK   11  A    between atoms: O_21  and  C_22
REMARK   12  A    between atoms: C_22  and  C_24
REMARK   13  A    between atoms: C_24  and  O_25
REMARK   14  A    between atoms: O_25  and  C_26
REMARK   15  A    between atoms: C_29  and  C_30
REMARK   16  A    between atoms: C_30  and  C_31
REMARK                            x       y       z     vdW  Elec       q    Type
REMARK                         _______ _______ _______ _____ _____    ______ ____
ROOT
ATOM      1  C   UNL     1       3.703   3.253  20.266  0.00  0.00    +0.000 C 
ATOM      2  C   UNL     1       3.236   3.488  19.036  0.00  0.00    +0.000 C 
ATOM      3  C   UNL     1       2.632   2.412  18.215  0.00  0.00    +0.000 C 
ATOM      4  O   UNL     1       2.271   1.318  18.600  0.00  0.00    +0.000 OA
ATOM      5  O   UNL     1       2.526   2.886  16.945  0.00  0.00    +0.000 OA
ATOM      6  C   UNL     1       3.248   4.127  16.830  0.00  0.00    +0.000 C 
ATOM      7  C   UNL     1       4.653   3.846  16.297  0.00  0.00    +0.000 C 
ATOM      8  C   UNL     1       5.781   4.722  16.803  0.00  0.00    +0.000 C 
ATOM      9  C   UNL     1       7.073   4.480  16.061  0.00  0.00    +0.000 C 
ATOM     10  C   UNL     1       5.640   5.608  17.822  0.00  0.00    +0.000 C 
ATOM     11  C   UNL     1       4.279   5.808  18.473  0.00  0.00    +0.000 C 
ATOM     12  C   UNL     1       3.204   4.736  18.218  0.00  0.00    +0.000 C 
ENDROOT
BRANCH  10  13
ATOM     13  C   UNL     1       6.829   6.394  18.428  0.00  0.00    +0.000 C 
ATOM     14  C   UNL     1       7.901   5.469  19.025  0.00  0.00    +0.000 C 
BRANCH  13  15
ATOM     15  C   UNL     1       7.547   7.368  17.455  0.00  0.00    +0.000 C 
BRANCH  15  16
ATOM     16  C   UNL     1       7.296   8.860  17.685  0.00  0.00    +0.000 C 
BRANCH  16  17
ATOM     17  C   UNL     1       8.630   9.590  17.880  0.00  0.00    +0.000 C 
BRANCH  17  18
ATOM     18  O   UNL     1       9.078   9.481  19.239  0.00  0.00    +0.000 OA
BRANCH  18  19
ATOM     19  C   UNL     1       9.469  10.647  19.818  0.00  0.00    +0.000 C 
ATOM     20  C   UNL     1      10.592  11.279  19.051  0.00  0.00    +0.000 C 
ATOM     21  O   UNL     1       8.986  11.130  20.832  0.00  0.00    +0.000 OA
ENDBRANCH  18  19
ENDBRANCH  17  18
ENDBRANCH  16  17
ENDBRANCH  15  16
ENDBRANCH  13  15
ENDBRANCH  10  13
BRANCH  11  22
ATOM     22  O   UNL     1       3.779   7.154  18.281  0.00  0.00    +0.000 OA
BRANCH  22  23
ATOM     23  C   UNL     1       2.581   7.526  18.796  0.00  0.00    +0.000 C 
ATOM     24  O   UNL     1       2.187   7.298  19.929  0.00  0.00    +0.000 OA
BRANCH  23  25
ATOM     25  C   UNL     1       1.859   8.396  17.791  0.00  0.00    +0.000 C 
BRANCH  25  26
ATOM     26  O   UNL     1       2.202   9.735  18.070  0.00  0.00    +0.000 OA
BRANCH  26  27
ATOM     27  C   UNL     1       1.223  10.471  18.666  0.00  0.00    +0.000 A 
ATOM     28  C   UNL     1       1.471  11.840  18.690  0.00  0.00    +0.000 A 
ATOM     29  C   UNL     1       0.534  12.723  19.230  0.00  0.00    +0.000 A 
ATOM     30  C   UNL     1      -0.673  12.237  19.740  0.00  0.00    +0.000 A 
ATOM     31  C   UNL     1      -0.914  10.853  19.717  0.00  0.00    +0.000 A 
ATOM     32  C   UNL     1       0.025   9.970  19.179  0.00  0.00    +0.000 A 
BRANCH  30  33
ATOM     33  C   UNL     1      -1.746  13.115  20.294  0.00  0.00    +0.000 C 
ATOM     34  C   UNL     1      -1.411  14.281  21.188  0.00  0.00    +0.000 C 
ATOM     35  O   UNL     1      -2.920  12.886  20.002  0.00  0.00    +0.000 OA
ENDBRANCH  30  33
ENDBRANCH  26  27
ENDBRANCH  25  26
ENDBRANCH  23  25
ENDBRANCH  22  23
ENDBRANCH  11  22
TORSDOF 12
ENDMDL
MODEL 8
REMARK VINA RESULT:      -7.1      3.045      8.788
REMARK  Name = 
REMARK  16 active torsions:
REMARK  status: ('A' for Active; 'I' for Inactive)
REMARK    1  A    between atoms: C_8  and  C_9
REMARK    2  A    between atoms: C_10  and  C_11
REMARK    3  A    between atoms: C_11  and  C_12
REMARK    4  A    between atoms: C_11  and  C_13
REMARK    5  A    between atoms: C_13  and  C_14
REMARK    6  A    between atoms: C_14  and  C_15
REMARK    7  A    between atoms: C_15  and  O_16
REMARK    8  A    between atoms: O_16  and  C_17
REMARK    9  A    between atoms: C_17  and  C_18
REMARK   10  A    between atoms: C_20  and  O_21
REMARK   11  A    between atoms: O_21  and  C_22
REMARK   12  A    between atoms: C_22  and  C_24
REMARK   13  A    between atoms: C_24  and  O_25
REMARK   14  A    between atoms: O_25  and  C_26
REMARK   15  A    between atoms: C_29  and  C_30
REMARK   16  A    between atoms: C_30  and  C_31
REMARK                            x       y       z     vdW  Elec       q    Type
REMARK                         _______ _______ _______ _____ _____    ______ ____
ROOT
ATOM      1  C   UNL     1       1.386   4.189  17.109  0.00  0.00    +0.000 C 
ATOM      2  C   UNL     1       2.063   3.941  18.235  0.00  0.00    +0.000 C 
ATOM      3  C   UNL     1       1.752   2.771  19.088  0.00  0.00    +0.000 C 
ATOM      4  O   UNL     1       1.072   1.810  18.786  0.00  0.00    +0.000 OA
ATOM      5  O   UNL     1       2.396   2.952  20.272  0.00  0.00    +0.000 OA
ATOM      6  C   UNL     1       2.918   4.293  20.338  0.00  0.00    +0.000 C 
ATOM      7  C   UNL     1       1.921   5.187  21.075  0.00  0.00    +0.000 C 
ATOM      8  C   UNL     1       1.809   6.629  20.622  0.00  0.00    +0.000 C 
ATOM      9  C   UNL     1       0.947   7.455  21.547  0.00  0.00    +0.000 C 
ATOM     10  C   UNL     1       2.403   7.109  19.500  0.00  0.00    +0.000 C 
ATOM     11  C   UNL     1       3.290   6.201  18.661  0.00  0.00    +0.000 C 
ATOM     12  C   UNL     1       3.178   4.683  18.896  0.00  0.00    +0.000 C 
ENDROOT
BRANCH  10  13
ATOM     13  C   UNL     1       2.165   8.543  18.967  0.00  0.00    +0.000 C 
ATOM     14  C   UNL     1       2.282   8.628  17.437  0.00  0.00    +0.000 C 
BRANCH  13  15
ATOM     15  C   UNL     1       0.807   9.184  19.363  0.00  0.00    +0.000 C 
BRANCH  15  16
ATOM     16  C   UNL     1       0.833  10.680  19.682  0.00  0.00    +0.000 C 
BRANCH  16  17
ATOM     17  C   UNL     1      -0.109  11.432  18.734  0.00  0.00    +0.000 C 
BRANCH  17  18
ATOM     18  O   UNL     1      -0.954  10.518  18.020  0.00  0.00    +0.000 OA
BRANCH  18  19
ATOM     19  C   UNL     1      -2.275  10.839  18.002  0.00  0.00    +0.000 C 
ATOM     20  C   UNL     1      -3.087   9.744  17.381  0.00  0.00    +0.000 C 
ATOM     21  O   UNL     1      -2.755  11.880  18.428  0.00  0.00    +0.000 OA
ENDBRANCH  18  19
ENDBRANCH  17  18
ENDBRANCH  16  17
ENDBRANCH  15  16
ENDBRANCH  13  15
ENDBRANCH  10  13
BRANCH  11  22
ATOM     22  O   UNL     1       4.663   6.659  18.634  0.00  0.00    +0.000 OA
BRANCH  22  23
ATOM     23  C   UNL     1       5.635   5.897  18.073  0.00  0.00    +0.000 C 
ATOM     24  O   UNL     1       6.060   4.841  18.515  0.00  0.00    +0.000 OA
BRANCH  23  25
ATOM     25  C   UNL     1       6.014   6.485  16.733  0.00  0.00    +0.000 C 
BRANCH  25  26
ATOM     26  O   UNL     1       7.046   5.686  16.198  0.00  0.00    +0.000 OA
BRANCH  26  27
ATOM     27  C   UNL     1       6.711   4.978  15.084  0.00  0.00    +0.000 A 
ATOM     28  C   UNL     1       5.541   4.234  15.209  0.00  0.00    +0.000 A 
ATOM     29  C   UNL     1       5.051   3.494  14.132  0.00  0.00    +0.000 A 
ATOM     30  C   UNL     1       5.728   3.504  12.909  0.00  0.00    +0.000 A 
ATOM     31  C   UNL     1       6.911   4.254  12.792  0.00  0.00    +0.000 A 
ATOM     32  C   UNL     1       7.402   4.992  13.871  0.00  0.00    +0.000 A 
BRANCH  30  33
ATOM     33  C   UNL     1       5.248   2.777  11.697  0.00  0.00    +0.000 C 
ATOM     34  C   UNL     1       3.992   3.201  10.983  0.00  0.00    +0.000 C 
ATOM     35  O   UNL     1       5.902   1.823  11.272  0.00  0.00    +0.000 OA
ENDBRANCH  30  33
ENDBRANCH  26  27
ENDBRANCH  25  26
ENDBRANCH  23  25
ENDBRANCH  22  23
ENDBRANCH  11  22
TORSDOF 12
ENDMDL
MODEL 9
REMARK VINA RESULT:      -7.1      2.015      2.482
REMARK  Name = 
REMARK  16 active torsions:
REMARK  status: ('A' for Active; 'I' for Inactive)
REMARK    1  A    between atoms: C_8  and  C_9
REMARK    2  A    between atoms: C_10  and  C_11
REMARK    3  A    between atoms: C_11  and  C_12
REMARK    4  A    between atoms: C_11  and  C_13
REMARK    5  A    between atoms: C_13  and  C_14
REMARK    6  A    between atoms: C_14  and  C_15
REMARK    7  A    between atoms: C_15  and  O_16
REMARK    8  A    between atoms: O_16  and  C_17
REMARK    9  A    between atoms: C_17  and  C_18
REMARK   10  A    between atoms: C_20  and  O_21
REMARK   11  A    between atoms: O_21  and  C_22
REMARK   12  A    between atoms: C_22  and  C_24
REMARK   13  A    between atoms: C_24  and  O_25
REMARK   14  A    between atoms: O_25  and  C_26
REMARK   15  A    between atoms: C_29  and  C_30
REMARK   16  A    between atoms: C_30  and  C_31
REMARK                            x       y       z     vdW  Elec       q    Type
REMARK                         _______ _______ _______ _____ _____    ______ ____
ROOT
ATOM      1  C   UNL     1       3.809   2.913  20.447  0.00  0.00    +0.000 C 
ATOM      2  C   UNL     1       3.126   3.335  19.377  0.00  0.00    +0.000 C 
ATOM      3  C   UNL     1       2.247   2.425  18.608  0.00  0.00    +0.000 C 
ATOM      4  O   UNL     1       1.851   1.329  18.954  0.00  0.00    +0.000 OA
ATOM      5  O   UNL     1       1.934   3.055  17.445  0.00  0.00    +0.000 OA
ATOM      6  C   UNL     1       2.753   4.230  17.296  0.00  0.00    +0.000 C 
ATOM      7  C   UNL     1       3.975   3.888  16.443  0.00  0.00    +0.000 C 
ATOM      8  C   UNL     1       5.275   4.593  16.772  0.00  0.00    +0.000 C 
ATOM      9  C   UNL     1       6.349   4.324  15.745  0.00  0.00    +0.000 C 
ATOM     10  C   UNL     1       5.451   5.359  17.878  0.00  0.00    +0.000 C 
ATOM     11  C   UNL     1       4.287   5.602  18.829  0.00  0.00    +0.000 C 
ATOM     12  C   UNL     1       3.067   4.670  18.712  0.00  0.00    +0.000 C 
ENDROOT
BRANCH  10  13
ATOM     13  C   UNL     1       6.822   5.956  18.283  0.00  0.00    +0.000 C 
ATOM     14  C   UNL     1       7.873   4.872  18.568  0.00  0.00    +0.000 C 
BRANCH  13  15
ATOM     15  C   UNL     1       7.443   6.946  17.261  0.00  0.00    +0.000 C 
BRANCH  15  16
ATOM     16  C   UNL     1       7.386   8.429  17.636  0.00  0.00    +0.000 C 
BRANCH  16  17
ATOM     17  C   UNL     1       8.726   8.867  18.238  0.00  0.00    +0.000 C 
BRANCH  17  18
ATOM     18  O   UNL     1       8.570  10.060  19.021  0.00  0.00    +0.000 OA
BRANCH  18  19
ATOM     19  C   UNL     1       9.236  11.151  18.558  0.00  0.00    +0.000 C 
ATOM     20  C   UNL     1      10.562  11.301  19.241  0.00  0.00    +0.000 C 
ATOM     21  O   UNL     1       8.824  11.922  17.703  0.00  0.00    +0.000 OA
ENDBRANCH  18  19
ENDBRANCH  17  18
ENDBRANCH  16  17
ENDBRANCH  15  16
ENDBRANCH  13  15
ENDBRANCH  10  13
BRANCH  11  22
ATOM     22  O   UNL     1       3.915   7.001  18.883  0.00  0.00    +0.000 OA
BRANCH  22  23
ATOM     23  C   UNL     1       3.355   7.609  17.807  0.00  0.00    +0.000 C 
ATOM     24  O   UNL     1       3.788   7.585  16.666  0.00  0.00    +0.000 OA
BRANCH  23  25
ATOM     25  C   UNL     1       2.026   8.206  18.212  0.00  0.00    +0.000 C 
BRANCH  25  26
ATOM     26  O   UNL     1       1.882   8.012  19.602  0.00  0.00    +0.000 OA
BRANCH  26  27
ATOM     27  C   UNL     1       1.136   8.953  20.243  0.00  0.00    +0.000 A 
ATOM     28  C   UNL     1       0.881  10.094  19.487  0.00  0.00    +0.000 A 
ATOM     29  C   UNL     1       0.090  11.124  20.000  0.00  0.00    +0.000 A 
ATOM     30  C   UNL     1      -0.465  11.011  21.278  0.00  0.00    +0.000 A 
ATOM     31  C   UNL     1      -0.200   9.858  22.036  0.00  0.00    +0.000 A 
ATOM     32  C   UNL     1       0.594   8.830  21.524  0.00  0.00    +0.000 A 
BRANCH  30  33
ATOM     33  C   UNL     1      -1.356  12.045  21.882  0.00  0.00    +0.000 C 
ATOM     34  C   UNL     1      -2.082  11.784  23.176  0.00  0.00    +0.000 C 
ATOM     35  O   UNL     1      -1.486  13.131  21.316  0.00  0.00    +0.000 OA
ENDBRANCH  30  33
ENDBRANCH  26  27
ENDBRANCH  25  26
ENDBRANCH  23  25
ENDBRANCH  22  23
ENDBRANCH  11  22
TORSDOF 12
ENDMDL
