MODEL 1
REMARK VINA RESULT:      -8.1      0.000      0.000
REMARK  Name = 
REMARK  6 active torsions:
REMARK  status: ('A' for Active; 'I' for Inactive)
REMARK    1  A    between atoms: C_1  and  C_2
REMARK    2  A    between atoms: C_2  and  N_3
REMARK    3  A    between atoms: N_3  and  C_4
REMARK    4  A    between atoms: N_3  and  C_15
REMARK    5  A    between atoms: C_4  and  C_5
REMARK    6  A    between atoms: C_7  and  C_8
REMARK                            x       y       z     vdW  Elec       q    Type
REMARK                         _______ _______ _______ _____ _____    ______ ____
ROOT
ATOM      1  C   UNL     1       5.423   5.443  19.238  0.00  0.00    +0.000 C 
ENDROOT
BRANCH   1   2
ATOM      2  C   UNL     1       6.163   4.926  18.048  0.00  0.00    +0.000 A 
ATOM      3  N   UNL     1       5.758   4.852  16.803  0.00  0.00    +0.000 NA
ATOM      4  C   UNL     1       6.919   4.544  16.142  0.00  0.00    +0.000 A 
ATOM      5  N   UNL     1       7.976   4.306  16.938  0.00  0.00    +0.000 NA
ATOM      6  O   UNL     1       7.472   4.579  18.217  0.00  0.00    +0.000 OA
BRANCH   4   7
ATOM      7  C   UNL     1       6.986   4.615  14.658  0.00  0.00    +0.000 A 
ATOM      8  C   UNL     1       6.272   3.861  13.744  0.00  0.00    +0.000 A 
ATOM      9  C   UNL     1       6.781   4.191  12.462  0.00  0.00    +0.000 A 
ATOM     10  C   UNL     1       7.747   5.146  12.667  0.00  0.00    +0.000 A 
ATOM     11  O   UNL     1       7.866   5.422  13.988  0.00  0.00    +0.000 OA
ENDBRANCH   4   7
ENDBRANCH   1   2
BRANCH   1  12
ATOM     12  N   UNL     1       3.964   5.629  18.982  0.00  0.00    +0.000 NA
BRANCH  12  13
ATOM     13  C   UNL     1       3.199   4.369  18.866  0.00  0.00    +0.000 C 
ATOM     14  C   UNL     1       3.818   3.131  19.547  0.00  0.00    +0.000 C 
ATOM     15  C   UNL     1       2.806   2.014  19.343  0.00  0.00    +0.000 C 
ATOM     16  S   UNL     1       1.248   2.774  19.732  0.00  0.00    +0.000 S 
ATOM     17  O   UNL     1       1.066   2.711  21.167  0.00  0.00    +0.000 OA
ATOM     18  O   UNL     1       0.246   2.298  18.801  0.00  0.00    +0.000 OA
ATOM     19  C   UNL     1       1.716   4.440  19.298  0.00  0.00    +0.000 C 
ENDBRANCH  12  13
BRANCH  12  21
ATOM     20  C   UNL     1       2.802   7.713  18.058  0.00  0.00    +0.000 C 
ATOM     21  C   UNL     1       3.774   6.556  17.838  0.00  0.00    +0.000 C 
ENDBRANCH  12  21
ENDBRANCH   1  12
TORSDOF 5
ENDMDL
MODEL 2
REMARK VINA RESULT:      -8.1      1.221      1.393
REMARK  Name = 
REMARK  6 active torsions:
REMARK  status: ('A' for Active; 'I' for Inactive)
REMARK    1  A    between atoms: C_1  and  C_2
REMARK    2  A    between atoms: C_2  and  N_3
REMARK    3  A    between atoms: N_3  and  C_4
REMARK    4  A    between atoms: N_3  and  C_15
REMARK    5  A    between atoms: C_4  and  C_5
REMARK    6  A    between atoms: C_7  and  C_8
REMARK                            x       y       z     vdW  Elec       q    Type
REMARK                         _______ _______ _______ _____ _____    ______ ____
ROOT
ATOM      1  C   UNL     1       6.146   4.858  18.650  0.00  0.00    +0.000 C 
ENDROOT
BRANCH   1   2
ATOM      2  C   UNL     1       6.613   4.829  17.232  0.00  0.00    +0.000 A 
ATOM      3  N   UNL     1       6.260   4.008  16.272  0.00  0.00    +0.000 NA
ATOM      4  C   UNL     1       6.805   4.609  15.166  0.00  0.00    +0.000 A 
ATOM      5  N   UNL     1       7.574   5.681  15.427  0.00  0.00    +0.000 NA
ATOM      6  O   UNL     1       7.432   5.838  16.813  0.00  0.00    +0.000 OA
BRANCH   4   7
ATOM      7  C   UNL     1       6.434   4.155  13.799  0.00  0.00    +0.000 A 
ATOM      8  C   UNL     1       5.197   3.716  13.364  0.00  0.00    +0.000 A 
ATOM      9  C   UNL     1       5.376   3.264  12.031  0.00  0.00    +0.000 A 
ATOM     10  C   UNL     1       6.697   3.483  11.725  0.00  0.00    +0.000 A 
ATOM     11  O   UNL     1       7.340   4.037  12.780  0.00  0.00    +0.000 OA
ENDBRANCH   4   7
ENDBRANCH   1   2
BRANCH   1  12
ATOM     12  N   UNL     1       4.778   5.436  18.801  0.00  0.00    +0.000 NA
BRANCH  12  13
ATOM     13  C   UNL     1       3.714   4.435  19.031  0.00  0.00    +0.000 C 
ATOM     14  C   UNL     1       4.153   2.957  19.010  0.00  0.00    +0.000 C 
ATOM     15  C   UNL     1       2.901   2.162  19.345  0.00  0.00    +0.000 C 
ATOM     16  S   UNL     1       2.192   3.041  20.717  0.00  0.00    +0.000 S 
ATOM     17  O   UNL     1       2.841   2.579  21.927  0.00  0.00    +0.000 OA
ATOM     18  O   UNL     1       0.752   3.065  20.568  0.00  0.00    +0.000 OA
ATOM     19  C   UNL     1       2.857   4.644  20.301  0.00  0.00    +0.000 C 
ENDBRANCH  12  13
BRANCH  12  21
ATOM     20  C   UNL     1       3.360   7.355  17.875  0.00  0.00    +0.000 C 
ATOM     21  C   UNL     1       4.501   6.360  17.672  0.00  0.00    +0.000 C 
ENDBRANCH  12  21
ENDBRANCH   1  12
TORSDOF 5
ENDMDL
MODEL 3
REMARK VINA RESULT:      -8.0      1.900      2.864
REMARK  Name = 
REMARK  6 active torsions:
REMARK  status: ('A' for Active; 'I' for Inactive)
REMARK    1  A    between atoms: C_1  and  C_2
REMARK    2  A    between atoms: C_2  and  N_3
REMARK    3  A    between atoms: N_3  and  C_4
REMARK    4  A    between atoms: N_3  and  C_15
REMARK    5  A    between atoms: C_4  and  C_5
REMARK    6  A    between atoms: C_7  and  C_8
REMARK                            x       y       z     vdW  Elec       q    Type
REMARK                         _______ _______ _______ _____ _____    ______ ____
ROOT
ATOM      1  C   UNL     1       5.704   5.913  17.326  0.00  0.00    +0.000 C 
ENDROOT
BRANCH   1   2
ATOM      2  C   UNL     1       6.178   5.287  16.055  0.00  0.00    +0.000 A 
ATOM      3  N   UNL     1       5.618   4.328  15.358  0.00  0.00    +0.000 NA
ATOM      4  C   UNL     1       6.349   4.352  14.198  0.00  0.00    +0.000 A 
ATOM      5  N   UNL     1       7.400   5.191  14.211  0.00  0.00    +0.000 NA
ATOM      6  O   UNL     1       7.275   5.830  15.452  0.00  0.00    +0.000 OA
BRANCH   4   7
ATOM      7  C   UNL     1       5.894   3.595  13.002  0.00  0.00    +0.000 A 
ATOM      8  C   UNL     1       6.665   2.831  12.144  0.00  0.00    +0.000 A 
ATOM      9  C   UNL     1       5.812   2.428  11.085  0.00  0.00    +0.000 A 
ATOM     10  C   UNL     1       4.572   2.941  11.375  0.00  0.00    +0.000 A 
ATOM     11  O   UNL     1       4.606   3.632  12.540  0.00  0.00    +0.000 OA
ENDBRANCH   4   7
ENDBRANCH   1   2
BRANCH   1  12
ATOM     12  N   UNL     1       5.728   4.971  18.484  0.00  0.00    +0.000 NA
BRANCH  12  13
ATOM     13  C   UNL     1       4.393   4.626  19.018  0.00  0.00    +0.000 C 
ATOM     14  C   UNL     1       3.395   5.793  19.163  0.00  0.00    +0.000 C 
ATOM     15  C   UNL     1       2.102   5.155  19.650  0.00  0.00    +0.000 C 
ATOM     16  S   UNL     1       1.919   3.721  18.618  0.00  0.00    +0.000 S 
ATOM     17  O   UNL     1       1.281   4.136  17.385  0.00  0.00    +0.000 OA
ATOM     18  O   UNL     1       1.419   2.624  19.420  0.00  0.00    +0.000 OA
ATOM     19  C   UNL     1       3.656   3.475  18.295  0.00  0.00    +0.000 C 
ENDBRANCH  12  13
BRANCH  12  21
ATOM     20  C   UNL     1       7.990   6.052  18.995  0.00  0.00    +0.000 C 
ATOM     21  C   UNL     1       6.676   5.471  19.512  0.00  0.00    +0.000 C 
ENDBRANCH  12  21
ENDBRANCH   1  12
TORSDOF 5
ENDMDL
MODEL 4
REMARK VINA RESULT:      -8.0      1.212      1.523
REMARK  Name = 
REMARK  6 active torsions:
REMARK  status: ('A' for Active; 'I' for Inactive)
REMARK    1  A    between atoms: C_1  and  C_2
REMARK    2  A    between atoms: C_2  and  N_3
REMARK    3  A    between atoms: N_3  and  C_4
REMARK    4  A    between atoms: N_3  and  C_15
REMARK    5  A    between atoms: C_4  and  C_5
REMARK    6  A    between atoms: C_7  and  C_8
REMARK                            x       y       z     vdW  Elec       q    Type
REMARK                         _______ _______ _______ _____ _____    ______ ____
ROOT
ATOM      1  C   UNL     1       5.495   5.494  19.002  0.00  0.00    +0.000 C 
ENDROOT
BRANCH   1   2
ATOM      2  C   UNL     1       6.210   5.422  17.692  0.00  0.00    +0.000 A 
ATOM      3  N   UNL     1       6.026   4.577  16.706  0.00  0.00    +0.000 NA
ATOM      4  C   UNL     1       6.768   5.143  15.701  0.00  0.00    +0.000 A 
ATOM      5  N   UNL     1       7.489   6.217  16.069  0.00  0.00    +0.000 NA
ATOM      6  O   UNL     1       7.102   6.413  17.401  0.00  0.00    +0.000 OA
BRANCH   4   7
ATOM      7  C   UNL     1       6.644   4.654  14.303  0.00  0.00    +0.000 A 
ATOM      8  C   UNL     1       5.728   3.744  13.805  0.00  0.00    +0.000 A 
ATOM      9  C   UNL     1       6.097   3.495  12.459  0.00  0.00    +0.000 A 
ATOM     10  C   UNL     1       7.190   4.288  12.207  0.00  0.00    +0.000 A 
ATOM     11  O   UNL     1       7.517   5.005  13.309  0.00  0.00    +0.000 OA
ENDBRANCH   4   7
ENDBRANCH   1   2
BRANCH   1  12
ATOM     12  N   UNL     1       4.100   6.009  18.877  0.00  0.00    +0.000 NA
BRANCH  12  13
ATOM     13  C   UNL     1       3.052   4.974  19.013  0.00  0.00    +0.000 C 
ATOM     14  C   UNL     1       2.439   4.448  17.699  0.00  0.00    +0.000 C 
ATOM     15  C   UNL     1       1.465   3.359  18.120  0.00  0.00    +0.000 C 
ATOM     16  S   UNL     1       2.372   2.416  19.322  0.00  0.00    +0.000 S 
ATOM     17  O   UNL     1       3.185   1.451  18.611  0.00  0.00    +0.000 OA
ATOM     18  O   UNL     1       1.478   2.038  20.396  0.00  0.00    +0.000 OA
ATOM     19  C   UNL     1       3.429   3.744  19.871  0.00  0.00    +0.000 C 
ENDBRANCH  12  13
BRANCH  12  21
ATOM     20  C   UNL     1       3.040   8.028  17.715  0.00  0.00    +0.000 C 
ATOM     21  C   UNL     1       3.980   6.827  17.643  0.00  0.00    +0.000 C 
ENDBRANCH  12  21
ENDBRANCH   1  12
TORSDOF 5
ENDMDL
MODEL 5
REMARK VINA RESULT:      -8.0      2.020      3.048
REMARK  Name = 
REMARK  6 active torsions:
REMARK  status: ('A' for Active; 'I' for Inactive)
REMARK    1  A    between atoms: C_1  and  C_2
REMARK    2  A    between atoms: C_2  and  N_3
REMARK    3  A    between atoms: N_3  and  C_4
REMARK    4  A    between atoms: N_3  and  C_15
REMARK    5  A    between atoms: C_4  and  C_5
REMARK    6  A    between atoms: C_7  and  C_8
REMARK                            x       y       z     vdW  Elec       q    Type
REMARK                         _______ _______ _______ _____ _____    ______ ____
ROOT
ATOM      1  C   UNL     1       6.011   6.068  17.065  0.00  0.00    +0.000 C 
ENDROOT
BRANCH   1   2
ATOM      2  C   UNL     1       6.398   5.348  15.814  0.00  0.00    +0.000 A 
ATOM      3  N   UNL     1       5.724   4.437  15.154  0.00  0.00    +0.000 NA
ATOM      4  C   UNL     1       6.442   4.336  13.991  0.00  0.00    +0.000 A 
ATOM      5  N   UNL     1       7.582   5.049  13.967  0.00  0.00    +0.000 NA
ATOM      6  O   UNL     1       7.544   5.740  15.185  0.00  0.00    +0.000 OA
BRANCH   4   7
ATOM      7  C   UNL     1       5.891   3.596  12.825  0.00  0.00    +0.000 A 
ATOM      8  C   UNL     1       4.647   3.748  12.240  0.00  0.00    +0.000 A 
ATOM      9  C   UNL     1       4.534   2.729  11.260  0.00  0.00    +0.000 A 
ATOM     10  C   UNL     1       5.722   2.040  11.283  0.00  0.00    +0.000 A 
ATOM     11  O   UNL     1       6.555   2.567  12.213  0.00  0.00    +0.000 OA
ENDBRANCH   4   7
ENDBRANCH   1   2
BRANCH   1  12
ATOM     12  N   UNL     1       6.363   5.315  18.304  0.00  0.00    +0.000 NA
BRANCH  12  13
ATOM     13  C   UNL     1       5.221   5.054  19.206  0.00  0.00    +0.000 C 
ATOM     14  C   UNL     1       3.987   5.961  19.022  0.00  0.00    +0.000 C 
ATOM     15  C   UNL     1       2.952   5.433  20.004  0.00  0.00    +0.000 C 
ATOM     16  S   UNL     1       3.018   3.671  19.787  0.00  0.00    +0.000 S 
ATOM     17  O   UNL     1       2.168   3.327  18.666  0.00  0.00    +0.000 OA
ATOM     18  O   UNL     1       2.894   3.033  21.081  0.00  0.00    +0.000 OA
ATOM     19  C   UNL     1       4.717   3.592  19.248  0.00  0.00    +0.000 C 
ENDBRANCH  12  13
BRANCH  12  21
ATOM     20  C   UNL     1       8.006   7.276  18.355  0.00  0.00    +0.000 C 
ATOM     21  C   UNL     1       7.519   5.966  18.971  0.00  0.00    +0.000 C 
ENDBRANCH  12  21
ENDBRANCH   1  12
TORSDOF 5
ENDMDL
MODEL 6
REMARK VINA RESULT:      -7.9      1.110      1.464
REMARK  Name = 
REMARK  6 active torsions:
REMARK  status: ('A' for Active; 'I' for Inactive)
REMARK    1  A    between atoms: C_1  and  C_2
REMARK    2  A    between atoms: C_2  and  N_3
REMARK    3  A    between atoms: N_3  and  C_4
REMARK    4  A    between atoms: N_3  and  C_15
REMARK    5  A    between atoms: C_4  and  C_5
REMARK    6  A    between atoms: C_7  and  C_8
REMARK                            x       y       z     vdW  Elec       q    Type
REMARK                         _______ _______ _______ _____ _____    ______ ____
ROOT
ATOM      1  C   UNL     1       5.760   5.514  19.334  0.00  0.00    +0.000 C 
ENDROOT
BRANCH   1   2
ATOM      2  C   UNL     1       6.439   5.525  18.004  0.00  0.00    +0.000 A 
ATOM      3  N   UNL     1       6.292   4.689  17.004  0.00  0.00    +0.000 NA
ATOM      4  C   UNL     1       6.958   5.331  15.993  0.00  0.00    +0.000 A 
ATOM      5  N   UNL     1       7.605   6.450  16.364  0.00  0.00    +0.000 NA
ATOM      6  O   UNL     1       7.243   6.589  17.711  0.00  0.00    +0.000 OA
BRANCH   4   7
ATOM      7  C   UNL     1       6.831   4.863  14.587  0.00  0.00    +0.000 A 
ATOM      8  C   UNL     1       5.989   3.880  14.099  0.00  0.00    +0.000 A 
ATOM      9  C   UNL     1       6.332   3.696  12.735  0.00  0.00    +0.000 A 
ATOM     10  C   UNL     1       7.335   4.596  12.466  0.00  0.00    +0.000 A 
ATOM     11  O   UNL     1       7.632   5.317  13.574  0.00  0.00    +0.000 OA
ENDBRANCH   4   7
ENDBRANCH   1   2
BRANCH   1  12
ATOM     12  N   UNL     1       4.297   5.799  19.244  0.00  0.00    +0.000 NA
BRANCH  12  13
ATOM     13  C   UNL     1       3.429   4.674  19.649  0.00  0.00    +0.000 C 
ATOM     14  C   UNL     1       2.081   5.051  20.296  0.00  0.00    +0.000 C 
ATOM     15  C   UNL     1       1.368   3.729  20.537  0.00  0.00    +0.000 C 
ATOM     16  S   UNL     1       1.607   2.833  19.022  0.00  0.00    +0.000 S 
ATOM     17  O   UNL     1       0.577   3.248  18.092  0.00  0.00    +0.000 OA
ATOM     18  O   UNL     1       1.858   1.442  19.333  0.00  0.00    +0.000 OA
ATOM     19  C   UNL     1       3.137   3.622  18.554  0.00  0.00    +0.000 C 
ENDBRANCH  12  13
BRANCH  12  21
ATOM     20  C   UNL     1       3.230   7.681  17.877  0.00  0.00    +0.000 C 
ATOM     21  C   UNL     1       3.980   6.351  17.902  0.00  0.00    +0.000 C 
ENDBRANCH  12  21
ENDBRANCH   1  12
TORSDOF 5
ENDMDL
MODEL 7
REMARK VINA RESULT:      -7.9      1.191      1.816
REMARK  Name = 
REMARK  6 active torsions:
REMARK  status: ('A' for Active; 'I' for Inactive)
REMARK    1  A    between atoms: C_1  and  C_2
REMARK    2  A    between atoms: C_2  and  N_3
REMARK    3  A    between atoms: N_3  and  C_4
REMARK    4  A    between atoms: N_3  and  C_15
REMARK    5  A    between atoms: C_4  and  C_5
REMARK    6  A    between atoms: C_7  and  C_8
REMARK                            x       y       z     vdW  Elec       q    Type
REMARK                         _______ _______ _______ _____ _____    ______ ____
ROOT
ATOM      1  C   UNL     1       5.628   4.594  18.880  0.00  0.00    +0.000 C 
ENDROOT
BRANCH   1   2
ATOM      2  C   UNL     1       6.338   4.823  17.585  0.00  0.00    +0.000 A 
ATOM      3  N   UNL     1       6.366   4.057  16.522  0.00  0.00    +0.000 NA
ATOM      4  C   UNL     1       6.946   4.879  15.591  0.00  0.00    +0.000 A 
ATOM      5  N   UNL     1       7.381   6.058  16.071  0.00  0.00    +0.000 NA
ATOM      6  O   UNL     1       6.958   6.026  17.407  0.00  0.00    +0.000 OA
BRANCH   4   7
ATOM      7  C   UNL     1       6.945   4.510  14.151  0.00  0.00    +0.000 A 
ATOM      8  C   UNL     1       7.655   5.109  13.125  0.00  0.00    +0.000 A 
ATOM      9  C   UNL     1       7.218   4.499  11.922  0.00  0.00    +0.000 A 
ATOM     10  C   UNL     1       6.297   3.547  12.285  0.00  0.00    +0.000 A 
ATOM     11  O   UNL     1       6.137   3.534  13.631  0.00  0.00    +0.000 OA
ENDBRANCH   4   7
ENDBRANCH   1   2
BRANCH   1  12
ATOM     12  N   UNL     1       4.404   5.435  19.030  0.00  0.00    +0.000 NA
BRANCH  12  13
ATOM     13  C   UNL     1       3.357   4.842  19.890  0.00  0.00    +0.000 C 
ATOM     14  C   UNL     1       1.900   5.040  19.424  0.00  0.00    +0.000 C 
ATOM     15  C   UNL     1       1.052   4.277  20.430  0.00  0.00    +0.000 C 
ATOM     16  S   UNL     1       1.906   2.731  20.623  0.00  0.00    +0.000 S 
ATOM     17  O   UNL     1       1.480   1.849  19.556  0.00  0.00    +0.000 OA
ATOM     18  O   UNL     1       1.863   2.341  22.017  0.00  0.00    +0.000 OA
ATOM     19  C   UNL     1       3.534   3.344  20.229  0.00  0.00    +0.000 C 
ENDBRANCH  12  13
BRANCH  12  21
ATOM     20  C   UNL     1       3.731   7.349  17.471  0.00  0.00    +0.000 C 
ATOM     21  C   UNL     1       3.917   5.849  17.690  0.00  0.00    +0.000 C 
ENDBRANCH  12  21
ENDBRANCH   1  12
TORSDOF 5
ENDMDL
MODEL 8
REMARK VINA RESULT:      -7.7      1.809      2.485
REMARK  Name = 
REMARK  6 active torsions:
REMARK  status: ('A' for Active; 'I' for Inactive)
REMARK    1  A    between atoms: C_1  and  C_2
REMARK    2  A    between atoms: C_2  and  N_3
REMARK    3  A    between atoms: N_3  and  C_4
REMARK    4  A    between atoms: N_3  and  C_15
REMARK    5  A    between atoms: C_4  and  C_5
REMARK    6  A    between atoms: C_7  and  C_8
REMARK                            x       y       z     vdW  Elec       q    Type
REMARK                         _______ _______ _______ _____ _____    ______ ____
ROOT
ATOM      1  C   UNL     1       5.436   5.757  17.353  0.00  0.00    +0.000 C 
ENDROOT
BRANCH   1   2
ATOM      2  C   UNL     1       6.012   5.199  16.093  0.00  0.00    +0.000 A 
ATOM      3  N   UNL     1       5.525   4.260  15.318  0.00  0.00    +0.000 NA
ATOM      4  C   UNL     1       6.334   4.350  14.215  0.00  0.00    +0.000 A 
ATOM      5  N   UNL     1       7.360   5.211  14.336  0.00  0.00    +0.000 NA
ATOM      6  O   UNL     1       7.134   5.792  15.591  0.00  0.00    +0.000 OA
BRANCH   4   7
ATOM      7  C   UNL     1       5.981   3.637  12.958  0.00  0.00    +0.000 A 
ATOM      8  C   UNL     1       4.730   3.510  12.383  0.00  0.00    +0.000 A 
ATOM      9  C   UNL     1       4.879   2.629  11.281  0.00  0.00    +0.000 A 
ATOM     10  C   UNL     1       6.211   2.299  11.232  0.00  0.00    +0.000 A 
ATOM     11  O   UNL     1       6.888   2.916  12.230  0.00  0.00    +0.000 OA
ENDBRANCH   4   7
ENDBRANCH   1   2
BRANCH   1  12
ATOM     12  N   UNL     1       5.372   4.757  18.459  0.00  0.00    +0.000 NA
BRANCH  12  13
ATOM     13  C   UNL     1       4.010   4.277  18.771  0.00  0.00    +0.000 C 
ATOM     14  C   UNL     1       3.815   2.747  18.793  0.00  0.00    +0.000 C 
ATOM     15  C   UNL     1       2.368   2.533  19.210  0.00  0.00    +0.000 C 
ATOM     16  S   UNL     1       2.146   3.653  20.570  0.00  0.00    +0.000 S 
ATOM     17  O   UNL     1       2.616   2.995  21.772  0.00  0.00    +0.000 OA
ATOM     18  O   UNL     1       0.831   4.253  20.477  0.00  0.00    +0.000 OA
ATOM     19  C   UNL     1       3.376   4.841  20.064  0.00  0.00    +0.000 C 
ENDBRANCH  12  13
BRANCH  12  21
ATOM     20  C   UNL     1       7.565   5.681  19.401  0.00  0.00    +0.000 C 
ATOM     21  C   UNL     1       6.113   5.272  19.639  0.00  0.00    +0.000 C 
ENDBRANCH  12  21
ENDBRANCH   1  12
TORSDOF 5
ENDMDL
MODEL 9
REMARK VINA RESULT:      -7.7      1.319      1.563
REMARK  Name = 
REMARK  6 active torsions:
REMARK  status: ('A' for Active; 'I' for Inactive)
REMARK    1  A    between atoms: C_1  and  C_2
REMARK    2  A    between atoms: C_2  and  N_3
REMARK    3  A    between atoms: N_3  and  C_4
REMARK    4  A    between atoms: N_3  and  C_15
REMARK    5  A    between atoms: C_4  and  C_5
REMARK    6  A    between atoms: C_7  and  C_8
REMARK                            x       y       z     vdW  Elec       q    Type
REMARK                         _______ _______ _______ _____ _____    ______ ____
ROOT
ATOM      1  C   UNL     1       6.023   5.119  18.315  0.00  0.00    +0.000 C 
ENDROOT
BRANCH   1   2
ATOM      2  C   UNL     1       6.470   4.883  16.909  0.00  0.00    +0.000 A 
ATOM      3  N   UNL     1       6.006   4.019  16.038  0.00  0.00    +0.000 NA
ATOM      4  C   UNL     1       6.614   4.426  14.879  0.00  0.00    +0.000 A 
ATOM      5  N   UNL     1       7.516   5.412  15.031  0.00  0.00    +0.000 NA
ATOM      6  O   UNL     1       7.408   5.729  16.391  0.00  0.00    +0.000 OA
BRANCH   4   7
ATOM      7  C   UNL     1       6.176   3.885  13.565  0.00  0.00    +0.000 A 
ATOM      8  C   UNL     1       6.971   3.550  12.483  0.00  0.00    +0.000 A 
ATOM      9  C   UNL     1       6.090   3.216  11.423  0.00  0.00    +0.000 A 
ATOM     10  C   UNL     1       4.818   3.335  11.929  0.00  0.00    +0.000 A 
ATOM     11  O   UNL     1       4.860   3.722  13.226  0.00  0.00    +0.000 OA
ENDBRANCH   4   7
ENDBRANCH   1   2
BRANCH   1  12
ATOM     12  N   UNL     1       4.563   5.415  18.420  0.00  0.00    +0.000 NA
BRANCH  12  13
ATOM     13  C   UNL     1       3.699   4.217  18.463  0.00  0.00    +0.000 C 
ATOM     14  C   UNL     1       4.088   3.133  19.488  0.00  0.00    +0.000 C 
ATOM     15  C   UNL     1       3.006   2.069  19.377  0.00  0.00    +0.000 C 
ATOM     16  S   UNL     1       1.495   3.001  19.338  0.00  0.00    +0.000 S 
ATOM     17  O   UNL     1       1.110   3.286  20.706  0.00  0.00    +0.000 OA
ATOM     18  O   UNL     1       0.589   2.391  18.388  0.00  0.00    +0.000 OA
ATOM     19  C   UNL     1       2.185   4.486  18.629  0.00  0.00    +0.000 C 
ENDBRANCH  12  13
BRANCH  12  21
ATOM     20  C   UNL     1       3.380   7.610  17.846  0.00  0.00    +0.000 C 
ATOM     21  C   UNL     1       4.179   6.397  17.374  0.00  0.00    +0.000 C 
ENDBRANCH  12  21
ENDBRANCH   1  12
TORSDOF 5
ENDMDL
