MODEL 1
REMARK VINA RESULT:      -6.7      0.000      0.000
REMARK  Name = 
REMARK  7 active torsions:
REMARK  status: ('A' for Active; 'I' for Inactive)
REMARK    1  A    between atoms: C_1  and  O_2
REMARK    2  A    between atoms: O_2  and  C_3
REMARK    3  A    between atoms: C_8  and  C_9
REMARK    4  A    between atoms: C_18  and  O_19
REMARK    5  A    between atoms: O_19  and  C_20
REMARK    6  A    between atoms: N_22  and  C_23
REMARK    7  A    between atoms: N_22  and  C_24
REMARK                            x       y       z     vdW  Elec       q    Type
REMARK                         _______ _______ _______ _____ _____    ______ ____
ROOT
ATOM      1  C   UNL     1       0.405  10.517  19.741  0.00  0.00    +0.000 A 
ATOM      2  C   UNL     1       1.080  10.826  18.555  0.00  0.00    +0.000 A 
ATOM      3  C   UNL     1       1.975   9.914  17.987  0.00  0.00    +0.000 A 
ATOM      4  C   UNL     1       2.192   8.684  18.608  0.00  0.00    +0.000 A 
ATOM      5  O   UNL     1       3.072   7.821  18.008  0.00  0.00    +0.000 OA
ATOM      6  C   UNL     1       3.310   6.595  18.615  0.00  0.00    +0.000 A 
ATOM      7  C   UNL     1       2.734   6.179  19.756  0.00  0.00    +0.000 A 
ATOM      8  C   UNL     1       1.711   7.042  20.384  0.00  0.00    +0.000 A 
ATOM      9  O   UNL     1       1.007   6.663  21.313  0.00  0.00    +0.000 OA
ATOM     10  C   UNL     1       1.514   8.369  19.776  0.00  0.00    +0.000 A 
ATOM     11  C   UNL     1       0.621   9.283  20.351  0.00  0.00    +0.000 A 
ENDROOT
BRANCH   6  12
ATOM     12  C   UNL     1       4.213   5.783  17.856  0.00  0.00    +0.000 A 
ATOM     13  C   UNL     1       3.799   5.109  16.728  0.00  0.00    +0.000 A 
ATOM     14  S   UNL     1       5.058   4.199  16.031  0.00  0.00    +0.000 S 
ATOM     15  C   UNL     1       6.189   4.702  17.231  0.00  0.00    +0.000 A 
ATOM     16  C   UNL     1       7.544   4.330  17.317  0.00  0.00    +0.000 A 
ATOM     17  C   UNL     1       8.321   4.837  18.360  0.00  0.00    +0.000 A 
ATOM     18  C   UNL     1       7.765   5.691  19.302  0.00  0.00    +0.000 A 
ATOM     19  C   UNL     1       6.418   6.057  19.214  0.00  0.00    +0.000 A 
ATOM     20  C   UNL     1       5.601   5.563  18.165  0.00  0.00    +0.000 A 
ENDBRANCH   6  12
BRANCH   1  22
ATOM     21  C   UNL     1      -0.758  11.445  21.588  0.00  0.00    +0.000 C 
ATOM     22  O   UNL     1      -0.442  11.488  20.199  0.00  0.00    +0.000 OA
ENDBRANCH   1  22
BRANCH   7  23
ATOM     23  O   UNL     1       2.957   4.884  20.266  0.00  0.00    +0.000 OA
BRANCH  23  24
ATOM     24  C   UNL     1       2.229   3.872  19.691  0.00  0.00    +0.000 C 
ATOM     25  O   UNL     1       1.024   3.928  19.472  0.00  0.00    +0.000 OA
ATOM     26  N   UNL     1       3.010   2.748  19.435  0.00  0.00    +0.000 N 
ATOM     27  C   UNL     1       4.399   2.634  19.851  0.00  0.00    +0.000 C 
ATOM     28  C   UNL     1       2.398   1.543  18.907  0.00  0.00    +0.000 C 
ENDBRANCH  23  24
ENDBRANCH   7  23
TORSDOF 4
ENDMDL
MODEL 2
REMARK VINA RESULT:      -6.4      1.925      4.164
REMARK  Name = 
REMARK  7 active torsions:
REMARK  status: ('A' for Active; 'I' for Inactive)
REMARK    1  A    between atoms: C_1  and  O_2
REMARK    2  A    between atoms: O_2  and  C_3
REMARK    3  A    between atoms: C_8  and  C_9
REMARK    4  A    between atoms: C_18  and  O_19
REMARK    5  A    between atoms: O_19  and  C_20
REMARK    6  A    between atoms: N_22  and  C_23
REMARK    7  A    between atoms: N_22  and  C_24
REMARK                            x       y       z     vdW  Elec       q    Type
REMARK                         _______ _______ _______ _____ _____    ______ ____
ROOT
ATOM      1  C   UNL     1       0.236  10.757  20.714  0.00  0.00    +0.000 A 
ATOM      2  C   UNL     1       0.222   9.858  21.787  0.00  0.00    +0.000 A 
ATOM      3  C   UNL     1       0.823   8.601  21.669  0.00  0.00    +0.000 A 
ATOM      4  C   UNL     1       1.444   8.243  20.472  0.00  0.00    +0.000 A 
ATOM      5  O   UNL     1       2.026   7.003  20.409  0.00  0.00    +0.000 OA
ATOM      6  C   UNL     1       2.641   6.623  19.224  0.00  0.00    +0.000 A 
ATOM      7  C   UNL     1       2.717   7.387  18.121  0.00  0.00    +0.000 A 
ATOM      8  C   UNL     1       2.183   8.764  18.178  0.00  0.00    +0.000 A 
ATOM      9  O   UNL     1       2.376   9.585  17.288  0.00  0.00    +0.000 OA
ATOM     10  C   UNL     1       1.470   9.136  19.412  0.00  0.00    +0.000 A 
ATOM     11  C   UNL     1       0.865  10.395  19.525  0.00  0.00    +0.000 A 
ENDROOT
BRANCH   6  12
ATOM     12  C   UNL     1       3.242   5.327  19.319  0.00  0.00    +0.000 A 
ATOM     13  C   UNL     1       4.573   5.173  19.638  0.00  0.00    +0.000 A 
ATOM     14  S   UNL     1       5.038   3.535  19.659  0.00  0.00    +0.000 S 
ATOM     15  C   UNL     1       3.453   3.000  19.246  0.00  0.00    +0.000 A 
ATOM     16  C   UNL     1       3.034   1.667  19.072  0.00  0.00    +0.000 A 
ATOM     17  C   UNL     1       1.703   1.413  18.738  0.00  0.00    +0.000 A 
ATOM     18  C   UNL     1       0.806   2.458  18.576  0.00  0.00    +0.000 A 
ATOM     19  C   UNL     1       1.225   3.782  18.747  0.00  0.00    +0.000 A 
ATOM     20  C   UNL     1       2.570   4.075  19.090  0.00  0.00    +0.000 A 
ENDBRANCH   6  12
BRANCH   1  22
ATOM     21  C   UNL     1      -1.396  12.331  20.018  0.00  0.00    +0.000 C 
ATOM     22  O   UNL     1      -0.385  11.953  20.949  0.00  0.00    +0.000 OA
ENDBRANCH   1  22
BRANCH   7  23
ATOM     23  O   UNL     1       3.436   6.969  16.982  0.00  0.00    +0.000 OA
BRANCH  23  24
ATOM     24  C   UNL     1       4.804   7.030  17.073  0.00  0.00    +0.000 C 
ATOM     25  O   UNL     1       5.425   7.998  17.498  0.00  0.00    +0.000 OA
ATOM     26  N   UNL     1       5.412   5.881  16.571  0.00  0.00    +0.000 N 
ATOM     27  C   UNL     1       4.673   4.812  15.918  0.00  0.00    +0.000 C 
ATOM     28  C   UNL     1       6.859   5.797  16.502  0.00  0.00    +0.000 C 
ENDBRANCH  23  24
ENDBRANCH   7  23
TORSDOF 4
ENDMDL
MODEL 3
REMARK VINA RESULT:      -6.3      4.473      8.646
REMARK  Name = 
REMARK  7 active torsions:
REMARK  status: ('A' for Active; 'I' for Inactive)
REMARK    1  A    between atoms: C_1  and  O_2
REMARK    2  A    between atoms: O_2  and  C_3
REMARK    3  A    between atoms: C_8  and  C_9
REMARK    4  A    between atoms: C_18  and  O_19
REMARK    5  A    between atoms: O_19  and  C_20
REMARK    6  A    between atoms: N_22  and  C_23
REMARK    7  A    between atoms: N_22  and  C_24
REMARK                            x       y       z     vdW  Elec       q    Type
REMARK                         _______ _______ _______ _____ _____    ______ ____
ROOT
ATOM      1  C   UNL     1       2.055   7.055  19.366  0.00  0.00    +0.000 A 
ATOM      2  C   UNL     1       2.238   7.657  18.117  0.00  0.00    +0.000 A 
ATOM      3  C   UNL     1       1.996   9.023  17.943  0.00  0.00    +0.000 A 
ATOM      4  C   UNL     1       1.573   9.792  19.028  0.00  0.00    +0.000 A 
ATOM      5  O   UNL     1       1.357  11.127  18.810  0.00  0.00    +0.000 OA
ATOM      6  C   UNL     1       0.925  11.908  19.873  0.00  0.00    +0.000 A 
ATOM      7  C   UNL     1       0.705  11.453  21.119  0.00  0.00    +0.000 A 
ATOM      8  C   UNL     1       1.014  10.039  21.417  0.00  0.00    +0.000 A 
ATOM      9  O   UNL     1       1.021   9.590  22.558  0.00  0.00    +0.000 OA
ATOM     10  C   UNL     1       1.404   9.200  20.271  0.00  0.00    +0.000 A 
ATOM     11  C   UNL     1       1.640   7.830  20.447  0.00  0.00    +0.000 A 
ENDROOT
BRANCH   6  12
ATOM     12  C   UNL     1       0.785  13.286  19.510  0.00  0.00    +0.000 A 
ATOM     13  C   UNL     1      -0.433  13.814  19.144  0.00  0.00    +0.000 A 
ATOM     14  S   UNL     1      -0.319  15.463  18.738  0.00  0.00    +0.000 S 
ATOM     15  C   UNL     1       1.375  15.501  19.056  0.00  0.00    +0.000 A 
ATOM     16  C   UNL     1       2.228  16.615  18.934  0.00  0.00    +0.000 A 
ATOM     17  C   UNL     1       3.582  16.468  19.236  0.00  0.00    +0.000 A 
ATOM     18  C   UNL     1       4.083  15.241  19.646  0.00  0.00    +0.000 A 
ATOM     19  C   UNL     1       3.234  14.136  19.765  0.00  0.00    +0.000 A 
ATOM     20  C   UNL     1       1.851  14.252  19.469  0.00  0.00    +0.000 A 
ENDBRANCH   6  12
BRANCH   1  22
ATOM     21  C   UNL     1       2.459   5.057  18.154  0.00  0.00    +0.000 C 
ATOM     22  O   UNL     1       2.322   5.714  19.411  0.00  0.00    +0.000 OA
ENDBRANCH   1  22
BRANCH   7  23
ATOM     23  O   UNL     1       0.353  12.322  22.171  0.00  0.00    +0.000 OA
BRANCH  23  24
ATOM     24  C   UNL     1      -0.988  12.429  22.447  0.00  0.00    +0.000 C 
ATOM     25  O   UNL     1      -1.785  11.502  22.360  0.00  0.00    +0.000 OA
ATOM     26  N   UNL     1      -1.349  13.732  22.783  0.00  0.00    +0.000 N 
ATOM     27  C   UNL     1      -0.426  14.854  22.720  0.00  0.00    +0.000 C 
ATOM     28  C   UNL     1      -2.742  14.059  23.022  0.00  0.00    +0.000 C 
ENDBRANCH  23  24
ENDBRANCH   7  23
TORSDOF 4
ENDMDL
MODEL 4
REMARK VINA RESULT:      -6.3      6.147      8.987
REMARK  Name = 
REMARK  7 active torsions:
REMARK  status: ('A' for Active; 'I' for Inactive)
REMARK    1  A    between atoms: C_1  and  O_2
REMARK    2  A    between atoms: O_2  and  C_3
REMARK    3  A    between atoms: C_8  and  C_9
REMARK    4  A    between atoms: C_18  and  O_19
REMARK    5  A    between atoms: O_19  and  C_20
REMARK    6  A    between atoms: N_22  and  C_23
REMARK    7  A    between atoms: N_22  and  C_24
REMARK                            x       y       z     vdW  Elec       q    Type
REMARK                         _______ _______ _______ _____ _____    ______ ____
ROOT
ATOM      1  C   UNL     1       3.665  16.531  18.901  0.00  0.00    +0.000 A 
ATOM      2  C   UNL     1       2.608  16.997  18.112  0.00  0.00    +0.000 A 
ATOM      3  C   UNL     1       1.358  16.370  18.153  0.00  0.00    +0.000 A 
ATOM      4  C   UNL     1       1.166  15.272  18.992  0.00  0.00    +0.000 A 
ATOM      5  O   UNL     1      -0.078  14.697  19.003  0.00  0.00    +0.000 OA
ATOM      6  C   UNL     1      -0.289  13.597  19.823  0.00  0.00    +0.000 A 
ATOM      7  C   UNL     1       0.641  13.047  20.623  0.00  0.00    +0.000 A 
ATOM      8  C   UNL     1       1.968  13.694  20.708  0.00  0.00    +0.000 A 
ATOM      9  O   UNL     1       2.807  13.374  21.544  0.00  0.00    +0.000 OA
ATOM     10  C   UNL     1       2.208  14.816  19.785  0.00  0.00    +0.000 A 
ATOM     11  C   UNL     1       3.462  15.439  19.742  0.00  0.00    +0.000 A 
ENDROOT
BRANCH   6  12
ATOM     12  C   UNL     1      -1.642  13.131  19.766  0.00  0.00    +0.000 A 
ATOM     13  C   UNL     1      -2.607  13.619  20.618  0.00  0.00    +0.000 A 
ATOM     14  S   UNL     1      -4.120  12.882  20.359  0.00  0.00    +0.000 S 
ATOM     15  C   UNL     1      -3.505  11.895  19.086  0.00  0.00    +0.000 A 
ATOM     16  C   UNL     1      -4.228  10.954  18.329  0.00  0.00    +0.000 A 
ATOM     17  C   UNL     1      -3.568  10.238  17.328  0.00  0.00    +0.000 A 
ATOM     18  C   UNL     1      -2.219  10.447  17.086  0.00  0.00    +0.000 A 
ATOM     19  C   UNL     1      -1.502  11.382  17.842  0.00  0.00    +0.000 A 
ATOM     20  C   UNL     1      -2.143  12.128  18.864  0.00  0.00    +0.000 A 
ENDBRANCH   6  12
BRANCH   1  22
ATOM     21  C   UNL     1       6.021  16.541  19.175  0.00  0.00    +0.000 C 
ATOM     22  O   UNL     1       4.837  17.225  18.774  0.00  0.00    +0.000 OA
ENDBRANCH   1  22
BRANCH   7  23
ATOM     23  O   UNL     1       0.331  11.985  21.496  0.00  0.00    +0.000 OA
BRANCH  23  24
ATOM     24  C   UNL     1       0.593  10.720  21.030  0.00  0.00    +0.000 C 
ATOM     25  O   UNL     1       1.084  10.478  19.933  0.00  0.00    +0.000 OA
ATOM     26  N   UNL     1       0.182   9.737  21.927  0.00  0.00    +0.000 N 
ATOM     27  C   UNL     1      -0.550  10.033  23.149  0.00  0.00    +0.000 C 
ATOM     28  C   UNL     1       0.297   8.336  21.570  0.00  0.00    +0.000 C 
ENDBRANCH  23  24
ENDBRANCH   7  23
TORSDOF 4
ENDMDL
MODEL 5
REMARK VINA RESULT:      -6.2      4.069      9.282
REMARK  Name = 
REMARK  7 active torsions:
REMARK  status: ('A' for Active; 'I' for Inactive)
REMARK    1  A    between atoms: C_1  and  O_2
REMARK    2  A    between atoms: O_2  and  C_3
REMARK    3  A    between atoms: C_8  and  C_9
REMARK    4  A    between atoms: C_18  and  O_19
REMARK    5  A    between atoms: O_19  and  C_20
REMARK    6  A    between atoms: N_22  and  C_23
REMARK    7  A    between atoms: N_22  and  C_24
REMARK                            x       y       z     vdW  Elec       q    Type
REMARK                         _______ _______ _______ _____ _____    ______ ____
ROOT
ATOM      1  C   UNL     1       2.619   6.387  19.328  0.00  0.00    +0.000 A 
ATOM      2  C   UNL     1       1.927   6.244  20.536  0.00  0.00    +0.000 A 
ATOM      3  C   UNL     1       1.172   7.302  21.053  0.00  0.00    +0.000 A 
ATOM      4  C   UNL     1       1.107   8.508  20.355  0.00  0.00    +0.000 A 
ATOM      5  O   UNL     1       0.349   9.512  20.899  0.00  0.00    +0.000 OA
ATOM      6  C   UNL     1       0.279  10.724  20.225  0.00  0.00    +0.000 A 
ATOM      7  C   UNL     1       0.900  10.993  19.064  0.00  0.00    +0.000 A 
ATOM      8  C   UNL     1       1.652   9.907  18.399  0.00  0.00    +0.000 A 
ATOM      9  O   UNL     1       2.089  10.009  17.258  0.00  0.00    +0.000 OA
ATOM     10  C   UNL     1       1.782   8.648  19.151  0.00  0.00    +0.000 A 
ATOM     11  C   UNL     1       2.543   7.592  18.633  0.00  0.00    +0.000 A 
ENDROOT
BRANCH   6  12
ATOM     12  C   UNL     1      -0.582  11.659  20.884  0.00  0.00    +0.000 A 
ATOM     13  C   UNL     1      -0.198  12.298  22.042  0.00  0.00    +0.000 A 
ATOM     14  S   UNL     1      -1.412  13.336  22.631  0.00  0.00    +0.000 S 
ATOM     15  C   UNL     1      -2.477  12.951  21.333  0.00  0.00    +0.000 A 
ATOM     16  C   UNL     1      -3.772  13.465  21.127  0.00  0.00    +0.000 A 
ATOM     17  C   UNL     1      -4.500  13.042  20.013  0.00  0.00    +0.000 A 
ATOM     18  C   UNL     1      -3.958  12.126  19.124  0.00  0.00    +0.000 A 
ATOM     19  C   UNL     1      -2.672  11.616  19.331  0.00  0.00    +0.000 A 
ATOM     20  C   UNL     1      -1.904  12.027  20.451  0.00  0.00    +0.000 A 
ENDBRANCH   6  12
BRANCH   1  22
ATOM     21  C   UNL     1       3.665   5.225  17.544  0.00  0.00    +0.000 C 
ATOM     22  O   UNL     1       3.322   5.284  18.926  0.00  0.00    +0.000 OA
ENDBRANCH   1  22
BRANCH   7  23
ATOM     23  O   UNL     1       0.711  12.217  18.392  0.00  0.00    +0.000 OA
BRANCH  23  24
ATOM     24  C   UNL     1       1.680  13.171  18.586  0.00  0.00    +0.000 C 
ATOM     25  O   UNL     1       2.880  12.930  18.657  0.00  0.00    +0.000 OA
ATOM     26  N   UNL     1       1.135  14.442  18.750  0.00  0.00    +0.000 N 
ATOM     27  C   UNL     1      -0.296  14.689  18.830  0.00  0.00    +0.000 C 
ATOM     28  C   UNL     1       1.999  15.568  19.054  0.00  0.00    +0.000 C 
ENDBRANCH  23  24
ENDBRANCH   7  23
TORSDOF 4
ENDMDL
MODEL 6
REMARK VINA RESULT:      -6.1      6.309     11.721
REMARK  Name = 
REMARK  7 active torsions:
REMARK  status: ('A' for Active; 'I' for Inactive)
REMARK    1  A    between atoms: C_1  and  O_2
REMARK    2  A    between atoms: O_2  and  C_3
REMARK    3  A    between atoms: C_8  and  C_9
REMARK    4  A    between atoms: C_18  and  O_19
REMARK    5  A    between atoms: O_19  and  C_20
REMARK    6  A    between atoms: N_22  and  C_23
REMARK    7  A    between atoms: N_22  and  C_24
REMARK                            x       y       z     vdW  Elec       q    Type
REMARK                         _______ _______ _______ _____ _____    ______ ____
ROOT
ATOM      1  C   UNL     1      -0.418  10.227  18.374  0.00  0.00    +0.000 A 
ATOM      2  C   UNL     1      -1.493  10.759  17.654  0.00  0.00    +0.000 A 
ATOM      3  C   UNL     1      -2.385  11.649  18.261  0.00  0.00    +0.000 A 
ATOM      4  C   UNL     1      -2.197  12.011  19.595  0.00  0.00    +0.000 A 
ATOM      5  O   UNL     1      -3.094  12.891  20.143  0.00  0.00    +0.000 OA
ATOM      6  C   UNL     1      -2.931  13.257  21.472  0.00  0.00    +0.000 A 
ATOM      7  C   UNL     1      -1.948  12.814  22.275  0.00  0.00    +0.000 A 
ATOM      8  C   UNL     1      -0.909  11.935  21.697  0.00  0.00    +0.000 A 
ATOM      9  O   UNL     1       0.116  11.637  22.300  0.00  0.00    +0.000 OA
ATOM     10  C   UNL     1      -1.125  11.495  20.308  0.00  0.00    +0.000 A 
ATOM     11  C   UNL     1      -0.232  10.599  19.704  0.00  0.00    +0.000 A 
ENDROOT
BRANCH   6  12
ATOM     12  C   UNL     1      -3.910  14.213  21.894  0.00  0.00    +0.000 A 
ATOM     13  C   UNL     1      -3.800  15.547  21.566  0.00  0.00    +0.000 A 
ATOM     14  S   UNL     1      -5.077  16.469  22.210  0.00  0.00    +0.000 S 
ATOM     15  C   UNL     1      -5.809  15.088  22.937  0.00  0.00    +0.000 A 
ATOM     16  C   UNL     1      -6.994  15.067  23.697  0.00  0.00    +0.000 A 
ATOM     17  C   UNL     1      -7.448  13.852  24.212  0.00  0.00    +0.000 A 
ATOM     18  C   UNL     1      -6.739  12.682  23.983  0.00  0.00    +0.000 A 
ATOM     19  C   UNL     1      -5.561  12.706  23.229  0.00  0.00    +0.000 A 
ATOM     20  C   UNL     1      -5.074  13.924  22.689  0.00  0.00    +0.000 A 
ENDBRANCH   6  12
BRANCH   1  22
ATOM     21  C   UNL     1       1.746   9.302  18.085  0.00  0.00    +0.000 C 
ATOM     22  O   UNL     1       0.384   9.368  17.674  0.00  0.00    +0.000 OA
ENDBRANCH   1  22
BRANCH   7  23
ATOM     23  O   UNL     1      -1.793  13.297  23.590  0.00  0.00    +0.000 OA
BRANCH  23  24
ATOM     24  C   UNL     1      -1.147  14.501  23.721  0.00  0.00    +0.000 C 
ATOM     25  O   UNL     1      -0.125  14.805  23.115  0.00  0.00    +0.000 OA
ATOM     26  N   UNL     1      -1.756  15.320  24.669  0.00  0.00    +0.000 N 
ATOM     27  C   UNL     1      -2.867  14.884  25.499  0.00  0.00    +0.000 C 
ATOM     28  C   UNL     1      -1.164  16.600  25.009  0.00  0.00    +0.000 C 
ENDBRANCH  23  24
ENDBRANCH   7  23
TORSDOF 4
ENDMDL
MODEL 7
REMARK VINA RESULT:      -6.1      5.526     11.173
REMARK  Name = 
REMARK  7 active torsions:
REMARK  status: ('A' for Active; 'I' for Inactive)
REMARK    1  A    between atoms: C_1  and  O_2
REMARK    2  A    between atoms: O_2  and  C_3
REMARK    3  A    between atoms: C_8  and  C_9
REMARK    4  A    between atoms: C_18  and  O_19
REMARK    5  A    between atoms: O_19  and  C_20
REMARK    6  A    between atoms: N_22  and  C_23
REMARK    7  A    between atoms: N_22  and  C_24
REMARK                            x       y       z     vdW  Elec       q    Type
REMARK                         _______ _______ _______ _____ _____    ______ ____
ROOT
ATOM      1  C   UNL     1       1.009   9.316  19.588  0.00  0.00    +0.000 A 
ATOM      2  C   UNL     1       0.490   9.907  18.430  0.00  0.00    +0.000 A 
ATOM      3  C   UNL     1      -0.510  10.881  18.516  0.00  0.00    +0.000 A 
ATOM      4  C   UNL     1      -0.990  11.268  19.767  0.00  0.00    +0.000 A 
ATOM      5  O   UNL     1      -1.964  12.231  19.799  0.00  0.00    +0.000 OA
ATOM      6  C   UNL     1      -2.464  12.624  21.033  0.00  0.00    +0.000 A 
ATOM      7  C   UNL     1      -2.058  12.131  22.216  0.00  0.00    +0.000 A 
ATOM      8  C   UNL     1      -0.946  11.157  22.230  0.00  0.00    +0.000 A 
ATOM      9  O   UNL     1      -0.392  10.801  23.265  0.00  0.00    +0.000 OA
ATOM     10  C   UNL     1      -0.469  10.693  20.916  0.00  0.00    +0.000 A 
ATOM     11  C   UNL     1       0.530   9.713  20.834  0.00  0.00    +0.000 A 
ENDROOT
BRANCH   6  12
ATOM     12  C   UNL     1      -3.439  13.666  20.916  0.00  0.00    +0.000 A 
ATOM     13  C   UNL     1      -3.068  14.982  20.752  0.00  0.00    +0.000 A 
ATOM     14  S   UNL     1      -4.416  16.018  20.664  0.00  0.00    +0.000 S 
ATOM     15  C   UNL     1      -5.527  14.711  20.838  0.00  0.00    +0.000 A 
ATOM     16  C   UNL     1      -6.932  14.800  20.857  0.00  0.00    +0.000 A 
ATOM     17  C   UNL     1      -7.683  13.632  21.005  0.00  0.00    +0.000 A 
ATOM     18  C   UNL     1      -7.054  12.402  21.135  0.00  0.00    +0.000 A 
ATOM     19  C   UNL     1      -5.658  12.318  21.116  0.00  0.00    +0.000 A 
ATOM     20  C   UNL     1      -4.865  13.485  20.965  0.00  0.00    +0.000 A 
ENDBRANCH   6  12
BRANCH   1  22
ATOM     21  C   UNL     1       2.191   7.982  18.023  0.00  0.00    +0.000 C 
ATOM     22  O   UNL     1       1.980   8.376  19.376  0.00  0.00    +0.000 OA
ENDBRANCH   1  22
BRANCH   7  23
ATOM     23  O   UNL     1      -2.547  12.642  23.436  0.00  0.00    +0.000 OA
BRANCH  23  24
ATOM     24  C   UNL     1      -1.973  13.808  23.879  0.00  0.00    +0.000 C 
ATOM     25  O   UNL     1      -0.764  13.994  23.959  0.00  0.00    +0.000 OA
ATOM     26  N   UNL     1      -2.928  14.739  24.282  0.00  0.00    +0.000 N 
ATOM     27  C   UNL     1      -4.351  14.444  24.338  0.00  0.00    +0.000 C 
ATOM     28  C   UNL     1      -2.510  16.001  24.863  0.00  0.00    +0.000 C 
ENDBRANCH  23  24
ENDBRANCH   7  23
TORSDOF 4
ENDMDL
MODEL 8
REMARK VINA RESULT:      -6.0      4.950      9.063
REMARK  Name = 
REMARK  7 active torsions:
REMARK  status: ('A' for Active; 'I' for Inactive)
REMARK    1  A    between atoms: C_1  and  O_2
REMARK    2  A    between atoms: O_2  and  C_3
REMARK    3  A    between atoms: C_8  and  C_9
REMARK    4  A    between atoms: C_18  and  O_19
REMARK    5  A    between atoms: O_19  and  C_20
REMARK    6  A    between atoms: N_22  and  C_23
REMARK    7  A    between atoms: N_22  and  C_24
REMARK                            x       y       z     vdW  Elec       q    Type
REMARK                         _______ _______ _______ _____ _____    ______ ____
ROOT
ATOM      1  C   UNL     1       2.535  16.624  19.531  0.00  0.00    +0.000 A 
ATOM      2  C   UNL     1       1.516  17.094  18.695  0.00  0.00    +0.000 A 
ATOM      3  C   UNL     1       0.425  16.279  18.377  0.00  0.00    +0.000 A 
ATOM      4  C   UNL     1       0.352  14.988  18.902  0.00  0.00    +0.000 A 
ATOM      5  O   UNL     1      -0.741  14.232  18.567  0.00  0.00    +0.000 OA
ATOM      6  C   UNL     1      -0.829  12.941  19.070  0.00  0.00    +0.000 A 
ATOM      7  C   UNL     1       0.083  12.368  19.875  0.00  0.00    +0.000 A 
ATOM      8  C   UNL     1       1.229  13.182  20.333  0.00  0.00    +0.000 A 
ATOM      9  O   UNL     1       2.001  12.804  21.208  0.00  0.00    +0.000 OA
ATOM     10  C   UNL     1       1.354  14.525  19.741  0.00  0.00    +0.000 A 
ATOM     11  C   UNL     1       2.451  15.337  20.057  0.00  0.00    +0.000 A 
ENDROOT
BRANCH   6  12
ATOM     12  C   UNL     1      -2.041  12.288  18.676  0.00  0.00    +0.000 A 
ATOM     13  C   UNL     1      -2.114  11.547  17.517  0.00  0.00    +0.000 A 
ATOM     14  S   UNL     1      -3.670  10.900  17.271  0.00  0.00    +0.000 S 
ATOM     15  C   UNL     1      -4.273  11.600  18.726  0.00  0.00    +0.000 A 
ATOM     16  C   UNL     1      -5.583  11.490  19.232  0.00  0.00    +0.000 A 
ATOM     17  C   UNL     1      -5.901  12.123  20.434  0.00  0.00    +0.000 A 
ATOM     18  C   UNL     1      -4.942  12.854  21.120  0.00  0.00    +0.000 A 
ATOM     19  C   UNL     1      -3.642  12.963  20.615  0.00  0.00    +0.000 A 
ATOM     20  C   UNL     1      -3.285  12.329  19.397  0.00  0.00    +0.000 A 
ENDBRANCH   6  12
BRANCH   1  22
ATOM     21  C   UNL     1       4.864  16.964  19.823  0.00  0.00    +0.000 C 
ATOM     22  O   UNL     1       3.549  17.511  19.767  0.00  0.00    +0.000 OA
ENDBRANCH   1  22
BRANCH   7  23
ATOM     23  O   UNL     1      -0.116  11.084  20.420  0.00  0.00    +0.000 OA
BRANCH  23  24
ATOM     24  C   UNL     1       0.630  10.070  19.872  0.00  0.00    +0.000 C 
ATOM     25  O   UNL     1       0.858   9.953  18.673  0.00  0.00    +0.000 OA
ATOM     26  N   UNL     1       1.053   9.155  20.833  0.00  0.00    +0.000 N 
ATOM     27  C   UNL     1       0.637   9.215  22.225  0.00  0.00    +0.000 C 
ATOM     28  C   UNL     1       1.782   7.966  20.432  0.00  0.00    +0.000 C 
ENDBRANCH  23  24
ENDBRANCH   7  23
TORSDOF 4
ENDMDL
MODEL 9
REMARK VINA RESULT:      -6.0      2.653      6.558
REMARK  Name = 
REMARK  7 active torsions:
REMARK  status: ('A' for Active; 'I' for Inactive)
REMARK    1  A    between atoms: C_1  and  O_2
REMARK    2  A    between atoms: O_2  and  C_3
REMARK    3  A    between atoms: C_8  and  C_9
REMARK    4  A    between atoms: C_18  and  O_19
REMARK    5  A    between atoms: O_19  and  C_20
REMARK    6  A    between atoms: N_22  and  C_23
REMARK    7  A    between atoms: N_22  and  C_24
REMARK                            x       y       z     vdW  Elec       q    Type
REMARK                         _______ _______ _______ _____ _____    ______ ____
ROOT
ATOM      1  C   UNL     1       6.144   5.117  15.770  0.00  0.00    +0.000 A 
ATOM      2  C   UNL     1       6.355   6.493  15.910  0.00  0.00    +0.000 A 
ATOM      3  C   UNL     1       5.520   7.261  16.728  0.00  0.00    +0.000 A 
ATOM      4  C   UNL     1       4.470   6.648  17.411  0.00  0.00    +0.000 A 
ATOM      5  O   UNL     1       3.685   7.442  18.205  0.00  0.00    +0.000 OA
ATOM      6  C   UNL     1       2.628   6.853  18.886  0.00  0.00    +0.000 A 
ATOM      7  C   UNL     1       2.313   5.548  18.832  0.00  0.00    +0.000 A 
ATOM      8  C   UNL     1       3.190   4.643  18.060  0.00  0.00    +0.000 A 
ATOM      9  O   UNL     1       3.086   3.422  18.108  0.00  0.00    +0.000 OA
ATOM     10  C   UNL     1       4.266   5.282  17.284  0.00  0.00    +0.000 A 
ATOM     11  C   UNL     1       5.098   4.510  16.462  0.00  0.00    +0.000 A 
ENDROOT
BRANCH   6  12
ATOM     12  C   UNL     1       1.925   7.791  19.709  0.00  0.00    +0.000 A 
ATOM     13  C   UNL     1       2.037   7.769  21.082  0.00  0.00    +0.000 A 
ATOM     14  S   UNL     1       1.083   8.970  21.819  0.00  0.00    +0.000 S 
ATOM     15  C   UNL     1       0.506   9.550  20.302  0.00  0.00    +0.000 A 
ATOM     16  C   UNL     1      -0.392  10.616  20.096  0.00  0.00    +0.000 A 
ATOM     17  C   UNL     1      -0.753  10.955  18.791  0.00  0.00    +0.000 A 
ATOM     18  C   UNL     1      -0.239  10.250  17.713  0.00  0.00    +0.000 A 
ATOM     19  C   UNL     1       0.651   9.191  17.921  0.00  0.00    +0.000 A 
ATOM     20  C   UNL     1       1.041   8.822  19.234  0.00  0.00    +0.000 A 
ENDBRANCH   6  12
BRANCH   1  22
ATOM     21  C   UNL     1       6.496   4.000  13.707  0.00  0.00    +0.000 C 
ATOM     22  O   UNL     1       7.024   4.474  14.944  0.00  0.00    +0.000 OA
ENDBRANCH   1  22
BRANCH   7  23
ATOM     23  O   UNL     1       1.279   5.004  19.621  0.00  0.00    +0.000 OA
BRANCH  23  24
ATOM     24  C   UNL     1       1.670   4.309  20.739  0.00  0.00    +0.000 C 
ATOM     25  O   UNL     1       2.394   4.767  21.617  0.00  0.00    +0.000 OA
ATOM     26  N   UNL     1       1.196   3.000  20.732  0.00  0.00    +0.000 N 
ATOM     27  C   UNL     1       0.480   2.420  19.607  0.00  0.00    +0.000 C 
ATOM     28  C   UNL     1       1.579   2.084  21.790  0.00  0.00    +0.000 C 
ENDBRANCH  23  24
ENDBRANCH   7  23
TORSDOF 4
ENDMDL
