MODEL 1
REMARK VINA RESULT:      -8.5      0.000      0.000
REMARK  Name = 
REMARK  10 active torsions:
REMARK  status: ('A' for Active; 'I' for Inactive)
REMARK    1  A    between atoms: C_1  and  O_2
REMARK    2  A    between atoms: O_2  and  C_3
REMARK    3  A    between atoms: C_6  and  C_7
REMARK    4  A    between atoms: C_8  and  C_9
REMARK    5  A    between atoms: C_9  and  C_10
REMARK    6  A    between atoms: C_10  and  C_11
REMARK    7  A    between atoms: C_11  and  C_12
REMARK    8  A    between atoms: N_20  and  C_21
REMARK    9  A    between atoms: C_24  and  O_25
REMARK   10  A    between atoms: O_25  and  C_26
REMARK                            x       y       z     vdW  Elec       q    Type
REMARK                         _______ _______ _______ _____ _____    ______ ____
ROOT
ATOM      1  C   UNL     1       6.140   5.922  16.859  0.00  0.00    +0.000 C 
ATOM      2  C   UNL     1       7.424   6.627  17.402  0.00  0.00    +0.000 C 
ATOM      3  C   UNL     1       7.046   5.960  18.735  0.00  0.00    +0.000 C 
ATOM      4  O   UNL     1       7.348   6.127  19.894  0.00  0.00    +0.000 OA
ATOM      5  N   UNL     1       6.197   5.102  18.096  0.00  0.00    +0.000 N 
ENDROOT
BRANCH   1   9
ATOM      6  C   UNL     1       6.450   3.955  12.889  0.00  0.00    +0.000 A 
ATOM      7  C   UNL     1       5.322   3.764  13.682  0.00  0.00    +0.000 A 
ATOM      8  C   UNL     1       5.214   4.386  14.931  0.00  0.00    +0.000 A 
ATOM      9  C   UNL     1       6.236   5.206  15.446  0.00  0.00    +0.000 A 
ATOM     10  C   UNL     1       7.380   5.349  14.632  0.00  0.00    +0.000 A 
ATOM     11  C   UNL     1       7.490   4.739  13.375  0.00  0.00    +0.000 A 
BRANCH   6  13
ATOM     12  C   UNL     1       5.573   2.179  11.602  0.00  0.00    +0.000 C 
ATOM     13  O   UNL     1       6.446   3.302  11.688  0.00  0.00    +0.000 OA
ENDBRANCH   6  13
ENDBRANCH   1   9
BRANCH   5  14
ATOM     14  C   UNL     1       5.103   4.419  18.644  0.00  0.00    +0.000 A 
ATOM     15  C   UNL     1       4.874   3.065  18.380  0.00  0.00    +0.000 A 
ATOM     16  C   UNL     1       3.778   2.412  18.949  0.00  0.00    +0.000 A 
ATOM     17  C   UNL     1       2.891   3.101  19.772  0.00  0.00    +0.000 A 
ATOM     18  C   UNL     1       3.096   4.459  20.015  0.00  0.00    +0.000 A 
ATOM     19  C   UNL     1       4.206   5.110  19.463  0.00  0.00    +0.000 A 
BRANCH  17  20
ATOM     20  O   UNL     1       1.840   2.363  20.239  0.00  0.00    +0.000 OA
ATOM     21  C   UNL     1       1.421   2.660  21.566  0.00  0.00    +0.000 C 
ENDBRANCH  17  20
ENDBRANCH   5  14
BRANCH   2  22
ATOM     22  C   UNL     1       7.430   8.149  17.391  0.00  0.00    +0.000 C 
BRANCH  22  23
ATOM     23  C   UNL     1       8.550   8.654  18.302  0.00  0.00    +0.000 C 
BRANCH  23  24
ATOM     24  C   UNL     1       8.358  10.116  18.700  0.00  0.00    +0.000 C 
BRANCH  24  25
ATOM     25  C   UNL     1       9.690  10.800  18.893  0.00  0.00    +0.000 A 
ATOM     26  C   UNL     1      10.127  11.148  20.177  0.00  0.00    +0.000 A 
ATOM     27  C   UNL     1      11.333  11.831  20.355  0.00  0.00    +0.000 A 
ATOM     28  C   UNL     1      12.112  12.172  19.247  0.00  0.00    +0.000 A 
ATOM     29  C   UNL     1      11.684  11.826  17.969  0.00  0.00    +0.000 A 
ATOM     30  C   UNL     1      10.480  11.144  17.788  0.00  0.00    +0.000 A 
ENDBRANCH  24  25
ENDBRANCH  23  24
ENDBRANCH  22  23
ENDBRANCH   2  22
TORSDOF 8
ENDMDL
MODEL 2
REMARK VINA RESULT:      -8.3      0.367      1.560
REMARK  Name = 
REMARK  10 active torsions:
REMARK  status: ('A' for Active; 'I' for Inactive)
REMARK    1  A    between atoms: C_1  and  O_2
REMARK    2  A    between atoms: O_2  and  C_3
REMARK    3  A    between atoms: C_6  and  C_7
REMARK    4  A    between atoms: C_8  and  C_9
REMARK    5  A    between atoms: C_9  and  C_10
REMARK    6  A    between atoms: C_10  and  C_11
REMARK    7  A    between atoms: C_11  and  C_12
REMARK    8  A    between atoms: N_20  and  C_21
REMARK    9  A    between atoms: C_24  and  O_25
REMARK   10  A    between atoms: O_25  and  C_26
REMARK                            x       y       z     vdW  Elec       q    Type
REMARK                         _______ _______ _______ _____ _____    ______ ____
ROOT
ATOM      1  C   UNL     1       6.231   5.994  16.987  0.00  0.00    +0.000 C 
ATOM      2  C   UNL     1       7.547   6.666  17.493  0.00  0.00    +0.000 C 
ATOM      3  C   UNL     1       7.181   6.023  18.841  0.00  0.00    +0.000 C 
ATOM      4  O   UNL     1       7.514   6.191  19.992  0.00  0.00    +0.000 OA
ATOM      5  N   UNL     1       6.293   5.184  18.230  0.00  0.00    +0.000 N 
ENDROOT
BRANCH   1   9
ATOM      6  C   UNL     1       6.308   3.918  13.061  0.00  0.00    +0.000 A 
ATOM      7  C   UNL     1       7.398   4.679  13.475  0.00  0.00    +0.000 A 
ATOM      8  C   UNL     1       7.383   5.330  14.714  0.00  0.00    +0.000 A 
ATOM      9  C   UNL     1       6.274   5.263  15.578  0.00  0.00    +0.000 A 
ATOM     10  C   UNL     1       5.174   4.514  15.111  0.00  0.00    +0.000 A 
ATOM     11  C   UNL     1       5.186   3.849  13.878  0.00  0.00    +0.000 A 
BRANCH   6  13
ATOM     12  C   UNL     1       5.641   2.158  11.635  0.00  0.00    +0.000 C 
ATOM     13  O   UNL     1       6.433   3.325  11.836  0.00  0.00    +0.000 OA
ENDBRANCH   6  13
ENDBRANCH   1   9
BRANCH   5  14
ATOM     14  C   UNL     1       5.193   4.537  18.810  0.00  0.00    +0.000 A 
ATOM     15  C   UNL     1       4.200   5.244  19.494  0.00  0.00    +0.000 A 
ATOM     16  C   UNL     1       3.113   4.570  20.054  0.00  0.00    +0.000 A 
ATOM     17  C   UNL     1       3.011   3.184  19.955  0.00  0.00    +0.000 A 
ATOM     18  C   UNL     1       4.013   2.469  19.300  0.00  0.00    +0.000 A 
ATOM     19  C   UNL     1       5.093   3.146  18.720  0.00  0.00    +0.000 A 
BRANCH  17  20
ATOM     20  O   UNL     1       1.922   2.636  20.572  0.00  0.00    +0.000 OA
ATOM     21  C   UNL     1       0.664   3.191  20.210  0.00  0.00    +0.000 C 
ENDBRANCH  17  20
ENDBRANCH   5  14
BRANCH   2  22
ATOM     22  C   UNL     1       7.596   8.187  17.468  0.00  0.00    +0.000 C 
BRANCH  22  23
ATOM     23  C   UNL     1       8.702   8.670  18.407  0.00  0.00    +0.000 C 
BRANCH  23  24
ATOM     24  C   UNL     1       8.458  10.093  18.906  0.00  0.00    +0.000 C 
BRANCH  24  25
ATOM     25  C   UNL     1       9.752  10.868  18.977  0.00  0.00    +0.000 A 
ATOM     26  C   UNL     1      10.460  11.168  17.807  0.00  0.00    +0.000 A 
ATOM     27  C   UNL     1      11.687  11.836  17.872  0.00  0.00    +0.000 A 
ATOM     28  C   UNL     1      12.214  12.207  19.111  0.00  0.00    +0.000 A 
ATOM     29  C   UNL     1      11.513  11.913  20.277  0.00  0.00    +0.000 A 
ATOM     30  C   UNL     1      10.287  11.247  20.214  0.00  0.00    +0.000 A 
ENDBRANCH  24  25
ENDBRANCH  23  24
ENDBRANCH  22  23
ENDBRANCH   2  22
TORSDOF 8
ENDMDL
MODEL 3
REMARK VINA RESULT:      -8.3      0.404      1.342
REMARK  Name = 
REMARK  10 active torsions:
REMARK  status: ('A' for Active; 'I' for Inactive)
REMARK    1  A    between atoms: C_1  and  O_2
REMARK    2  A    between atoms: O_2  and  C_3
REMARK    3  A    between atoms: C_6  and  C_7
REMARK    4  A    between atoms: C_8  and  C_9
REMARK    5  A    between atoms: C_9  and  C_10
REMARK    6  A    between atoms: C_10  and  C_11
REMARK    7  A    between atoms: C_11  and  C_12
REMARK    8  A    between atoms: N_20  and  C_21
REMARK    9  A    between atoms: C_24  and  O_25
REMARK   10  A    between atoms: O_25  and  C_26
REMARK                            x       y       z     vdW  Elec       q    Type
REMARK                         _______ _______ _______ _____ _____    ______ ____
ROOT
ATOM      1  C   UNL     1       5.990   5.827  16.972  0.00  0.00    +0.000 C 
ATOM      2  C   UNL     1       7.239   6.584  17.527  0.00  0.00    +0.000 C 
ATOM      3  C   UNL     1       6.888   5.886  18.851  0.00  0.00    +0.000 C 
ATOM      4  O   UNL     1       7.179   6.053  20.013  0.00  0.00    +0.000 OA
ATOM      5  N   UNL     1       6.081   4.998  18.200  0.00  0.00    +0.000 N 
ENDROOT
BRANCH   1   9
ATOM      6  C   UNL     1       6.319   3.851  13.008  0.00  0.00    +0.000 A 
ATOM      7  C   UNL     1       7.372   4.617  13.501  0.00  0.00    +0.000 A 
ATOM      8  C   UNL     1       7.278   5.236  14.752  0.00  0.00    +0.000 A 
ATOM      9  C   UNL     1       6.123   5.133  15.551  0.00  0.00    +0.000 A 
ATOM     10  C   UNL     1       5.063   4.380  15.004  0.00  0.00    +0.000 A 
ATOM     11  C   UNL     1       5.153   3.747  13.758  0.00  0.00    +0.000 A 
BRANCH   6  13
ATOM     12  C   UNL     1       5.782   2.100  11.516  0.00  0.00    +0.000 C 
ATOM     13  O   UNL     1       6.521   3.291  11.778  0.00  0.00    +0.000 OA
ENDBRANCH   6  13
ENDBRANCH   1   9
BRANCH   5  14
ATOM     14  C   UNL     1       5.018   4.259  18.737  0.00  0.00    +0.000 A 
ATOM     15  C   UNL     1       4.102   4.827  19.628  0.00  0.00    +0.000 A 
ATOM     16  C   UNL     1       3.050   4.065  20.139  0.00  0.00    +0.000 A 
ATOM     17  C   UNL     1       2.907   2.726  19.784  0.00  0.00    +0.000 A 
ATOM     18  C   UNL     1       3.834   2.144  18.920  0.00  0.00    +0.000 A 
ATOM     19  C   UNL     1       4.878   2.912  18.389  0.00  0.00    +0.000 A 
BRANCH  17  20
ATOM     20  O   UNL     1       1.861   2.076  20.376  0.00  0.00    +0.000 OA
ATOM     21  C   UNL     1       1.107   2.843  21.307  0.00  0.00    +0.000 C 
ENDBRANCH  17  20
ENDBRANCH   5  14
BRANCH   2  22
ATOM     22  C   UNL     1       7.176   8.105  17.532  0.00  0.00    +0.000 C 
BRANCH  22  23
ATOM     23  C   UNL     1       8.479   8.660  18.108  0.00  0.00    +0.000 C 
BRANCH  23  24
ATOM     24  C   UNL     1       8.703  10.123  17.728  0.00  0.00    +0.000 C 
BRANCH  24  25
ATOM     25  C   UNL     1       9.686  10.778  18.669  0.00  0.00    +0.000 A 
ATOM     26  C   UNL     1       9.362  10.952  20.020  0.00  0.00    +0.000 A 
ATOM     27  C   UNL     1      10.244  11.608  20.883  0.00  0.00    +0.000 A 
ATOM     28  C   UNL     1      11.460  12.096  20.398  0.00  0.00    +0.000 A 
ATOM     29  C   UNL     1      11.788  11.924  19.057  0.00  0.00    +0.000 A 
ATOM     30  C   UNL     1      10.908  11.269  18.193  0.00  0.00    +0.000 A 
ENDBRANCH  24  25
ENDBRANCH  23  24
ENDBRANCH  22  23
ENDBRANCH   2  22
TORSDOF 8
ENDMDL
MODEL 4
REMARK VINA RESULT:      -8.2      8.239     11.375
REMARK  Name = 
REMARK  10 active torsions:
REMARK  status: ('A' for Active; 'I' for Inactive)
REMARK    1  A    between atoms: C_1  and  O_2
REMARK    2  A    between atoms: O_2  and  C_3
REMARK    3  A    between atoms: C_6  and  C_7
REMARK    4  A    between atoms: C_8  and  C_9
REMARK    5  A    between atoms: C_9  and  C_10
REMARK    6  A    between atoms: C_10  and  C_11
REMARK    7  A    between atoms: C_11  and  C_12
REMARK    8  A    between atoms: N_20  and  C_21
REMARK    9  A    between atoms: C_24  and  O_25
REMARK   10  A    between atoms: O_25  and  C_26
REMARK                            x       y       z     vdW  Elec       q    Type
REMARK                         _______ _______ _______ _____ _____    ______ ____
ROOT
ATOM      1  C   UNL     1      -0.182  10.727  20.530  0.00  0.00    +0.000 C 
ATOM      2  C   UNL     1       0.062   9.331  21.188  0.00  0.00    +0.000 C 
ATOM      3  C   UNL     1      -0.092  10.095  22.513  0.00  0.00    +0.000 C 
ATOM      4  O   UNL     1       0.192   9.877  23.669  0.00  0.00    +0.000 OA
ATOM      5  N   UNL     1      -0.665  11.154  21.867  0.00  0.00    +0.000 N 
ENDROOT
BRANCH   1   9
ATOM      6  C   UNL     1      -2.981  10.932  17.087  0.00  0.00    +0.000 A 
ATOM      7  C   UNL     1      -1.879  10.081  17.048  0.00  0.00    +0.000 A 
ATOM      8  C   UNL     1      -0.997  10.006  18.132  0.00  0.00    +0.000 A 
ATOM      9  C   UNL     1      -1.169  10.791  19.288  0.00  0.00    +0.000 A 
ATOM     10  C   UNL     1      -2.274  11.668  19.279  0.00  0.00    +0.000 A 
ATOM     11  C   UNL     1      -3.168  11.740  18.203  0.00  0.00    +0.000 A 
BRANCH   6  13
ATOM     12  C   UNL     1      -3.199  10.334  14.813  0.00  0.00    +0.000 C 
ATOM     13  O   UNL     1      -3.776  10.922  15.975  0.00  0.00    +0.000 OA
ENDBRANCH   6  13
ENDBRANCH   1   9
BRANCH   5  14
ATOM     14  C   UNL     1      -0.725  12.486  22.300  0.00  0.00    +0.000 A 
ATOM     15  C   UNL     1       0.172  13.452  21.836  0.00  0.00    +0.000 A 
ATOM     16  C   UNL     1       0.080  14.772  22.281  0.00  0.00    +0.000 A 
ATOM     17  C   UNL     1      -0.894  15.141  23.206  0.00  0.00    +0.000 A 
ATOM     18  C   UNL     1      -1.773  14.176  23.697  0.00  0.00    +0.000 A 
ATOM     19  C   UNL     1      -1.696  12.857  23.235  0.00  0.00    +0.000 A 
BRANCH  17  20
ATOM     20  O   UNL     1      -0.862  16.452  23.592  0.00  0.00    +0.000 OA
ATOM     21  C   UNL     1      -2.125  17.101  23.675  0.00  0.00    +0.000 C 
ENDBRANCH  17  20
ENDBRANCH   5  14
BRANCH   2  22
ATOM     22  C   UNL     1       1.417   8.682  20.942  0.00  0.00    +0.000 C 
BRANCH  22  23
ATOM     23  C   UNL     1       1.242   7.164  20.876  0.00  0.00    +0.000 C 
BRANCH  23  24
ATOM     24  C   UNL     1       2.292   6.498  19.988  0.00  0.00    +0.000 C 
BRANCH  24  25
ATOM     25  C   UNL     1       1.867   5.099  19.611  0.00  0.00    +0.000 A 
ATOM     26  C   UNL     1       1.359   4.228  20.583  0.00  0.00    +0.000 A 
ATOM     27  C   UNL     1       1.017   2.915  20.250  0.00  0.00    +0.000 A 
ATOM     28  C   UNL     1       1.182   2.462  18.939  0.00  0.00    +0.000 A 
ATOM     29  C   UNL     1       1.683   3.324  17.968  0.00  0.00    +0.000 A 
ATOM     30  C   UNL     1       2.025   4.637  18.298  0.00  0.00    +0.000 A 
ENDBRANCH  24  25
ENDBRANCH  23  24
ENDBRANCH  22  23
ENDBRANCH   2  22
TORSDOF 8
ENDMDL
MODEL 5
REMARK VINA RESULT:      -8.1      8.280     11.316
REMARK  Name = 
REMARK  10 active torsions:
REMARK  status: ('A' for Active; 'I' for Inactive)
REMARK    1  A    between atoms: C_1  and  O_2
REMARK    2  A    between atoms: O_2  and  C_3
REMARK    3  A    between atoms: C_6  and  C_7
REMARK    4  A    between atoms: C_8  and  C_9
REMARK    5  A    between atoms: C_9  and  C_10
REMARK    6  A    between atoms: C_10  and  C_11
REMARK    7  A    between atoms: C_11  and  C_12
REMARK    8  A    between atoms: N_20  and  C_21
REMARK    9  A    between atoms: C_24  and  O_25
REMARK   10  A    between atoms: O_25  and  C_26
REMARK                            x       y       z     vdW  Elec       q    Type
REMARK                         _______ _______ _______ _____ _____    ______ ____
ROOT
ATOM      1  C   UNL     1      -0.395  10.673  20.405  0.00  0.00    +0.000 C 
ATOM      2  C   UNL     1      -0.015   9.253  20.934  0.00  0.00    +0.000 C 
ATOM      3  C   UNL     1      -0.317   9.852  22.318  0.00  0.00    +0.000 C 
ATOM      4  O   UNL     1      -0.059   9.548  23.460  0.00  0.00    +0.000 OA
ATOM      5  N   UNL     1      -0.983  10.900  21.749  0.00  0.00    +0.000 N 
ENDROOT
BRANCH   1   9
ATOM      6  C   UNL     1      -2.964  10.872  16.788  0.00  0.00    +0.000 A 
ATOM      7  C   UNL     1      -3.211  11.710  17.872  0.00  0.00    +0.000 A 
ATOM      8  C   UNL     1      -2.401  11.658  19.012  0.00  0.00    +0.000 A 
ATOM      9  C   UNL     1      -1.327  10.754  19.123  0.00  0.00    +0.000 A 
ATOM     10  C   UNL     1      -1.129   9.895  18.021  0.00  0.00    +0.000 A 
ATOM     11  C   UNL     1      -1.928   9.950  16.872  0.00  0.00    +0.000 A 
BRANCH   6  13
ATOM     12  C   UNL     1      -3.484  10.250  14.570  0.00  0.00    +0.000 C 
ATOM     13  O   UNL     1      -3.816  11.011  15.728  0.00  0.00    +0.000 OA
ENDBRANCH   6  13
ENDBRANCH   1   9
BRANCH   5  14
ATOM     14  C   UNL     1      -1.221  12.163  22.307  0.00  0.00    +0.000 A 
ATOM     15  C   UNL     1      -2.395  12.448  23.010  0.00  0.00    +0.000 A 
ATOM     16  C   UNL     1      -2.598  13.716  23.560  0.00  0.00    +0.000 A 
ATOM     17  C   UNL     1      -1.643  14.717  23.402  0.00  0.00    +0.000 A 
ATOM     18  C   UNL     1      -0.483  14.450  22.677  0.00  0.00    +0.000 A 
ATOM     19  C   UNL     1      -0.268  13.173  22.142  0.00  0.00    +0.000 A 
BRANCH  17  20
ATOM     20  O   UNL     1      -1.970  15.924  23.955  0.00  0.00    +0.000 OA
ATOM     21  C   UNL     1      -0.910  16.608  24.612  0.00  0.00    +0.000 C 
ENDBRANCH  17  20
ENDBRANCH   5  14
BRANCH   2  22
ATOM     22  C   UNL     1       1.417   8.792  20.701  0.00  0.00    +0.000 C 
BRANCH  22  23
ATOM     23  C   UNL     1       1.502   7.281  20.924  0.00  0.00    +0.000 C 
BRANCH  23  24
ATOM     24  C   UNL     1       2.405   6.595  19.901  0.00  0.00    +0.000 C 
BRANCH  24  25
ATOM     25  C   UNL     1       1.878   5.223  19.553  0.00  0.00    +0.000 A 
ATOM     26  C   UNL     1       1.256   4.437  20.530  0.00  0.00    +0.000 A 
ATOM     27  C   UNL     1       0.816   3.145  20.227  0.00  0.00    +0.000 A 
ATOM     28  C   UNL     1       0.997   2.630  18.941  0.00  0.00    +0.000 A 
ATOM     29  C   UNL     1       1.612   3.409  17.966  0.00  0.00    +0.000 A 
ATOM     30  C   UNL     1       2.052   4.700  18.266  0.00  0.00    +0.000 A 
ENDBRANCH  24  25
ENDBRANCH  23  24
ENDBRANCH  22  23
ENDBRANCH   2  22
TORSDOF 8
ENDMDL
MODEL 6
REMARK VINA RESULT:      -8.0      9.230     11.690
REMARK  Name = 
REMARK  10 active torsions:
REMARK  status: ('A' for Active; 'I' for Inactive)
REMARK    1  A    between atoms: C_1  and  O_2
REMARK    2  A    between atoms: O_2  and  C_3
REMARK    3  A    between atoms: C_6  and  C_7
REMARK    4  A    between atoms: C_8  and  C_9
REMARK    5  A    between atoms: C_9  and  C_10
REMARK    6  A    between atoms: C_10  and  C_11
REMARK    7  A    between atoms: C_11  and  C_12
REMARK    8  A    between atoms: N_20  and  C_21
REMARK    9  A    between atoms: C_24  and  O_25
REMARK   10  A    between atoms: O_25  and  C_26
REMARK                            x       y       z     vdW  Elec       q    Type
REMARK                         _______ _______ _______ _____ _____    ______ ____
ROOT
ATOM      1  C   UNL     1      -1.352  10.851  19.675  0.00  0.00    +0.000 C 
ATOM      2  C   UNL     1      -1.199  12.256  20.342  0.00  0.00    +0.000 C 
ATOM      3  C   UNL     1       0.255  11.818  20.582  0.00  0.00    +0.000 C 
ATOM      4  O   UNL     1       1.155  12.186  21.302  0.00  0.00    +0.000 OA
ATOM      5  N   UNL     1       0.132  10.812  19.666  0.00  0.00    +0.000 N 
ENDROOT
BRANCH   1   9
ATOM      6  C   UNL     1      -3.515  10.609  15.803  0.00  0.00    +0.000 A 
ATOM      7  C   UNL     1      -4.001  11.414  16.831  0.00  0.00    +0.000 A 
ATOM      8  C   UNL     1      -3.321  11.501  18.051  0.00  0.00    +0.000 A 
ATOM      9  C   UNL     1      -2.141  10.773  18.300  0.00  0.00    +0.000 A 
ATOM     10  C   UNL     1      -1.698   9.940  17.251  0.00  0.00    +0.000 A 
ATOM     11  C   UNL     1      -2.367   9.857  16.022  0.00  0.00    +0.000 A 
BRANCH   6  13
ATOM     12  C   UNL     1      -3.680   9.911  13.553  0.00  0.00    +0.000 C 
ATOM     13  O   UNL     1      -4.258  10.603  14.656  0.00  0.00    +0.000 OA
ENDBRANCH   6  13
ENDBRANCH   1   9
BRANCH   5  14
ATOM     14  C   UNL     1       0.893   9.638  19.581  0.00  0.00    +0.000 A 
ATOM     15  C   UNL     1       1.584   9.292  18.416  0.00  0.00    +0.000 A 
ATOM     16  C   UNL     1       2.340   8.118  18.367  0.00  0.00    +0.000 A 
ATOM     17  C   UNL     1       2.403   7.269  19.470  0.00  0.00    +0.000 A 
ATOM     18  C   UNL     1       1.691   7.593  20.624  0.00  0.00    +0.000 A 
ATOM     19  C   UNL     1       0.950   8.780  20.683  0.00  0.00    +0.000 A 
BRANCH  17  20
ATOM     20  O   UNL     1       3.144   6.136  19.288  0.00  0.00    +0.000 OA
ATOM     21  C   UNL     1       2.728   5.292  18.222  0.00  0.00    +0.000 C 
ENDBRANCH  17  20
ENDBRANCH   5  14
BRANCH   2  22
ATOM     22  C   UNL     1      -2.034  12.521  21.586  0.00  0.00    +0.000 C 
BRANCH  22  23
ATOM     23  C   UNL     1      -3.225  13.406  21.213  0.00  0.00    +0.000 C 
BRANCH  23  24
ATOM     24  C   UNL     1      -4.552  12.826  21.701  0.00  0.00    +0.000 C 
BRANCH  24  25
ATOM     25  C   UNL     1      -5.558  12.766  20.576  0.00  0.00    +0.000 A 
ATOM     26  C   UNL     1      -6.308  11.604  20.360  0.00  0.00    +0.000 A 
ATOM     27  C   UNL     1      -7.199  11.525  19.286  0.00  0.00    +0.000 A 
ATOM     28  C   UNL     1      -7.345  12.609  18.418  0.00  0.00    +0.000 A 
ATOM     29  C   UNL     1      -6.603  13.767  18.630  0.00  0.00    +0.000 A 
ATOM     30  C   UNL     1      -5.712  13.850  19.702  0.00  0.00    +0.000 A 
ENDBRANCH  24  25
ENDBRANCH  23  24
ENDBRANCH  22  23
ENDBRANCH   2  22
TORSDOF 8
ENDMDL
MODEL 7
REMARK VINA RESULT:      -8.0      0.754      1.322
REMARK  Name = 
REMARK  10 active torsions:
REMARK  status: ('A' for Active; 'I' for Inactive)
REMARK    1  A    between atoms: C_1  and  O_2
REMARK    2  A    between atoms: O_2  and  C_3
REMARK    3  A    between atoms: C_6  and  C_7
REMARK    4  A    between atoms: C_8  and  C_9
REMARK    5  A    between atoms: C_9  and  C_10
REMARK    6  A    between atoms: C_10  and  C_11
REMARK    7  A    between atoms: C_11  and  C_12
REMARK    8  A    between atoms: N_20  and  C_21
REMARK    9  A    between atoms: C_24  and  O_25
REMARK   10  A    between atoms: O_25  and  C_26
REMARK                            x       y       z     vdW  Elec       q    Type
REMARK                         _______ _______ _______ _____ _____    ______ ____
ROOT
ATOM      1  C   UNL     1       6.209   5.970  17.048  0.00  0.00    +0.000 C 
ATOM      2  C   UNL     1       7.520   6.601  17.617  0.00  0.00    +0.000 C 
ATOM      3  C   UNL     1       7.098   5.922  18.931  0.00  0.00    +0.000 C 
ATOM      4  O   UNL     1       7.397   6.047  20.096  0.00  0.00    +0.000 OA
ATOM      5  N   UNL     1       6.215   5.121  18.265  0.00  0.00    +0.000 N 
ENDROOT
BRANCH   1   9
ATOM      6  C   UNL     1       6.461   4.085  13.034  0.00  0.00    +0.000 A 
ATOM      7  C   UNL     1       5.330   3.904  13.825  0.00  0.00    +0.000 A 
ATOM      8  C   UNL     1       5.241   4.501  15.088  0.00  0.00    +0.000 A 
ATOM      9  C   UNL     1       6.284   5.284  15.618  0.00  0.00    +0.000 A 
ATOM     10  C   UNL     1       7.429   5.416  14.804  0.00  0.00    +0.000 A 
ATOM     11  C   UNL     1       7.521   4.833  13.534  0.00  0.00    +0.000 A 
BRANCH   6  13
ATOM     12  C   UNL     1       5.613   2.300  11.740  0.00  0.00    +0.000 C 
ATOM     13  O   UNL     1       6.438   3.459  11.819  0.00  0.00    +0.000 OA
ENDBRANCH   6  13
ENDBRANCH   1   9
BRANCH   5  14
ATOM     14  C   UNL     1       5.085   4.477  18.788  0.00  0.00    +0.000 A 
ATOM     15  C   UNL     1       4.097   5.177  19.486  0.00  0.00    +0.000 A 
ATOM     16  C   UNL     1       2.979   4.507  19.988  0.00  0.00    +0.000 A 
ATOM     17  C   UNL     1       2.842   3.132  19.817  0.00  0.00    +0.000 A 
ATOM     18  C   UNL     1       3.839   2.422  19.148  0.00  0.00    +0.000 A 
ATOM     19  C   UNL     1       4.950   3.096  18.626  0.00  0.00    +0.000 A 
BRANCH  17  20
ATOM     20  O   UNL     1       1.725   2.585  20.383  0.00  0.00    +0.000 OA
ATOM     21  C   UNL     1       0.528   2.704  19.624  0.00  0.00    +0.000 C 
ENDBRANCH  17  20
ENDBRANCH   5  14
BRANCH   2  22
ATOM     22  C   UNL     1       7.598   8.121  17.642  0.00  0.00    +0.000 C 
BRANCH  22  23
ATOM     23  C   UNL     1       8.853   8.547  18.406  0.00  0.00    +0.000 C 
BRANCH  23  24
ATOM     24  C   UNL     1       8.662   9.874  19.139  0.00  0.00    +0.000 C 
BRANCH  24  25
ATOM     25  C   UNL     1       9.496  10.962  18.506  0.00  0.00    +0.000 A 
ATOM     26  C   UNL     1      10.893  10.916  18.582  0.00  0.00    +0.000 A 
ATOM     27  C   UNL     1      11.667  11.949  18.046  0.00  0.00    +0.000 A 
ATOM     28  C   UNL     1      11.047  13.038  17.430  0.00  0.00    +0.000 A 
ATOM     29  C   UNL     1       9.659  13.087  17.349  0.00  0.00    +0.000 A 
ATOM     30  C   UNL     1       8.883  12.057  17.883  0.00  0.00    +0.000 A 
ENDBRANCH  24  25
ENDBRANCH  23  24
ENDBRANCH  22  23
ENDBRANCH   2  22
TORSDOF 8
ENDMDL
MODEL 8
REMARK VINA RESULT:      -7.9      8.194     11.368
REMARK  Name = 
REMARK  10 active torsions:
REMARK  status: ('A' for Active; 'I' for Inactive)
REMARK    1  A    between atoms: C_1  and  O_2
REMARK    2  A    between atoms: O_2  and  C_3
REMARK    3  A    between atoms: C_6  and  C_7
REMARK    4  A    between atoms: C_8  and  C_9
REMARK    5  A    between atoms: C_9  and  C_10
REMARK    6  A    between atoms: C_10  and  C_11
REMARK    7  A    between atoms: C_11  and  C_12
REMARK    8  A    between atoms: N_20  and  C_21
REMARK    9  A    between atoms: C_24  and  O_25
REMARK   10  A    between atoms: O_25  and  C_26
REMARK                            x       y       z     vdW  Elec       q    Type
REMARK                         _______ _______ _______ _____ _____    ______ ____
ROOT
ATOM      1  C   UNL     1      -0.153  10.720  20.581  0.00  0.00    +0.000 C 
ATOM      2  C   UNL     1       0.152   9.324  21.211  0.00  0.00    +0.000 C 
ATOM      3  C   UNL     1      -0.076  10.045  22.550  0.00  0.00    +0.000 C 
ATOM      4  O   UNL     1       0.192   9.814  23.706  0.00  0.00    +0.000 OA
ATOM      5  N   UNL     1      -0.690  11.087  21.915  0.00  0.00    +0.000 N 
ENDROOT
BRANCH   1   9
ATOM      6  C   UNL     1      -2.875  10.863  17.073  0.00  0.00    +0.000 A 
ATOM      7  C   UNL     1      -1.778  10.006  17.077  0.00  0.00    +0.000 A 
ATOM      8  C   UNL     1      -0.920   9.950  18.182  0.00  0.00    +0.000 A 
ATOM      9  C   UNL     1      -1.112  10.762  19.316  0.00  0.00    +0.000 A 
ATOM     10  C   UNL     1      -2.211  11.644  19.263  0.00  0.00    +0.000 A 
ATOM     11  C   UNL     1      -3.081  11.697  18.166  0.00  0.00    +0.000 A 
BRANCH   6  13
ATOM     12  C   UNL     1      -3.027  10.261  14.795  0.00  0.00    +0.000 C 
ATOM     13  O   UNL     1      -3.645  10.832  15.945  0.00  0.00    +0.000 OA
ENDBRANCH   6  13
ENDBRANCH   1   9
BRANCH   5  14
ATOM     14  C   UNL     1      -0.835  12.402  22.378  0.00  0.00    +0.000 A 
ATOM     15  C   UNL     1      -1.849  12.761  23.270  0.00  0.00    +0.000 A 
ATOM     16  C   UNL     1      -1.961  14.079  23.717  0.00  0.00    +0.000 A 
ATOM     17  C   UNL     1      -1.076  15.057  23.269  0.00  0.00    +0.000 A 
ATOM     18  C   UNL     1      -0.080  14.713  22.355  0.00  0.00    +0.000 A 
ATOM     19  C   UNL     1       0.046  13.387  21.922  0.00  0.00    +0.000 A 
BRANCH  17  20
ATOM     20  O   UNL     1      -1.308  16.315  23.750  0.00  0.00    +0.000 OA
ATOM     21  C   UNL     1      -1.207  17.367  22.797  0.00  0.00    +0.000 C 
ENDBRANCH  17  20
ENDBRANCH   5  14
BRANCH   2  22
ATOM     22  C   UNL     1       1.546   8.756  20.984  0.00  0.00    +0.000 C 
BRANCH  22  23
ATOM     23  C   UNL     1       1.443   7.505  20.110  0.00  0.00    +0.000 C 
BRANCH  23  24
ATOM     24  C   UNL     1       2.010   6.267  20.804  0.00  0.00    +0.000 C 
BRANCH  24  25
ATOM     25  C   UNL     1       1.773   5.029  19.972  0.00  0.00    +0.000 A 
ATOM     26  C   UNL     1       2.128   5.009  18.617  0.00  0.00    +0.000 A 
ATOM     27  C   UNL     1       1.859   3.887  17.830  0.00  0.00    +0.000 A 
ATOM     28  C   UNL     1       1.230   2.774  18.393  0.00  0.00    +0.000 A 
ATOM     29  C   UNL     1       0.878   2.787  19.739  0.00  0.00    +0.000 A 
ATOM     30  C   UNL     1       1.145   3.908  20.528  0.00  0.00    +0.000 A 
ENDBRANCH  24  25
ENDBRANCH  23  24
ENDBRANCH  22  23
ENDBRANCH   2  22
TORSDOF 8
ENDMDL
MODEL 9
REMARK VINA RESULT:      -7.9      9.006     11.531
REMARK  Name = 
REMARK  10 active torsions:
REMARK  status: ('A' for Active; 'I' for Inactive)
REMARK    1  A    between atoms: C_1  and  O_2
REMARK    2  A    between atoms: O_2  and  C_3
REMARK    3  A    between atoms: C_6  and  C_7
REMARK    4  A    between atoms: C_8  and  C_9
REMARK    5  A    between atoms: C_9  and  C_10
REMARK    6  A    between atoms: C_10  and  C_11
REMARK    7  A    between atoms: C_11  and  C_12
REMARK    8  A    between atoms: N_20  and  C_21
REMARK    9  A    between atoms: C_24  and  O_25
REMARK   10  A    between atoms: O_25  and  C_26
REMARK                            x       y       z     vdW  Elec       q    Type
REMARK                         _______ _______ _______ _____ _____    ______ ____
ROOT
ATOM      1  C   UNL     1      -1.091  10.546  19.703  0.00  0.00    +0.000 C 
ATOM      2  C   UNL     1      -0.933  11.878  20.503  0.00  0.00    +0.000 C 
ATOM      3  C   UNL     1       0.545  11.467  20.606  0.00  0.00    +0.000 C 
ATOM      4  O   UNL     1       1.479  11.788  21.304  0.00  0.00    +0.000 OA
ATOM      5  N   UNL     1       0.389  10.557  19.599  0.00  0.00    +0.000 N 
ENDROOT
BRANCH   1   9
ATOM      6  C   UNL     1      -3.580  10.672  16.026  0.00  0.00    +0.000 A 
ATOM      7  C   UNL     1      -2.435   9.881  16.073  0.00  0.00    +0.000 A 
ATOM      8  C   UNL     1      -1.650   9.830  17.231  0.00  0.00    +0.000 A 
ATOM      9  C   UNL     1      -1.966  10.583  18.378  0.00  0.00    +0.000 A 
ATOM     10  C   UNL     1      -3.110  11.401  18.282  0.00  0.00    +0.000 A 
ATOM     11  C   UNL     1      -3.908  11.448  17.132  0.00  0.00    +0.000 A 
BRANCH   6  13
ATOM     12  C   UNL     1      -3.610   9.995  13.763  0.00  0.00    +0.000 C 
ATOM     13  O   UNL     1      -4.271  10.642  14.847  0.00  0.00    +0.000 OA
ENDBRANCH   6  13
ENDBRANCH   1   9
BRANCH   5  14
ATOM     14  C   UNL     1       1.175   9.424  19.344  0.00  0.00    +0.000 A 
ATOM     15  C   UNL     1       1.340   8.414  20.296  0.00  0.00    +0.000 A 
ATOM     16  C   UNL     1       2.124   7.295  20.008  0.00  0.00    +0.000 A 
ATOM     17  C   UNL     1       2.764   7.176  18.777  0.00  0.00    +0.000 A 
ATOM     18  C   UNL     1       2.629   8.194  17.834  0.00  0.00    +0.000 A 
ATOM     19  C   UNL     1       1.826   9.308  18.113  0.00  0.00    +0.000 A 
BRANCH  17  20
ATOM     20  O   UNL     1       3.530   6.055  18.626  0.00  0.00    +0.000 OA
ATOM     21  C   UNL     1       2.880   4.941  18.026  0.00  0.00    +0.000 C 
ENDBRANCH  17  20
ENDBRANCH   5  14
BRANCH   2  22
ATOM     22  C   UNL     1      -1.693  11.985  21.817  0.00  0.00    +0.000 C 
BRANCH  22  23
ATOM     23  C   UNL     1      -2.329  13.373  21.918  0.00  0.00    +0.000 C 
BRANCH  23  24
ATOM     24  C   UNL     1      -3.473  13.559  20.922  0.00  0.00    +0.000 C 
BRANCH  24  25
ATOM     25  C   UNL     1      -4.781  13.088  21.512  0.00  0.00    +0.000 A 
ATOM     26  C   UNL     1      -5.737  12.465  20.701  0.00  0.00    +0.000 A 
ATOM     27  C   UNL     1      -6.971  12.078  21.230  0.00  0.00    +0.000 A 
ATOM     28  C   UNL     1      -7.258  12.314  22.577  0.00  0.00    +0.000 A 
ATOM     29  C   UNL     1      -6.310  12.930  23.387  0.00  0.00    +0.000 A 
ATOM     30  C   UNL     1      -5.076  13.318  22.861  0.00  0.00    +0.000 A 
ENDBRANCH  24  25
ENDBRANCH  23  24
ENDBRANCH  22  23
ENDBRANCH   2  22
TORSDOF 8
ENDMDL
