MODEL 1
REMARK VINA RESULT:      -7.8      0.000      0.000
REMARK  Name = 
REMARK  8 active torsions:
REMARK  status: ('A' for Active; 'I' for Inactive)
REMARK    1  A    between atoms: C_2  and  C_14
REMARK    2  A    between atoms: N_3  and  C_4
REMARK    3  A    between atoms: C_9  and  S_10
REMARK    4  A    between atoms: C_17  and  O_18
REMARK    5  A    between atoms: O_18  and  C_19
REMARK    6  A    between atoms: C_22  and  O_23
REMARK    7  A    between atoms: O_23  and  C_24
REMARK    8  A    between atoms: C_24  and  C_25
REMARK                            x       y       z     vdW  Elec       q    Type
REMARK                         _______ _______ _______ _____ _____    ______ ____
ROOT
ATOM      1  O   UNL     1       1.983   7.832  19.904  0.00  0.00    +0.000 OA
ATOM      2  C   UNL     1       2.307   7.970  18.728  0.00  0.00    +0.000 C 
ATOM      3  N   UNL     1       1.952   9.009  17.886  0.00  0.00    +0.000 N 
ATOM      4  H   UNL     1       2.092   8.866  16.893  0.00  0.00    +0.000 HD
ENDROOT
BRANCH   3   5
ATOM      5  C   UNL     1       1.200  10.146  18.253  0.00  0.00    +0.000 A 
ATOM      6  C   UNL     1      -0.183  10.118  18.427  0.00  0.00    +0.000 A 
ATOM      7  C   UNL     1      -0.901  11.287  18.707  0.00  0.00    +0.000 A 
ATOM      8  C   UNL     1      -0.225  12.515  18.798  0.00  0.00    +0.000 A 
ATOM      9  N   UNL     1      -0.810  13.752  19.001  0.00  0.00    +0.000 NA
ATOM     10  C   UNL     1       0.118  14.678  18.999  0.00  0.00    +0.000 A 
ATOM     11  S   UNL     1       1.730  14.144  18.826  0.00  0.00    +0.000 S 
ATOM     12  C   UNL     1       1.164  12.523  18.670  0.00  0.00    +0.000 A 
ATOM     13  C   UNL     1       1.901  11.348  18.432  0.00  0.00    +0.000 A 
BRANCH  10  14
ATOM     14  S   UNL     1      -0.314  16.361  19.162  0.00  0.00    +0.000 S 
ATOM     15  H   UNL     1       0.447  16.793  18.146  0.00  0.00    +0.000 HD
ENDBRANCH  10  14
ENDBRANCH   3   5
BRANCH   2  16
ATOM     16  C   UNL     1       3.132   6.902  18.111  0.00  0.00    +0.000 A 
ATOM     17  C   UNL     1       4.160   7.267  17.233  0.00  0.00    +0.000 A 
ATOM     18  C   UNL     1       4.910   6.286  16.581  0.00  0.00    +0.000 A 
ATOM     19  C   UNL     1       4.594   4.936  16.761  0.00  0.00    +0.000 A 
ATOM     20  C   UNL     1       3.549   4.571  17.630  0.00  0.00    +0.000 A 
ATOM     21  C   UNL     1       2.841   5.552  18.328  0.00  0.00    +0.000 A 
BRANCH  19  22
ATOM     22  O   UNL     1       5.261   3.908  16.145  0.00  0.00    +0.000 OA
BRANCH  22  23
ATOM     23  C   UNL     1       6.315   4.296  15.288  0.00  0.00    +0.000 C 
ATOM     24  F   UNL     1       7.480   4.226  15.980  0.00  0.00    +0.000 F 
ATOM     25  F   UNL     1       6.398   3.373  14.296  0.00  0.00    +0.000 F 
ENDBRANCH  22  23
ENDBRANCH  19  22
BRANCH  20  26
ATOM     26  O   UNL     1       3.275   3.230  17.720  0.00  0.00    +0.000 OA
BRANCH  26  27
ATOM     27  C   UNL     1       3.394   2.643  19.016  0.00  0.00    +0.000 C 
BRANCH  27  28
ATOM     28  C   UNL     1       2.082   2.018  19.374  0.00  0.00    +0.000 C 
ATOM     29  C   UNL     1       1.082   2.744  20.236  0.00  0.00    +0.000 C 
ATOM     30  C   UNL     1       0.802   2.538  18.773  0.00  0.00    +0.000 C 
ENDBRANCH  27  28
ENDBRANCH  26  27
ENDBRANCH  20  26
ENDBRANCH   2  16
TORSDOF 8
ENDMDL
MODEL 2
REMARK VINA RESULT:      -7.7      2.056      2.230
REMARK  Name = 
REMARK  8 active torsions:
REMARK  status: ('A' for Active; 'I' for Inactive)
REMARK    1  A    between atoms: C_2  and  C_14
REMARK    2  A    between atoms: N_3  and  C_4
REMARK    3  A    between atoms: C_9  and  S_10
REMARK    4  A    between atoms: C_17  and  O_18
REMARK    5  A    between atoms: O_18  and  C_19
REMARK    6  A    between atoms: C_22  and  O_23
REMARK    7  A    between atoms: O_23  and  C_24
REMARK    8  A    between atoms: C_24  and  C_25
REMARK                            x       y       z     vdW  Elec       q    Type
REMARK                         _______ _______ _______ _____ _____    ______ ____
ROOT
ATOM      1  O   UNL     1       1.937   9.305  17.562  0.00  0.00    +0.000 OA
ATOM      2  C   UNL     1       2.127   8.425  18.396  0.00  0.00    +0.000 C 
ATOM      3  N   UNL     1       1.672   8.407  19.702  0.00  0.00    +0.000 N 
ATOM      4  H   UNL     1       2.105   7.742  20.332  0.00  0.00    +0.000 HD
ENDROOT
BRANCH   3   5
ATOM      5  C   UNL     1       0.840   9.380  20.297  0.00  0.00    +0.000 A 
ATOM      6  C   UNL     1       0.734   9.548  21.677  0.00  0.00    +0.000 A 
ATOM      7  C   UNL     1      -0.168  10.466  22.227  0.00  0.00    +0.000 A 
ATOM      8  C   UNL     1      -0.997  11.222  21.381  0.00  0.00    +0.000 A 
ATOM      9  N   UNL     1      -1.976  12.112  21.784  0.00  0.00    +0.000 NA
ATOM     10  C   UNL     1      -2.572  12.611  20.728  0.00  0.00    +0.000 A 
ATOM     11  S   UNL     1      -1.975  12.115  19.208  0.00  0.00    +0.000 S 
ATOM     12  C   UNL     1      -0.848  11.079  20.001  0.00  0.00    +0.000 A 
ATOM     13  C   UNL     1       0.086  10.191  19.436  0.00  0.00    +0.000 A 
BRANCH  10  14
ATOM     14  S   UNL     1      -3.909  13.717  20.910  0.00  0.00    +0.000 S 
ATOM     15  H   UNL     1      -4.730  13.074  20.069  0.00  0.00    +0.000 HD
ENDBRANCH  10  14
ENDBRANCH   3   5
BRANCH   2  16
ATOM     16  C   UNL     1       2.966   7.267  17.996  0.00  0.00    +0.000 A 
ATOM     17  C   UNL     1       4.091   7.494  17.196  0.00  0.00    +0.000 A 
ATOM     18  C   UNL     1       4.861   6.421  16.743  0.00  0.00    +0.000 A 
ATOM     19  C   UNL     1       4.473   5.111  17.044  0.00  0.00    +0.000 A 
ATOM     20  C   UNL     1       3.332   4.884  17.836  0.00  0.00    +0.000 A 
ATOM     21  C   UNL     1       2.599   5.961  18.337  0.00  0.00    +0.000 A 
BRANCH  19  22
ATOM     22  O   UNL     1       5.155   3.999  16.626  0.00  0.00    +0.000 OA
BRANCH  22  23
ATOM     23  C   UNL     1       6.203   4.239  15.707  0.00  0.00    +0.000 C 
ATOM     24  F   UNL     1       7.384   4.137  16.366  0.00  0.00    +0.000 F 
ATOM     25  F   UNL     1       6.183   3.236  14.792  0.00  0.00    +0.000 F 
ENDBRANCH  22  23
ENDBRANCH  19  22
BRANCH  20  26
ATOM     26  O   UNL     1       2.995   3.572  18.051  0.00  0.00    +0.000 OA
BRANCH  26  27
ATOM     27  C   UNL     1       3.214   3.069  19.369  0.00  0.00    +0.000 C 
BRANCH  27  28
ATOM     28  C   UNL     1       1.911   2.562  19.904  0.00  0.00    +0.000 C 
ATOM     29  C   UNL     1       1.517   2.789  21.341  0.00  0.00    +0.000 C 
ATOM     30  C   UNL     1       0.802   3.524  20.242  0.00  0.00    +0.000 C 
ENDBRANCH  27  28
ENDBRANCH  26  27
ENDBRANCH  20  26
ENDBRANCH   2  16
TORSDOF 8
ENDMDL
MODEL 3
REMARK VINA RESULT:      -7.6      2.957      4.213
REMARK  Name = 
REMARK  8 active torsions:
REMARK  status: ('A' for Active; 'I' for Inactive)
REMARK    1  A    between atoms: C_2  and  C_14
REMARK    2  A    between atoms: N_3  and  C_4
REMARK    3  A    between atoms: C_9  and  S_10
REMARK    4  A    between atoms: C_17  and  O_18
REMARK    5  A    between atoms: O_18  and  C_19
REMARK    6  A    between atoms: C_22  and  O_23
REMARK    7  A    between atoms: O_23  and  C_24
REMARK    8  A    between atoms: C_24  and  C_25
REMARK                            x       y       z     vdW  Elec       q    Type
REMARK                         _______ _______ _______ _____ _____    ______ ____
ROOT
ATOM      1  O   UNL     1       1.880   8.699  19.079  0.00  0.00    +0.000 OA
ATOM      2  C   UNL     1       1.802   7.843  19.954  0.00  0.00    +0.000 C 
ATOM      3  N   UNL     1       1.270   7.998  21.222  0.00  0.00    +0.000 N 
ATOM      4  H   UNL     1       1.492   7.283  21.905  0.00  0.00    +0.000 HD
ENDROOT
BRANCH   3   5
ATOM      5  C   UNL     1       0.653   9.166  21.719  0.00  0.00    +0.000 A 
ATOM      6  C   UNL     1      -0.245   9.156  22.784  0.00  0.00    +0.000 A 
ATOM      7  C   UNL     1      -0.902  10.325  23.189  0.00  0.00    +0.000 A 
ATOM      8  C   UNL     1      -0.668  11.529  22.503  0.00  0.00    +0.000 A 
ATOM      9  N   UNL     1      -1.292  12.739  22.747  0.00  0.00    +0.000 NA
ATOM     10  C   UNL     1      -0.853  13.635  21.897  0.00  0.00    +0.000 A 
ATOM     11  S   UNL     1       0.360  13.126  20.810  0.00  0.00    +0.000 S 
ATOM     12  C   UNL     1       0.269  11.536  21.469  0.00  0.00    +0.000 A 
ATOM     13  C   UNL     1       0.967  10.376  21.082  0.00  0.00    +0.000 A 
BRANCH  10  14
ATOM     14  S   UNL     1      -1.506  15.253  21.904  0.00  0.00    +0.000 S 
ATOM     15  H   UNL     1      -0.925  15.626  23.053  0.00  0.00    +0.000 HD
ENDBRANCH  10  14
ENDBRANCH   3   5
BRANCH   2  16
ATOM     16  C   UNL     1       2.369   6.503  19.659  0.00  0.00    +0.000 A 
ATOM     17  C   UNL     1       1.993   5.420  20.463  0.00  0.00    +0.000 A 
ATOM     18  C   UNL     1       2.560   4.161  20.259  0.00  0.00    +0.000 A 
ATOM     19  C   UNL     1       3.549   3.994  19.284  0.00  0.00    +0.000 A 
ATOM     20  C   UNL     1       3.938   5.088  18.488  0.00  0.00    +0.000 A 
ATOM     21  C   UNL     1       3.325   6.331  18.654  0.00  0.00    +0.000 A 
BRANCH  19  22
ATOM     22  O   UNL     1       4.175   2.802  19.029  0.00  0.00    +0.000 OA
BRANCH  22  23
ATOM     23  C   UNL     1       3.322   1.735  18.663  0.00  0.00    +0.000 C 
ATOM     24  F   UNL     1       2.737   2.042  17.478  0.00  0.00    +0.000 F 
ATOM     25  F   UNL     1       4.101   0.646  18.439  0.00  0.00    +0.000 F 
ENDBRANCH  22  23
ENDBRANCH  19  22
BRANCH  20  26
ATOM     26  O   UNL     1       4.943   4.853  17.584  0.00  0.00    +0.000 OA
BRANCH  26  27
ATOM     27  C   UNL     1       5.423   5.986  16.861  0.00  0.00    +0.000 C 
BRANCH  27  28
ATOM     28  C   UNL     1       6.904   6.077  17.055  0.00  0.00    +0.000 C 
ATOM     29  C   UNL     1       7.547   7.342  17.564  0.00  0.00    +0.000 C 
ATOM     30  C   UNL     1       7.488   6.123  18.443  0.00  0.00    +0.000 C 
ENDBRANCH  27  28
ENDBRANCH  26  27
ENDBRANCH  20  26
ENDBRANCH   2  16
TORSDOF 8
ENDMDL
MODEL 4
REMARK VINA RESULT:      -7.5      2.059      2.412
REMARK  Name = 
REMARK  8 active torsions:
REMARK  status: ('A' for Active; 'I' for Inactive)
REMARK    1  A    between atoms: C_2  and  C_14
REMARK    2  A    between atoms: N_3  and  C_4
REMARK    3  A    between atoms: C_9  and  S_10
REMARK    4  A    between atoms: C_17  and  O_18
REMARK    5  A    between atoms: O_18  and  C_19
REMARK    6  A    between atoms: C_22  and  O_23
REMARK    7  A    between atoms: O_23  and  C_24
REMARK    8  A    between atoms: C_24  and  C_25
REMARK                            x       y       z     vdW  Elec       q    Type
REMARK                         _______ _______ _______ _____ _____    ______ ____
ROOT
ATOM      1  O   UNL     1       1.954   7.409  19.717  0.00  0.00    +0.000 OA
ATOM      2  C   UNL     1       2.433   7.703  18.626  0.00  0.00    +0.000 C 
ATOM      3  N   UNL     1       2.021   8.723  17.787  0.00  0.00    +0.000 N 
ATOM      4  H   UNL     1       2.349   8.692  16.829  0.00  0.00    +0.000 HD
ENDROOT
BRANCH   3   5
ATOM      5  C   UNL     1       1.006   9.663  18.069  0.00  0.00    +0.000 A 
ATOM      6  C   UNL     1       1.228  10.818  18.818  0.00  0.00    +0.000 A 
ATOM      7  C   UNL     1       0.175  11.679  19.148  0.00  0.00    +0.000 A 
ATOM      8  C   UNL     1      -1.133  11.371  18.735  0.00  0.00    +0.000 A 
ATOM      9  N   UNL     1      -2.274  12.090  19.044  0.00  0.00    +0.000 NA
ATOM     10  C   UNL     1      -3.318  11.496  18.520  0.00  0.00    +0.000 A 
ATOM     11  S   UNL     1      -3.013  10.102  17.584  0.00  0.00    +0.000 S 
ATOM     12  C   UNL     1      -1.334  10.239  17.947  0.00  0.00    +0.000 A 
ATOM     13  C   UNL     1      -0.276   9.389  17.572  0.00  0.00    +0.000 A 
BRANCH  10  14
ATOM     14  S   UNL     1      -4.922  12.126  18.794  0.00  0.00    +0.000 S 
ATOM     15  H   UNL     1      -5.557  11.195  18.069  0.00  0.00    +0.000 HD
ENDBRANCH  10  14
ENDBRANCH   3   5
BRANCH   2  16
ATOM     16  C   UNL     1       3.546   6.865  18.114  0.00  0.00    +0.000 A 
ATOM     17  C   UNL     1       4.324   7.351  17.056  0.00  0.00    +0.000 A 
ATOM     18  C   UNL     1       5.333   6.560  16.503  0.00  0.00    +0.000 A 
ATOM     19  C   UNL     1       5.529   5.256  16.971  0.00  0.00    +0.000 A 
ATOM     20  C   UNL     1       4.735   4.764  18.023  0.00  0.00    +0.000 A 
ATOM     21  C   UNL     1       3.767   5.579  18.615  0.00  0.00    +0.000 A 
BRANCH  19  22
ATOM     22  O   UNL     1       6.479   4.403  16.474  0.00  0.00    +0.000 OA
BRANCH  22  23
ATOM     23  C   UNL     1       6.295   4.005  15.130  0.00  0.00    +0.000 C 
ATOM     24  F   UNL     1       4.997   4.212  14.795  0.00  0.00    +0.000 F 
ATOM     25  F   UNL     1       7.033   4.838  14.352  0.00  0.00    +0.000 F 
ENDBRANCH  22  23
ENDBRANCH  19  22
BRANCH  20  26
ATOM     26  O   UNL     1       4.960   3.463  18.395  0.00  0.00    +0.000 OA
BRANCH  26  27
ATOM     27  C   UNL     1       4.175   2.968  19.480  0.00  0.00    +0.000 C 
BRANCH  27  28
ATOM     28  C   UNL     1       3.242   1.925  18.950  0.00  0.00    +0.000 C 
ATOM     29  C   UNL     1       1.748   2.075  19.083  0.00  0.00    +0.000 C 
ATOM     30  C   UNL     1       2.398   2.206  17.734  0.00  0.00    +0.000 C 
ENDBRANCH  27  28
ENDBRANCH  26  27
ENDBRANCH  20  26
ENDBRANCH   2  16
TORSDOF 8
ENDMDL
MODEL 5
REMARK VINA RESULT:      -7.5      2.835      4.092
REMARK  Name = 
REMARK  8 active torsions:
REMARK  status: ('A' for Active; 'I' for Inactive)
REMARK    1  A    between atoms: C_2  and  C_14
REMARK    2  A    between atoms: N_3  and  C_4
REMARK    3  A    between atoms: C_9  and  S_10
REMARK    4  A    between atoms: C_17  and  O_18
REMARK    5  A    between atoms: O_18  and  C_19
REMARK    6  A    between atoms: C_22  and  O_23
REMARK    7  A    between atoms: O_23  and  C_24
REMARK    8  A    between atoms: C_24  and  C_25
REMARK                            x       y       z     vdW  Elec       q    Type
REMARK                         _______ _______ _______ _____ _____    ______ ____
ROOT
ATOM      1  O   UNL     1       1.775   8.586  19.100  0.00  0.00    +0.000 OA
ATOM      2  C   UNL     1       1.743   7.776  20.022  0.00  0.00    +0.000 C 
ATOM      3  N   UNL     1       1.263   7.994  21.301  0.00  0.00    +0.000 N 
ATOM      4  H   UNL     1       1.520   7.318  22.011  0.00  0.00    +0.000 HD
ENDROOT
BRANCH   3   5
ATOM      5  C   UNL     1       0.654   9.182  21.761  0.00  0.00    +0.000 A 
ATOM      6  C   UNL     1      -0.274   9.207  22.801  0.00  0.00    +0.000 A 
ATOM      7  C   UNL     1      -0.918  10.394  23.168  0.00  0.00    +0.000 A 
ATOM      8  C   UNL     1      -0.641  11.582  22.470  0.00  0.00    +0.000 A 
ATOM      9  N   UNL     1      -1.248  12.808  22.677  0.00  0.00    +0.000 NA
ATOM     10  C   UNL     1      -0.767  13.681  21.825  0.00  0.00    +0.000 A 
ATOM     11  S   UNL     1       0.466  13.131  20.782  0.00  0.00    +0.000 S 
ATOM     12  C   UNL     1       0.325  11.554  21.464  0.00  0.00    +0.000 A 
ATOM     13  C   UNL     1       1.010  10.375  21.115  0.00  0.00    +0.000 A 
BRANCH  10  14
ATOM     14  S   UNL     1      -1.388  15.311  21.788  0.00  0.00    +0.000 S 
ATOM     15  H   UNL     1      -2.407  15.047  20.959  0.00  0.00    +0.000 HD
ENDBRANCH  10  14
ENDBRANCH   3   5
BRANCH   2  16
ATOM     16  C   UNL     1       2.310   6.427  19.774  0.00  0.00    +0.000 A 
ATOM     17  C   UNL     1       1.895   5.362  20.583  0.00  0.00    +0.000 A 
ATOM     18  C   UNL     1       2.460   4.096  20.424  0.00  0.00    +0.000 A 
ATOM     19  C   UNL     1       3.485   3.904  19.493  0.00  0.00    +0.000 A 
ATOM     20  C   UNL     1       3.913   4.979  18.692  0.00  0.00    +0.000 A 
ATOM     21  C   UNL     1       3.304   6.230  18.811  0.00  0.00    +0.000 A 
BRANCH  19  22
ATOM     22  O   UNL     1       4.112   2.703  19.284  0.00  0.00    +0.000 OA
BRANCH  22  23
ATOM     23  C   UNL     1       3.286   1.664  18.796  0.00  0.00    +0.000 C 
ATOM     24  F   UNL     1       2.652   2.109  17.682  0.00  0.00    +0.000 F 
ATOM     25  F   UNL     1       4.095   0.649  18.401  0.00  0.00    +0.000 F 
ENDBRANCH  22  23
ENDBRANCH  19  22
BRANCH  20  26
ATOM     26  O   UNL     1       4.952   4.721  17.833  0.00  0.00    +0.000 OA
BRANCH  26  27
ATOM     27  C   UNL     1       4.602   4.477  16.471  0.00  0.00    +0.000 C 
BRANCH  27  28
ATOM     28  C   UNL     1       5.787   3.879  15.779  0.00  0.00    +0.000 C 
ATOM     29  C   UNL     1       6.162   4.292  14.379  0.00  0.00    +0.000 C 
ATOM     30  C   UNL     1       7.024   4.705  15.539  0.00  0.00    +0.000 C 
ENDBRANCH  27  28
ENDBRANCH  26  27
ENDBRANCH  20  26
ENDBRANCH   2  16
TORSDOF 8
ENDMDL
MODEL 6
REMARK VINA RESULT:      -7.5      1.851      2.049
REMARK  Name = 
REMARK  8 active torsions:
REMARK  status: ('A' for Active; 'I' for Inactive)
REMARK    1  A    between atoms: C_2  and  C_14
REMARK    2  A    between atoms: N_3  and  C_4
REMARK    3  A    between atoms: C_9  and  S_10
REMARK    4  A    between atoms: C_17  and  O_18
REMARK    5  A    between atoms: O_18  and  C_19
REMARK    6  A    between atoms: C_22  and  O_23
REMARK    7  A    between atoms: O_23  and  C_24
REMARK    8  A    between atoms: C_24  and  C_25
REMARK                            x       y       z     vdW  Elec       q    Type
REMARK                         _______ _______ _______ _____ _____    ______ ____
ROOT
ATOM      1  O   UNL     1       1.878   7.488  20.214  0.00  0.00    +0.000 OA
ATOM      2  C   UNL     1       2.121   7.783  19.047  0.00  0.00    +0.000 C 
ATOM      3  N   UNL     1       1.605   8.852  18.337  0.00  0.00    +0.000 N 
ATOM      4  H   UNL     1       1.708   8.828  17.330  0.00  0.00    +0.000 HD
ENDROOT
BRANCH   3   5
ATOM      5  C   UNL     1       0.747   9.847  18.855  0.00  0.00    +0.000 A 
ATOM      6  C   UNL     1       1.077  10.636  19.955  0.00  0.00    +0.000 A 
ATOM      7  C   UNL     1       0.162  11.552  20.489  0.00  0.00    +0.000 A 
ATOM      8  C   UNL     1      -1.118  11.670  19.921  0.00  0.00    +0.000 A 
ATOM      9  N   UNL     1      -2.141  12.479  20.383  0.00  0.00    +0.000 NA
ATOM     10  C   UNL     1      -3.201  12.311  19.630  0.00  0.00    +0.000 A 
ATOM     11  S   UNL     1      -3.037  11.249  18.304  0.00  0.00    +0.000 S 
ATOM     12  C   UNL     1      -1.418  10.910  18.791  0.00  0.00    +0.000 A 
ATOM     13  C   UNL     1      -0.492  10.018  18.220  0.00  0.00    +0.000 A 
BRANCH  10  14
ATOM     14  S   UNL     1      -4.688  13.145  20.002  0.00  0.00    +0.000 S 
ATOM     15  H   UNL     1      -4.279  14.347  19.570  0.00  0.00    +0.000 HD
ENDBRANCH  10  14
ENDBRANCH   3   5
BRANCH   2  16
ATOM     16  C   UNL     1       3.030   6.889  18.286  0.00  0.00    +0.000 A 
ATOM     17  C   UNL     1       3.969   7.463  17.420  0.00  0.00    +0.000 A 
ATOM     18  C   UNL     1       4.791   6.651  16.636  0.00  0.00    +0.000 A 
ATOM     19  C   UNL     1       4.635   5.262  16.674  0.00  0.00    +0.000 A 
ATOM     20  C   UNL     1       3.680   4.688  17.533  0.00  0.00    +0.000 A 
ATOM     21  C   UNL     1       2.901   5.499  18.360  0.00  0.00    +0.000 A 
BRANCH  19  22
ATOM     22  O   UNL     1       5.382   4.391  15.925  0.00  0.00    +0.000 OA
BRANCH  22  23
ATOM     23  C   UNL     1       6.694   4.822  15.620  0.00  0.00    +0.000 C 
ATOM     24  F   UNL     1       7.537   4.331  16.562  0.00  0.00    +0.000 F 
ATOM     25  F   UNL     1       7.051   4.248  14.443  0.00  0.00    +0.000 F 
ENDBRANCH  22  23
ENDBRANCH  19  22
BRANCH  20  26
ATOM     26  O   UNL     1       3.560   3.322  17.480  0.00  0.00    +0.000 OA
BRANCH  26  27
ATOM     27  C   UNL     1       3.783   2.619  18.702  0.00  0.00    +0.000 C 
BRANCH  27  28
ATOM     28  C   UNL     1       2.536   1.867  19.049  0.00  0.00    +0.000 C 
ATOM     29  C   UNL     1       1.552   2.411  20.053  0.00  0.00    +0.000 C 
ATOM     30  C   UNL     1       1.192   2.373  18.593  0.00  0.00    +0.000 C 
ENDBRANCH  27  28
ENDBRANCH  26  27
ENDBRANCH  20  26
ENDBRANCH   2  16
TORSDOF 8
ENDMDL
MODEL 7
REMARK VINA RESULT:      -7.4      2.647      2.837
REMARK  Name = 
REMARK  8 active torsions:
REMARK  status: ('A' for Active; 'I' for Inactive)
REMARK    1  A    between atoms: C_2  and  C_14
REMARK    2  A    between atoms: N_3  and  C_4
REMARK    3  A    between atoms: C_9  and  S_10
REMARK    4  A    between atoms: C_17  and  O_18
REMARK    5  A    between atoms: O_18  and  C_19
REMARK    6  A    between atoms: C_22  and  O_23
REMARK    7  A    between atoms: O_23  and  C_24
REMARK    8  A    between atoms: C_24  and  C_25
REMARK                            x       y       z     vdW  Elec       q    Type
REMARK                         _______ _______ _______ _____ _____    ______ ____
ROOT
ATOM      1  O   UNL     1       1.364   6.430  20.965  0.00  0.00    +0.000 OA
ATOM      2  C   UNL     1       1.943   7.208  20.214  0.00  0.00    +0.000 C 
ATOM      3  N   UNL     1       1.762   8.578  20.138  0.00  0.00    +0.000 N 
ATOM      4  H   UNL     1       2.128   9.046  19.318  0.00  0.00    +0.000 HD
ENDROOT
BRANCH   3   5
ATOM      5  C   UNL     1       0.917   9.344  20.970  0.00  0.00    +0.000 A 
ATOM      6  C   UNL     1       0.772   9.100  22.335  0.00  0.00    +0.000 A 
ATOM      7  C   UNL     1      -0.143   9.828  23.106  0.00  0.00    +0.000 A 
ATOM      8  C   UNL     1      -0.942  10.810  22.497  0.00  0.00    +0.000 A 
ATOM      9  N   UNL     1      -1.929  11.555  23.118  0.00  0.00    +0.000 NA
ATOM     10  C   UNL     1      -2.491  12.350  22.239  0.00  0.00    +0.000 A 
ATOM     11  S   UNL     1      -1.851  12.315  20.658  0.00  0.00    +0.000 S 
ATOM     12  C   UNL     1      -0.753  11.077  21.141  0.00  0.00    +0.000 A 
ATOM     13  C   UNL     1       0.194  10.382  20.366  0.00  0.00    +0.000 A 
BRANCH  10  14
ATOM     14  S   UNL     1      -3.827  13.372  22.702  0.00  0.00    +0.000 S 
ATOM     15  H   UNL     1      -3.194  13.965  23.725  0.00  0.00    +0.000 HD
ENDBRANCH  10  14
ENDBRANCH   3   5
BRANCH   2  16
ATOM     16  C   UNL     1       2.915   6.638  19.246  0.00  0.00    +0.000 A 
ATOM     17  C   UNL     1       3.195   7.350  18.074  0.00  0.00    +0.000 A 
ATOM     18  C   UNL     1       4.049   6.811  17.110  0.00  0.00    +0.000 A 
ATOM     19  C   UNL     1       4.581   5.531  17.291  0.00  0.00    +0.000 A 
ATOM     20  C   UNL     1       4.285   4.809  18.463  0.00  0.00    +0.000 A 
ATOM     21  C   UNL     1       3.479   5.376  19.453  0.00  0.00    +0.000 A 
BRANCH  19  22
ATOM     22  O   UNL     1       5.409   4.915  16.390  0.00  0.00    +0.000 OA
BRANCH  22  23
ATOM     23  C   UNL     1       6.735   5.404  16.351  0.00  0.00    +0.000 C 
ATOM     24  F   UNL     1       7.521   4.572  17.078  0.00  0.00    +0.000 F 
ATOM     25  F   UNL     1       7.165   5.320  15.066  0.00  0.00    +0.000 F 
ENDBRANCH  22  23
ENDBRANCH  19  22
BRANCH  20  26
ATOM     26  O   UNL     1       4.811   3.545  18.546  0.00  0.00    +0.000 OA
BRANCH  26  27
ATOM     27  C   UNL     1       4.224   2.676  19.514  0.00  0.00    +0.000 C 
BRANCH  27  28
ATOM     28  C   UNL     1       3.268   1.763  18.812  0.00  0.00    +0.000 C 
ATOM     29  C   UNL     1       1.778   1.941  18.946  0.00  0.00    +0.000 C 
ATOM     30  C   UNL     1       2.458   2.261  17.644  0.00  0.00    +0.000 C 
ENDBRANCH  27  28
ENDBRANCH  26  27
ENDBRANCH  20  26
ENDBRANCH   2  16
TORSDOF 8
ENDMDL
MODEL 8
REMARK VINA RESULT:      -7.4      2.335      3.848
REMARK  Name = 
REMARK  8 active torsions:
REMARK  status: ('A' for Active; 'I' for Inactive)
REMARK    1  A    between atoms: C_2  and  C_14
REMARK    2  A    between atoms: N_3  and  C_4
REMARK    3  A    between atoms: C_9  and  S_10
REMARK    4  A    between atoms: C_17  and  O_18
REMARK    5  A    between atoms: O_18  and  C_19
REMARK    6  A    between atoms: C_22  and  O_23
REMARK    7  A    between atoms: O_23  and  C_24
REMARK    8  A    between atoms: C_24  and  C_25
REMARK                            x       y       z     vdW  Elec       q    Type
REMARK                         _______ _______ _______ _____ _____    ______ ____
ROOT
ATOM      1  O   UNL     1       2.231   9.298  17.575  0.00  0.00    +0.000 OA
ATOM      2  C   UNL     1       1.946   8.629  18.563  0.00  0.00    +0.000 C 
ATOM      3  N   UNL     1       1.125   9.005  19.611  0.00  0.00    +0.000 N 
ATOM      4  H   UNL     1       1.176   8.451  20.458  0.00  0.00    +0.000 HD
ENDROOT
BRANCH   3   5
ATOM      5  C   UNL     1       0.406  10.216  19.700  0.00  0.00    +0.000 A 
ATOM      6  C   UNL     1      -0.798  10.435  19.033  0.00  0.00    +0.000 A 
ATOM      7  C   UNL     1      -1.435  11.681  19.078  0.00  0.00    +0.000 A 
ATOM      8  C   UNL     1      -0.847  12.738  19.793  0.00  0.00    +0.000 A 
ATOM      9  N   UNL     1      -1.326  14.034  19.869  0.00  0.00    +0.000 NA
ATOM     10  C   UNL     1      -0.508  14.758  20.595  0.00  0.00    +0.000 A 
ATOM     11  S   UNL     1       0.828  13.947  21.279  0.00  0.00    +0.000 S 
ATOM     12  C   UNL     1       0.332  12.493  20.496  0.00  0.00    +0.000 A 
ATOM     13  C   UNL     1       0.958  11.233  20.493  0.00  0.00    +0.000 A 
BRANCH  10  14
ATOM     14  S   UNL     1      -0.803  16.463  20.819  0.00  0.00    +0.000 S 
ATOM     15  H   UNL     1      -2.124  16.401  20.599  0.00  0.00    +0.000 HD
ENDBRANCH  10  14
ENDBRANCH   3   5
BRANCH   2  16
ATOM     16  C   UNL     1       2.567   7.286  18.689  0.00  0.00    +0.000 A 
ATOM     17  C   UNL     1       2.227   6.486  19.786  0.00  0.00    +0.000 A 
ATOM     18  C   UNL     1       2.845   5.249  19.973  0.00  0.00    +0.000 A 
ATOM     19  C   UNL     1       3.849   4.833  19.093  0.00  0.00    +0.000 A 
ATOM     20  C   UNL     1       4.202   5.646  17.999  0.00  0.00    +0.000 A 
ATOM     21  C   UNL     1       3.539   6.856  17.781  0.00  0.00    +0.000 A 
BRANCH  19  22
ATOM     22  O   UNL     1       4.523   3.646  19.211  0.00  0.00    +0.000 OA
BRANCH  22  23
ATOM     23  C   UNL     1       3.854   2.637  19.941  0.00  0.00    +0.000 C 
ATOM     24  F   UNL     1       3.109   1.904  19.076  0.00  0.00    +0.000 F 
ATOM     25  F   UNL     1       4.796   1.801  20.445  0.00  0.00    +0.000 F 
ENDBRANCH  22  23
ENDBRANCH  19  22
BRANCH  20  26
ATOM     26  O   UNL     1       5.224   5.187  17.207  0.00  0.00    +0.000 OA
BRANCH  26  27
ATOM     27  C   UNL     1       5.917   6.168  16.436  0.00  0.00    +0.000 C 
BRANCH  27  28
ATOM     28  C   UNL     1       7.297   6.321  16.996  0.00  0.00    +0.000 C 
ATOM     29  C   UNL     1       7.715   7.583  17.705  0.00  0.00    +0.000 C 
ATOM     30  C   UNL     1       7.518   6.314  18.487  0.00  0.00    +0.000 C 
ENDBRANCH  27  28
ENDBRANCH  26  27
ENDBRANCH  20  26
ENDBRANCH   2  16
TORSDOF 8
ENDMDL
MODEL 9
REMARK VINA RESULT:      -7.4      2.203      2.403
REMARK  Name = 
REMARK  8 active torsions:
REMARK  status: ('A' for Active; 'I' for Inactive)
REMARK    1  A    between atoms: C_2  and  C_14
REMARK    2  A    between atoms: N_3  and  C_4
REMARK    3  A    between atoms: C_9  and  S_10
REMARK    4  A    between atoms: C_17  and  O_18
REMARK    5  A    between atoms: O_18  and  C_19
REMARK    6  A    between atoms: C_22  and  O_23
REMARK    7  A    between atoms: O_23  and  C_24
REMARK    8  A    between atoms: C_24  and  C_25
REMARK                            x       y       z     vdW  Elec       q    Type
REMARK                         _______ _______ _______ _____ _____    ______ ____
ROOT
ATOM      1  O   UNL     1       2.297   9.245  17.138  0.00  0.00    +0.000 OA
ATOM      2  C   UNL     1       2.343   8.386  18.013  0.00  0.00    +0.000 C 
ATOM      3  N   UNL     1       1.653   8.385  19.212  0.00  0.00    +0.000 N 
ATOM      4  H   UNL     1       1.972   7.741  19.926  0.00  0.00    +0.000 HD
ENDROOT
BRANCH   3   5
ATOM      5  C   UNL     1       0.707   9.351  19.618  0.00  0.00    +0.000 A 
ATOM      6  C   UNL     1       0.117  10.254  18.736  0.00  0.00    +0.000 A 
ATOM      7  C   UNL     1      -0.750  11.253  19.195  0.00  0.00    +0.000 A 
ATOM      8  C   UNL     1      -1.022  11.362  20.569  0.00  0.00    +0.000 A 
ATOM      9  N   UNL     1      -1.801  12.335  21.169  0.00  0.00    +0.000 NA
ATOM     10  C   UNL     1      -1.809  12.147  22.467  0.00  0.00    +0.000 A 
ATOM     11  S   UNL     1      -0.959  10.786  23.047  0.00  0.00    +0.000 S 
ATOM     12  C   UNL     1      -0.464  10.422  21.436  0.00  0.00    +0.000 A 
ATOM     13  C   UNL     1       0.375   9.388  20.980  0.00  0.00    +0.000 A 
BRANCH  10  14
ATOM     14  S   UNL     1      -2.652  13.260  23.514  0.00  0.00    +0.000 S 
ATOM     15  H   UNL     1      -3.545  12.368  23.965  0.00  0.00    +0.000 HD
ENDBRANCH  10  14
ENDBRANCH   3   5
BRANCH   2  16
ATOM     16  C   UNL     1       3.261   7.238  17.804  0.00  0.00    +0.000 A 
ATOM     17  C   UNL     1       4.508   7.471  17.211  0.00  0.00    +0.000 A 
ATOM     18  C   UNL     1       5.366   6.406  16.935  0.00  0.00    +0.000 A 
ATOM     19  C   UNL     1       4.955   5.096  17.200  0.00  0.00    +0.000 A 
ATOM     20  C   UNL     1       3.695   4.861  17.781  0.00  0.00    +0.000 A 
ATOM     21  C   UNL     1       2.863   5.933  18.111  0.00  0.00    +0.000 A 
BRANCH  19  22
ATOM     22  O   UNL     1       5.722   3.989  16.943  0.00  0.00    +0.000 OA
BRANCH  22  23
ATOM     23  C   UNL     1       6.011   3.755  15.579  0.00  0.00    +0.000 C 
ATOM     24  F   UNL     1       5.080   4.394  14.827  0.00  0.00    +0.000 F 
ATOM     25  F   UNL     1       7.202   4.345  15.305  0.00  0.00    +0.000 F 
ENDBRANCH  22  23
ENDBRANCH  19  22
BRANCH  20  26
ATOM     26  O   UNL     1       3.349   3.547  17.970  0.00  0.00    +0.000 OA
BRANCH  26  27
ATOM     27  C   UNL     1       3.417   3.060  19.310  0.00  0.00    +0.000 C 
BRANCH  27  28
ATOM     28  C   UNL     1       2.134   2.356  19.623  0.00  0.00    +0.000 C 
ATOM     29  C   UNL     1       0.995   3.075  20.298  0.00  0.00    +0.000 C 
ATOM     30  C   UNL     1       0.881   2.681  18.852  0.00  0.00    +0.000 C 
ENDBRANCH  27  28
ENDBRANCH  26  27
ENDBRANCH  20  26
ENDBRANCH   2  16
TORSDOF 8
ENDMDL
