MODEL 1
REMARK VINA RESULT:      -8.1      0.000      0.000
REMARK  Name = 
REMARK  9 active torsions:
REMARK  status: ('A' for Active; 'I' for Inactive)
REMARK    1  A    between atoms: C_1  and  C_2
REMARK    2  A    between atoms: N_10  and  C_11
REMARK    3  A    between atoms: C_13  and  C_14
REMARK    4  A    between atoms: C_14  and  C_15
REMARK    5  A    between atoms: C_14  and  C_16
REMARK    6  A    between atoms: C_14  and  C_17
REMARK    7  A    between atoms: C_25  and  C_26
REMARK    8  A    between atoms: C_27  and  C_28
REMARK    9  A    between atoms: C_29  and  C_30
REMARK                            x       y       z     vdW  Elec       q    Type
REMARK                         _______ _______ _______ _____ _____    ______ ____
ROOT
ATOM      1  C   UNL     1      -2.017  11.626  19.415  0.00  0.00    +0.000 A 
ATOM      2  N   UNL     1      -2.787  12.354  20.286  0.00  0.00    +0.000 NA
ATOM      3  C   UNL     1      -4.083  12.692  20.031  0.00  0.00    +0.000 A 
ATOM      4  N   UNL     1      -4.647  12.279  18.873  0.00  0.00    +0.000 NA
ATOM      5  C   UNL     1      -3.982  11.529  17.966  0.00  0.00    +0.000 A 
ATOM      6  C   UNL     1      -4.731  11.125  16.729  0.00  0.00    +0.000 C 
ATOM      7  C   UNL     1      -2.634  11.159  18.200  0.00  0.00    +0.000 A 
ATOM      8  C   UNL     1      -1.946  10.251  17.195  0.00  0.00    +0.000 C 
ENDROOT
BRANCH   1  18
ATOM      9  C   UNL     1       3.067   6.037  19.380  0.00  0.00    +0.000 C 
ATOM     10  C   UNL     1       2.429   7.381  19.211  0.00  0.00    +0.000 A 
ATOM     11  C   UNL     1       2.632   8.158  18.060  0.00  0.00    +0.000 A 
ATOM     12  C   UNL     1       1.997   9.400  17.926  0.00  0.00    +0.000 A 
ATOM     13  C   UNL     1       1.154   9.881  18.944  0.00  0.00    +0.000 A 
ATOM     14  C   UNL     1       0.991   9.111  20.115  0.00  0.00    +0.000 A 
ATOM     15  C   UNL     1       1.613   7.866  20.232  0.00  0.00    +0.000 A 
ATOM     16  C   UNL     1       0.146   9.578  21.257  0.00  0.00    +0.000 C 
ATOM     17  C   UNL     1      -0.225  11.053  21.157  0.00  0.00    +0.000 C 
ATOM     18  N   UNL     1      -0.642  11.351  19.793  0.00  0.00    +0.000 N 
ATOM     19  C   UNL     1       0.410  11.198  18.771  0.00  0.00    +0.000 C 
ATOM     20  C   UNL     1       1.400  12.376  18.839  0.00  0.00    +0.000 C 
ENDBRANCH   1  18
BRANCH   3  21
ATOM     21  C   UNL     1      -4.903  13.515  21.027  0.00  0.00    +0.000 C 
ATOM     22  C   UNL     1      -5.480  14.787  20.345  0.00  0.00    +0.000 C 
ATOM     23  C   UNL     1      -6.112  12.665  21.480  0.00  0.00    +0.000 C 
BRANCH  21  24
ATOM     24  C   UNL     1      -4.005  13.953  22.199  0.00  0.00    +0.000 A 
ATOM     25  C   UNL     1      -4.015  13.204  23.398  0.00  0.00    +0.000 A 
ATOM     26  C   UNL     1      -3.212  13.568  24.482  0.00  0.00    +0.000 A 
ATOM     27  C   UNL     1      -2.381  14.686  24.396  0.00  0.00    +0.000 A 
ATOM     28  F   UNL     1      -1.604  15.039  25.450  0.00  0.00    +0.000 F 
ATOM     29  C   UNL     1      -2.351  15.440  23.224  0.00  0.00    +0.000 A 
ATOM     30  C   UNL     1      -3.150  15.082  22.135  0.00  0.00    +0.000 A 
ENDBRANCH  21  24
ENDBRANCH   3  21
TORSDOF 3
ENDMDL
MODEL 2
REMARK VINA RESULT:      -8.0      2.677      5.070
REMARK  Name = 
REMARK  9 active torsions:
REMARK  status: ('A' for Active; 'I' for Inactive)
REMARK    1  A    between atoms: C_1  and  C_2
REMARK    2  A    between atoms: N_10  and  C_11
REMARK    3  A    between atoms: C_13  and  C_14
REMARK    4  A    between atoms: C_14  and  C_15
REMARK    5  A    between atoms: C_14  and  C_16
REMARK    6  A    between atoms: C_14  and  C_17
REMARK    7  A    between atoms: C_25  and  C_26
REMARK    8  A    between atoms: C_27  and  C_28
REMARK    9  A    between atoms: C_29  and  C_30
REMARK                            x       y       z     vdW  Elec       q    Type
REMARK                         _______ _______ _______ _____ _____    ______ ____
ROOT
ATOM      1  C   UNL     1      -3.700  12.659  21.730  0.00  0.00    +0.000 A 
ATOM      2  N   UNL     1      -4.327  12.109  20.641  0.00  0.00    +0.000 NA
ATOM      3  C   UNL     1      -5.676  12.168  20.450  0.00  0.00    +0.000 A 
ATOM      4  N   UNL     1      -6.435  12.812  21.364  0.00  0.00    +0.000 NA
ATOM      5  C   UNL     1      -5.907  13.416  22.453  0.00  0.00    +0.000 A 
ATOM      6  C   UNL     1      -6.861  14.110  23.382  0.00  0.00    +0.000 C 
ATOM      7  C   UNL     1      -4.509  13.374  22.682  0.00  0.00    +0.000 A 
ATOM      8  C   UNL     1      -3.947  14.131  23.874  0.00  0.00    +0.000 C 
ENDROOT
BRANCH   1  18
ATOM      9  C   UNL     1       1.765   7.600  20.450  0.00  0.00    +0.000 C 
ATOM     10  C   UNL     1       0.989   8.881  20.476  0.00  0.00    +0.000 A 
ATOM     11  C   UNL     1       0.898   9.714  19.350  0.00  0.00    +0.000 A 
ATOM     12  C   UNL     1       0.141  10.892  19.403  0.00  0.00    +0.000 A 
ATOM     13  C   UNL     1      -0.533  11.252  20.585  0.00  0.00    +0.000 A 
ATOM     14  C   UNL     1      -0.401  10.428  21.723  0.00  0.00    +0.000 A 
ATOM     15  C   UNL     1       0.342   9.247  21.655  0.00  0.00    +0.000 A 
ATOM     16  C   UNL     1      -1.051  10.770  23.026  0.00  0.00    +0.000 C 
ATOM     17  C   UNL     1      -1.565  12.203  23.075  0.00  0.00    +0.000 C 
ATOM     18  N   UNL     1      -2.258  12.508  21.830  0.00  0.00    +0.000 N 
ATOM     19  C   UNL     1      -1.411  12.495  20.623  0.00  0.00    +0.000 C 
ATOM     20  C   UNL     1      -0.536  13.761  20.569  0.00  0.00    +0.000 C 
ENDBRANCH   1  18
BRANCH   3  21
ATOM     21  C   UNL     1      -6.336  11.531  19.225  0.00  0.00    +0.000 C 
ATOM     22  C   UNL     1      -7.113  10.247  19.625  0.00  0.00    +0.000 C 
ATOM     23  C   UNL     1      -7.377  12.525  18.662  0.00  0.00    +0.000 C 
BRANCH  21  24
ATOM     24  C   UNL     1      -5.255  11.148  18.196  0.00  0.00    +0.000 A 
ATOM     25  C   UNL     1      -4.442  10.017  18.431  0.00  0.00    +0.000 A 
ATOM     26  C   UNL     1      -3.453   9.637  17.519  0.00  0.00    +0.000 A 
ATOM     27  C   UNL     1      -3.253  10.376  16.352  0.00  0.00    +0.000 A 
ATOM     28  F   UNL     1      -2.291  10.007  15.470  0.00  0.00    +0.000 F 
ATOM     29  C   UNL     1      -4.043  11.495  16.096  0.00  0.00    +0.000 A 
ATOM     30  C   UNL     1      -5.035  11.881  17.002  0.00  0.00    +0.000 A 
ENDBRANCH  21  24
ENDBRANCH   3  21
TORSDOF 3
ENDMDL
MODEL 3
REMARK VINA RESULT:      -7.8      1.661      2.323
REMARK  Name = 
REMARK  9 active torsions:
REMARK  status: ('A' for Active; 'I' for Inactive)
REMARK    1  A    between atoms: C_1  and  C_2
REMARK    2  A    between atoms: N_10  and  C_11
REMARK    3  A    between atoms: C_13  and  C_14
REMARK    4  A    between atoms: C_14  and  C_15
REMARK    5  A    between atoms: C_14  and  C_16
REMARK    6  A    between atoms: C_14  and  C_17
REMARK    7  A    between atoms: C_25  and  C_26
REMARK    8  A    between atoms: C_27  and  C_28
REMARK    9  A    between atoms: C_29  and  C_30
REMARK                            x       y       z     vdW  Elec       q    Type
REMARK                         _______ _______ _______ _____ _____    ______ ____
ROOT
ATOM      1  C   UNL     1      -1.131  11.702  19.787  0.00  0.00    +0.000 A 
ATOM      2  N   UNL     1      -1.513  12.701  20.646  0.00  0.00    +0.000 NA
ATOM      3  C   UNL     1      -2.752  13.271  20.623  0.00  0.00    +0.000 A 
ATOM      4  N   UNL     1      -3.657  12.823  19.724  0.00  0.00    +0.000 NA
ATOM      5  C   UNL     1      -3.388  11.819  18.858  0.00  0.00    +0.000 A 
ATOM      6  C   UNL     1      -4.488  11.409  17.922  0.00  0.00    +0.000 C 
ATOM      7  C   UNL     1      -2.110  11.205  18.855  0.00  0.00    +0.000 A 
ATOM      8  C   UNL     1      -1.873  10.030  17.922  0.00  0.00    +0.000 C 
ENDROOT
BRANCH   1  18
ATOM      9  C   UNL     1       2.776   5.255  19.283  0.00  0.00    +0.000 C 
ATOM     10  C   UNL     1       2.358   6.682  19.110  0.00  0.00    +0.000 A 
ATOM     11  C   UNL     1       2.428   7.329  17.867  0.00  0.00    +0.000 A 
ATOM     12  C   UNL     1       2.003   8.658  17.738  0.00  0.00    +0.000 A 
ATOM     13  C   UNL     1       1.505   9.357  18.853  0.00  0.00    +0.000 A 
ATOM     14  C   UNL     1       1.478   8.711  20.106  0.00  0.00    +0.000 A 
ATOM     15  C   UNL     1       1.887   7.380  20.221  0.00  0.00    +0.000 A 
ATOM     16  C   UNL     1       1.004   9.404  21.344  0.00  0.00    +0.000 C 
ATOM     17  C   UNL     1       0.879  10.912  21.169  0.00  0.00    +0.000 C 
ATOM     18  N   UNL     1       0.226  11.195  19.897  0.00  0.00    +0.000 N 
ATOM     19  C   UNL     1       0.980  10.778  18.700  0.00  0.00    +0.000 C 
ATOM     20  C   UNL     1       2.147  11.747  18.437  0.00  0.00    +0.000 C 
ENDBRANCH   1  18
BRANCH   3  21
ATOM     21  C   UNL     1      -3.132  14.391  21.594  0.00  0.00    +0.000 C 
ATOM     22  C   UNL     1      -2.017  14.602  22.654  0.00  0.00    +0.000 C 
ATOM     23  C   UNL     1      -3.243  15.710  20.794  0.00  0.00    +0.000 C 
BRANCH  21  24
ATOM     24  C   UNL     1      -4.438  14.022  22.323  0.00  0.00    +0.000 A 
ATOM     25  C   UNL     1      -4.392  13.131  23.419  0.00  0.00    +0.000 A 
ATOM     26  C   UNL     1      -5.555  12.774  24.108  0.00  0.00    +0.000 A 
ATOM     27  C   UNL     1      -6.789  13.298  23.720  0.00  0.00    +0.000 A 
ATOM     28  F   UNL     1      -7.917  12.949  24.388  0.00  0.00    +0.000 F 
ATOM     29  C   UNL     1      -6.861  14.181  22.643  0.00  0.00    +0.000 A 
ATOM     30  C   UNL     1      -5.702  14.543  21.950  0.00  0.00    +0.000 A 
ENDBRANCH  21  24
ENDBRANCH   3  21
TORSDOF 3
ENDMDL
MODEL 4
REMARK VINA RESULT:      -7.8      1.829      2.698
REMARK  Name = 
REMARK  9 active torsions:
REMARK  status: ('A' for Active; 'I' for Inactive)
REMARK    1  A    between atoms: C_1  and  C_2
REMARK    2  A    between atoms: N_10  and  C_11
REMARK    3  A    between atoms: C_13  and  C_14
REMARK    4  A    between atoms: C_14  and  C_15
REMARK    5  A    between atoms: C_14  and  C_16
REMARK    6  A    between atoms: C_14  and  C_17
REMARK    7  A    between atoms: C_25  and  C_26
REMARK    8  A    between atoms: C_27  and  C_28
REMARK    9  A    between atoms: C_29  and  C_30
REMARK                            x       y       z     vdW  Elec       q    Type
REMARK                         _______ _______ _______ _____ _____    ______ ____
ROOT
ATOM      1  C   UNL     1      -1.768  11.526  19.532  0.00  0.00    +0.000 A 
ATOM      2  N   UNL     1      -2.460  12.304  20.424  0.00  0.00    +0.000 NA
ATOM      3  C   UNL     1      -3.753  12.690  20.228  0.00  0.00    +0.000 A 
ATOM      4  N   UNL     1      -4.394  12.275  19.113  0.00  0.00    +0.000 NA
ATOM      5  C   UNL     1      -3.809  11.477  18.191  0.00  0.00    +0.000 A 
ATOM      6  C   UNL     1      -4.639  11.077  17.005  0.00  0.00    +0.000 C 
ATOM      7  C   UNL     1      -2.466  11.057  18.363  0.00  0.00    +0.000 A 
ATOM      8  C   UNL     1      -1.871  10.099  17.346  0.00  0.00    +0.000 C 
ENDROOT
BRANCH   1  18
ATOM      9  C   UNL     1       3.086   5.738  19.347  0.00  0.00    +0.000 C 
ATOM     10  C   UNL     1       2.493   7.103  19.184  0.00  0.00    +0.000 A 
ATOM     11  C   UNL     1       2.665   7.850  18.008  0.00  0.00    +0.000 A 
ATOM     12  C   UNL     1       2.074   9.114  17.883  0.00  0.00    +0.000 A 
ATOM     13  C   UNL     1       1.304   9.647  18.933  0.00  0.00    +0.000 A 
ATOM     14  C   UNL     1       1.172   8.906  20.126  0.00  0.00    +0.000 A 
ATOM     15  C   UNL     1       1.751   7.639  20.235  0.00  0.00    +0.000 A 
ATOM     16  C   UNL     1       0.408   9.427  21.301  0.00  0.00    +0.000 C 
ATOM     17  C   UNL     1       0.089  10.913  21.190  0.00  0.00    +0.000 C 
ATOM     18  N   UNL     1      -0.386  11.203  19.844  0.00  0.00    +0.000 N 
ATOM     19  C   UNL     1       0.604  10.990  18.772  0.00  0.00    +0.000 C 
ATOM     20  C   UNL     1       1.642  12.128  18.765  0.00  0.00    +0.000 C 
ENDBRANCH   1  18
BRANCH   3  21
ATOM     21  C   UNL     1      -4.485  13.569  21.246  0.00  0.00    +0.000 C 
ATOM     22  C   UNL     1      -5.824  12.911  21.677  0.00  0.00    +0.000 C 
ATOM     23  C   UNL     1      -3.610  13.673  22.516  0.00  0.00    +0.000 C 
BRANCH  21  24
ATOM     24  C   UNL     1      -4.794  14.941  20.617  0.00  0.00    +0.000 A 
ATOM     25  C   UNL     1      -6.018  15.134  19.940  0.00  0.00    +0.000 A 
ATOM     26  C   UNL     1      -6.335  16.365  19.358  0.00  0.00    +0.000 A 
ATOM     27  C   UNL     1      -5.438  17.431  19.441  0.00  0.00    +0.000 A 
ATOM     28  F   UNL     1      -5.746  18.624  18.874  0.00  0.00    +0.000 F 
ATOM     29  C   UNL     1      -4.224  17.267  20.105  0.00  0.00    +0.000 A 
ATOM     30  C   UNL     1      -3.901  16.039  20.689  0.00  0.00    +0.000 A 
ENDBRANCH  21  24
ENDBRANCH   3  21
TORSDOF 3
ENDMDL
MODEL 5
REMARK VINA RESULT:      -7.7      2.685      7.627
REMARK  Name = 
REMARK  9 active torsions:
REMARK  status: ('A' for Active; 'I' for Inactive)
REMARK    1  A    between atoms: C_1  and  C_2
REMARK    2  A    between atoms: N_10  and  C_11
REMARK    3  A    between atoms: C_13  and  C_14
REMARK    4  A    between atoms: C_14  and  C_15
REMARK    5  A    between atoms: C_14  and  C_16
REMARK    6  A    between atoms: C_14  and  C_17
REMARK    7  A    between atoms: C_25  and  C_26
REMARK    8  A    between atoms: C_27  and  C_28
REMARK    9  A    between atoms: C_29  and  C_30
REMARK                            x       y       z     vdW  Elec       q    Type
REMARK                         _______ _______ _______ _____ _____    ______ ____
ROOT
ATOM      1  C   UNL     1      -0.380  13.737  21.490  0.00  0.00    +0.000 A 
ATOM      2  N   UNL     1      -0.617  12.521  20.899  0.00  0.00    +0.000 NA
ATOM      3  C   UNL     1       0.320  11.854  20.166  0.00  0.00    +0.000 A 
ATOM      4  N   UNL     1       1.548  12.402  20.026  0.00  0.00    +0.000 NA
ATOM      5  C   UNL     1       1.889  13.579  20.599  0.00  0.00    +0.000 A 
ATOM      6  C   UNL     1       3.291  14.068  20.377  0.00  0.00    +0.000 C 
ATOM      7  C   UNL     1       0.940  14.299  21.367  0.00  0.00    +0.000 A 
ATOM      8  C   UNL     1       1.385  15.576  22.058  0.00  0.00    +0.000 C 
ENDROOT
BRANCH   1  18
ATOM      9  C   UNL     1      -7.560  12.492  23.488  0.00  0.00    +0.000 C 
ATOM     10  C   UNL     1      -6.108  12.856  23.549  0.00  0.00    +0.000 A 
ATOM     11  C   UNL     1      -5.286  12.447  24.611  0.00  0.00    +0.000 A 
ATOM     12  C   UNL     1      -3.927  12.784  24.621  0.00  0.00    +0.000 A 
ATOM     13  C   UNL     1      -3.373  13.538  23.570  0.00  0.00    +0.000 A 
ATOM     14  C   UNL     1      -4.217  13.979  22.529  0.00  0.00    +0.000 A 
ATOM     15  C   UNL     1      -5.568  13.623  22.519  0.00  0.00    +0.000 A 
ATOM     16  C   UNL     1      -3.709  14.821  21.402  0.00  0.00    +0.000 C 
ATOM     17  C   UNL     1      -2.325  15.399  21.669  0.00  0.00    +0.000 C 
ATOM     18  N   UNL     1      -1.469  14.357  22.224  0.00  0.00    +0.000 N 
ATOM     19  C   UNL     1      -1.882  13.847  23.544  0.00  0.00    +0.000 C 
ATOM     20  C   UNL     1      -1.536  14.866  24.646  0.00  0.00    +0.000 C 
ENDBRANCH   1  18
BRANCH   3  21
ATOM     21  C   UNL     1       0.009  10.505  19.515  0.00  0.00    +0.000 C 
ATOM     22  C   UNL     1       1.203  10.027  18.643  0.00  0.00    +0.000 C 
ATOM     23  C   UNL     1      -0.172   9.455  20.636  0.00  0.00    +0.000 C 
BRANCH  21  24
ATOM     24  C   UNL     1      -1.233  10.639  18.614  0.00  0.00    +0.000 A 
ATOM     25  C   UNL     1      -1.312   9.881  17.424  0.00  0.00    +0.000 A 
ATOM     26  C   UNL     1      -2.424   9.974  16.582  0.00  0.00    +0.000 A 
ATOM     27  C   UNL     1      -3.481  10.824  16.907  0.00  0.00    +0.000 A 
ATOM     28  F   UNL     1      -4.558  10.915  16.088  0.00  0.00    +0.000 F 
ATOM     29  C   UNL     1      -3.429  11.581  18.077  0.00  0.00    +0.000 A 
ATOM     30  C   UNL     1      -2.321  11.493  18.924  0.00  0.00    +0.000 A 
ENDBRANCH  21  24
ENDBRANCH   3  21
TORSDOF 3
ENDMDL
MODEL 6
REMARK VINA RESULT:      -7.7      1.108      1.435
REMARK  Name = 
REMARK  9 active torsions:
REMARK  status: ('A' for Active; 'I' for Inactive)
REMARK    1  A    between atoms: C_1  and  C_2
REMARK    2  A    between atoms: N_10  and  C_11
REMARK    3  A    between atoms: C_13  and  C_14
REMARK    4  A    between atoms: C_14  and  C_15
REMARK    5  A    between atoms: C_14  and  C_16
REMARK    6  A    between atoms: C_14  and  C_17
REMARK    7  A    between atoms: C_25  and  C_26
REMARK    8  A    between atoms: C_27  and  C_28
REMARK    9  A    between atoms: C_29  and  C_30
REMARK                            x       y       z     vdW  Elec       q    Type
REMARK                         _______ _______ _______ _____ _____    ______ ____
ROOT
ATOM      1  C   UNL     1      -1.687  11.587  19.336  0.00  0.00    +0.000 A 
ATOM      2  N   UNL     1      -2.336  12.532  20.089  0.00  0.00    +0.000 NA
ATOM      3  C   UNL     1      -3.608  12.948  19.828  0.00  0.00    +0.000 A 
ATOM      4  N   UNL     1      -4.273  12.395  18.789  0.00  0.00    +0.000 NA
ATOM      5  C   UNL     1      -3.732  11.432  18.008  0.00  0.00    +0.000 A 
ATOM      6  C   UNL     1      -4.584  10.892  16.896  0.00  0.00    +0.000 C 
ATOM      7  C   UNL     1      -2.412  10.976  18.252  0.00  0.00    +0.000 A 
ATOM      8  C   UNL     1      -1.870   9.839  17.403  0.00  0.00    +0.000 C 
ENDROOT
BRANCH   1  18
ATOM      9  C   UNL     1       3.028   5.687  19.553  0.00  0.00    +0.000 C 
ATOM     10  C   UNL     1       2.473   7.057  19.312  0.00  0.00    +0.000 A 
ATOM     11  C   UNL     1       2.697   7.746  18.110  0.00  0.00    +0.000 A 
ATOM     12  C   UNL     1       2.140   9.016  17.911  0.00  0.00    +0.000 A 
ATOM     13  C   UNL     1       1.354   9.614  18.913  0.00  0.00    +0.000 A 
ATOM     14  C   UNL     1       1.170   8.930  20.133  0.00  0.00    +0.000 A 
ATOM     15  C   UNL     1       1.715   7.656  20.316  0.00  0.00    +0.000 A 
ATOM     16  C   UNL     1       0.385   9.521  21.261  0.00  0.00    +0.000 C 
ATOM     17  C   UNL     1       0.106  11.007  21.075  0.00  0.00    +0.000 C 
ATOM     18  N   UNL     1      -0.323  11.247  19.703  0.00  0.00    +0.000 N 
ATOM     19  C   UNL     1       0.692  10.963  18.671  0.00  0.00    +0.000 C 
ATOM     20  C   UNL     1       1.756  12.076  18.645  0.00  0.00    +0.000 C 
ENDBRANCH   1  18
BRANCH   3  21
ATOM     21  C   UNL     1      -4.291  14.013  20.689  0.00  0.00    +0.000 C 
ATOM     22  C   UNL     1      -3.498  15.349  20.641  0.00  0.00    +0.000 C 
ATOM     23  C   UNL     1      -5.686  14.302  20.088  0.00  0.00    +0.000 C 
BRANCH  21  24
ATOM     24  C   UNL     1      -4.355  13.534  22.151  0.00  0.00    +0.000 A 
ATOM     25  C   UNL     1      -5.607  13.218  22.723  0.00  0.00    +0.000 A 
ATOM     26  C   UNL     1      -5.706  12.776  24.046  0.00  0.00    +0.000 A 
ATOM     27  C   UNL     1      -4.557  12.640  24.827  0.00  0.00    +0.000 A 
ATOM     28  F   UNL     1      -4.655  12.215  26.111  0.00  0.00    +0.000 F 
ATOM     29  C   UNL     1      -3.309  12.943  24.286  0.00  0.00    +0.000 A 
ATOM     30  C   UNL     1      -3.203  13.384  22.964  0.00  0.00    +0.000 A 
ENDBRANCH  21  24
ENDBRANCH   3  21
TORSDOF 3
ENDMDL
MODEL 7
REMARK VINA RESULT:      -7.7      1.071      1.566
REMARK  Name = 
REMARK  9 active torsions:
REMARK  status: ('A' for Active; 'I' for Inactive)
REMARK    1  A    between atoms: C_1  and  C_2
REMARK    2  A    between atoms: N_10  and  C_11
REMARK    3  A    between atoms: C_13  and  C_14
REMARK    4  A    between atoms: C_14  and  C_15
REMARK    5  A    between atoms: C_14  and  C_16
REMARK    6  A    between atoms: C_14  and  C_17
REMARK    7  A    between atoms: C_25  and  C_26
REMARK    8  A    between atoms: C_27  and  C_28
REMARK    9  A    between atoms: C_29  and  C_30
REMARK                            x       y       z     vdW  Elec       q    Type
REMARK                         _______ _______ _______ _____ _____    ______ ____
ROOT
ATOM      1  C   UNL     1      -1.743  11.576  19.554  0.00  0.00    +0.000 A 
ATOM      2  N   UNL     1      -2.413  12.385  20.437  0.00  0.00    +0.000 NA
ATOM      3  C   UNL     1      -3.704  12.780  20.253  0.00  0.00    +0.000 A 
ATOM      4  N   UNL     1      -4.368  12.345  19.159  0.00  0.00    +0.000 NA
ATOM      5  C   UNL     1      -3.807  11.517  18.248  0.00  0.00    +0.000 A 
ATOM      6  C   UNL     1      -4.661  11.098  17.086  0.00  0.00    +0.000 C 
ATOM      7  C   UNL     1      -2.466  11.087  18.409  0.00  0.00    +0.000 A 
ATOM      8  C   UNL     1      -1.899  10.096  17.407  0.00  0.00    +0.000 C 
ENDROOT
BRANCH   1  18
ATOM      9  C   UNL     1       3.051   5.738  19.402  0.00  0.00    +0.000 C 
ATOM     10  C   UNL     1       2.469   7.106  19.223  0.00  0.00    +0.000 A 
ATOM     11  C   UNL     1       2.631   7.831  18.032  0.00  0.00    +0.000 A 
ATOM     12  C   UNL     1       2.050   9.098  17.892  0.00  0.00    +0.000 A 
ATOM     13  C   UNL     1       1.301   9.657  18.944  0.00  0.00    +0.000 A 
ATOM     14  C   UNL     1       1.180   8.938  20.152  0.00  0.00    +0.000 A 
ATOM     15  C   UNL     1       1.748   7.668  20.276  0.00  0.00    +0.000 A 
ATOM     16  C   UNL     1       0.437   9.488  21.328  0.00  0.00    +0.000 C 
ATOM     17  C   UNL     1       0.132  10.974  21.196  0.00  0.00    +0.000 C 
ATOM     18  N   UNL     1      -0.360  11.245  19.851  0.00  0.00    +0.000 N 
ATOM     19  C   UNL     1       0.612  11.003  18.769  0.00  0.00    +0.000 C 
ATOM     20  C   UNL     1       1.660  12.131  18.727  0.00  0.00    +0.000 C 
ENDBRANCH   1  18
BRANCH   3  21
ATOM     21  C   UNL     1      -4.409  13.692  21.259  0.00  0.00    +0.000 C 
ATOM     22  C   UNL     1      -5.695  14.304  20.639  0.00  0.00    +0.000 C 
ATOM     23  C   UNL     1      -4.861  12.831  22.462  0.00  0.00    +0.000 C 
BRANCH  21  24
ATOM     24  C   UNL     1      -3.467  14.841  21.665  0.00  0.00    +0.000 A 
ATOM     25  C   UNL     1      -3.223  15.893  20.755  0.00  0.00    +0.000 A 
ATOM     26  C   UNL     1      -2.376  16.955  21.088  0.00  0.00    +0.000 A 
ATOM     27  C   UNL     1      -1.754  16.990  22.337  0.00  0.00    +0.000 A 
ATOM     28  F   UNL     1      -0.931  18.019  22.657  0.00  0.00    +0.000 F 
ATOM     29  C   UNL     1      -1.979  15.965  23.254  0.00  0.00    +0.000 A 
ATOM     30  C   UNL     1      -2.826  14.901  22.928  0.00  0.00    +0.000 A 
ENDBRANCH  21  24
ENDBRANCH   3  21
TORSDOF 3
ENDMDL
MODEL 8
REMARK VINA RESULT:      -7.7      1.694      2.452
REMARK  Name = 
REMARK  9 active torsions:
REMARK  status: ('A' for Active; 'I' for Inactive)
REMARK    1  A    between atoms: C_1  and  C_2
REMARK    2  A    between atoms: N_10  and  C_11
REMARK    3  A    between atoms: C_13  and  C_14
REMARK    4  A    between atoms: C_14  and  C_15
REMARK    5  A    between atoms: C_14  and  C_16
REMARK    6  A    between atoms: C_14  and  C_17
REMARK    7  A    between atoms: C_25  and  C_26
REMARK    8  A    between atoms: C_27  and  C_28
REMARK    9  A    between atoms: C_29  and  C_30
REMARK                            x       y       z     vdW  Elec       q    Type
REMARK                         _______ _______ _______ _____ _____    ______ ____
ROOT
ATOM      1  C   UNL     1      -1.542  11.208  19.434  0.00  0.00    +0.000 A 
ATOM      2  N   UNL     1      -2.248  11.929  20.363  0.00  0.00    +0.000 NA
ATOM      3  C   UNL     1      -3.544  12.312  20.181  0.00  0.00    +0.000 A 
ATOM      4  N   UNL     1      -4.174  11.953  19.040  0.00  0.00    +0.000 NA
ATOM      5  C   UNL     1      -3.575  11.213  18.079  0.00  0.00    +0.000 A 
ATOM      6  C   UNL     1      -4.393  10.871  16.867  0.00  0.00    +0.000 C 
ATOM      7  C   UNL     1      -2.228  10.798  18.236  0.00  0.00    +0.000 A 
ATOM      8  C   UNL     1      -1.617   9.903  17.172  0.00  0.00    +0.000 C 
ENDROOT
BRANCH   1  18
ATOM      9  C   UNL     1       3.274   5.387  19.305  0.00  0.00    +0.000 C 
ATOM     10  C   UNL     1       2.687   6.753  19.124  0.00  0.00    +0.000 A 
ATOM     11  C   UNL     1       2.851   7.477  17.932  0.00  0.00    +0.000 A 
ATOM     12  C   UNL     1       2.266   8.741  17.789  0.00  0.00    +0.000 A 
ATOM     13  C   UNL     1       1.512   9.299  18.837  0.00  0.00    +0.000 A 
ATOM     14  C   UNL     1       1.388   8.581  20.046  0.00  0.00    +0.000 A 
ATOM     15  C   UNL     1       1.961   7.313  20.173  0.00  0.00    +0.000 A 
ATOM     16  C   UNL     1       0.640   9.129  21.219  0.00  0.00    +0.000 C 
ATOM     17  C   UNL     1       0.329  10.615  21.084  0.00  0.00    +0.000 C 
ATOM     18  N   UNL     1      -0.159  10.882  19.737  0.00  0.00    +0.000 N 
ATOM     19  C   UNL     1       0.818  10.643  18.659  0.00  0.00    +0.000 C 
ATOM     20  C   UNL     1       1.862  11.774  18.619  0.00  0.00    +0.000 C 
ENDBRANCH   1  18
BRANCH   3  21
ATOM     21  C   UNL     1      -4.291  13.125  21.240  0.00  0.00    +0.000 C 
ATOM     22  C   UNL     1      -5.736  12.586  21.428  0.00  0.00    +0.000 C 
ATOM     23  C   UNL     1      -3.567  12.941  22.593  0.00  0.00    +0.000 C 
BRANCH  21  24
ATOM     24  C   UNL     1      -4.372  14.599  20.799  0.00  0.00    +0.000 A 
ATOM     25  C   UNL     1      -3.230  15.422  20.918  0.00  0.00    +0.000 A 
ATOM     26  C   UNL     1      -3.263  16.764  20.526  0.00  0.00    +0.000 A 
ATOM     27  C   UNL     1      -4.436  17.313  20.005  0.00  0.00    +0.000 A 
ATOM     28  F   UNL     1      -4.467  18.616  19.628  0.00  0.00    +0.000 F 
ATOM     29  C   UNL     1      -5.575  16.522  19.875  0.00  0.00    +0.000 A 
ATOM     30  C   UNL     1      -5.550  15.180  20.264  0.00  0.00    +0.000 A 
ENDBRANCH  21  24
ENDBRANCH   3  21
TORSDOF 3
ENDMDL
MODEL 9
REMARK VINA RESULT:      -7.6      2.584      4.949
REMARK  Name = 
REMARK  9 active torsions:
REMARK  status: ('A' for Active; 'I' for Inactive)
REMARK    1  A    between atoms: C_1  and  C_2
REMARK    2  A    between atoms: N_10  and  C_11
REMARK    3  A    between atoms: C_13  and  C_14
REMARK    4  A    between atoms: C_14  and  C_15
REMARK    5  A    between atoms: C_14  and  C_16
REMARK    6  A    between atoms: C_14  and  C_17
REMARK    7  A    between atoms: C_25  and  C_26
REMARK    8  A    between atoms: C_27  and  C_28
REMARK    9  A    between atoms: C_29  and  C_30
REMARK                            x       y       z     vdW  Elec       q    Type
REMARK                         _______ _______ _______ _____ _____    ______ ____
ROOT
ATOM      1  C   UNL     1      -2.360  13.073  21.151  0.00  0.00    +0.000 A 
ATOM      2  N   UNL     1      -3.214  12.478  20.257  0.00  0.00    +0.000 NA
ATOM      3  C   UNL     1      -4.494  12.901  20.055  0.00  0.00    +0.000 A 
ATOM      4  N   UNL     1      -4.944  13.968  20.754  0.00  0.00    +0.000 NA
ATOM      5  C   UNL     1      -4.168  14.642  21.633  0.00  0.00    +0.000 A 
ATOM      6  C   UNL     1      -4.788  15.818  22.332  0.00  0.00    +0.000 C 
ATOM      7  C   UNL     1      -2.833  14.229  21.866  0.00  0.00    +0.000 A 
ATOM      8  C   UNL     1      -1.970  15.059  22.802  0.00  0.00    +0.000 C 
ENDROOT
BRANCH   1  18
ATOM      9  C   UNL     1       2.257   8.048  17.905  0.00  0.00    +0.000 C 
ATOM     10  C   UNL     1       1.736   9.304  18.532  0.00  0.00    +0.000 A 
ATOM     11  C   UNL     1       2.046  10.573  18.018  0.00  0.00    +0.000 A 
ATOM     12  C   UNL     1       1.520  11.725  18.616  0.00  0.00    +0.000 A 
ATOM     13  C   UNL     1       0.678  11.622  19.739  0.00  0.00    +0.000 A 
ATOM     14  C   UNL     1       0.406  10.345  20.272  0.00  0.00    +0.000 A 
ATOM     15  C   UNL     1       0.921   9.201  19.658  0.00  0.00    +0.000 A 
ATOM     16  C   UNL     1      -0.444  10.160  21.490  0.00  0.00    +0.000 C 
ATOM     17  C   UNL     1      -0.691  11.461  22.244  0.00  0.00    +0.000 C 
ATOM     18  N   UNL     1      -1.027  12.512  21.291  0.00  0.00    +0.000 N 
ATOM     19  C   UNL     1       0.050  12.868  20.348  0.00  0.00    +0.000 C 
ATOM     20  C   UNL     1       1.127  13.709  21.057  0.00  0.00    +0.000 C 
ENDBRANCH   1  18
BRANCH   3  21
ATOM     21  C   UNL     1      -5.416  12.202  19.054  0.00  0.00    +0.000 C 
ATOM     22  C   UNL     1      -6.368  11.213  19.783  0.00  0.00    +0.000 C 
ATOM     23  C   UNL     1      -6.311  13.272  18.388  0.00  0.00    +0.000 C 
BRANCH  21  24
ATOM     24  C   UNL     1      -4.572  11.410  18.038  0.00  0.00    +0.000 A 
ATOM     25  C   UNL     1      -4.651  11.737  16.666  0.00  0.00    +0.000 A 
ATOM     26  C   UNL     1      -3.898  11.043  15.714  0.00  0.00    +0.000 A 
ATOM     27  C   UNL     1      -3.049  10.009  16.110  0.00  0.00    +0.000 A 
ATOM     28  F   UNL     1      -2.321   9.335  15.185  0.00  0.00    +0.000 F 
ATOM     29  C   UNL     1      -2.950   9.669  17.458  0.00  0.00    +0.000 A 
ATOM     30  C   UNL     1      -3.699  10.358  18.416  0.00  0.00    +0.000 A 
ENDBRANCH  21  24
ENDBRANCH   3  21
TORSDOF 3
ENDMDL
