MODEL 1
REMARK VINA RESULT:      -6.3      0.000      0.000
REMARK  Name = 
REMARK  7 active torsions:
REMARK  status: ('A' for Active; 'I' for Inactive)
REMARK    1  A    between atoms: C_2  and  C_9
REMARK    2  A    between atoms: N_3  and  C_4
REMARK    3  A    between atoms: C_12  and  N_13
REMARK    4  A    between atoms: N_13  and  C_14
REMARK    5  A    between atoms: N_13  and  C_17
REMARK    6  A    between atoms: C_14  and  C_15
REMARK    7  A    between atoms: C_17  and  C_18
REMARK                            x       y       z     vdW  Elec       q    Type
REMARK                         _______ _______ _______ _____ _____    ______ ____
ROOT
ATOM      1  C   UNL     1       2.816   5.869  18.962  0.00  0.00    +0.000 A 
ATOM      2  C   UNL     1       3.012   4.550  18.611  0.00  0.00    +0.000 A 
ATOM      3  C   UNL     1       3.981   4.218  17.652  0.00  0.00    +0.000 A 
ATOM      4  C   UNL     1       4.693   5.156  16.876  0.00  0.00    +0.000 A 
ATOM      5  C   UNL     1       4.409   6.495  17.215  0.00  0.00    +0.000 A 
ATOM      6  C   UNL     1       3.502   6.848  18.243  0.00  0.00    +0.000 A 
ENDROOT
BRANCH   1   8
ATOM      7  O   UNL     1       1.399   5.216  20.723  0.00  0.00    +0.000 OA
ATOM      8  C   UNL     1       1.971   6.165  20.135  0.00  0.00    +0.000 C 
ATOM      9  N   UNL     1       1.871   7.469  20.515  0.00  0.00    +0.000 N 
ATOM     10  H   UNL     1       2.215   8.187  19.879  0.00  0.00    +0.000 HD
BRANCH   9  11
ATOM     11  C   UNL     1       1.063   7.900  21.634  0.00  0.00    +0.000 C 
ATOM     12  C   UNL     1       1.616   9.145  22.317  0.00  0.00    +0.000 C 
ATOM     13  C   UNL     1       0.440   9.645  23.146  0.00  0.00    +0.000 C 
ATOM     14  C   UNL     1      -0.816   9.227  22.377  0.00  0.00    +0.000 C 
ATOM     15  C   UNL     1      -0.339   8.341  21.226  0.00  0.00    +0.000 C 
ENDBRANCH   9  11
ENDBRANCH   1   8
BRANCH   4  16
ATOM     16  N   UNL     1       5.620   4.807  15.889  0.00  0.00    +0.000 N 
BRANCH  16  17
ATOM     17  C   UNL     1       5.253   4.371  14.502  0.00  0.00    +0.000 C 
BRANCH  17  18
ATOM     18  C   UNL     1       6.378   3.924  13.562  0.00  0.00    +0.000 C 
ATOM     19 CL   UNL     1       5.854   3.136  12.061  0.00  0.00    +0.000 Cl
ENDBRANCH  17  18
ENDBRANCH  16  17
BRANCH  16  20
ATOM     20  C   UNL     1       7.072   5.058  16.101  0.00  0.00    +0.000 C 
BRANCH  20  21
ATOM     21  C   UNL     1       7.608   4.548  17.446  0.00  0.00    +0.000 C 
ATOM     22 CL   UNL     1       7.749   5.875  18.640  0.00  0.00    +0.000 Cl
ENDBRANCH  20  21
ENDBRANCH  16  20
ENDBRANCH   4  16
TORSDOF 7
ENDMDL
MODEL 2
REMARK VINA RESULT:      -6.2      2.006      3.285
REMARK  Name = 
REMARK  7 active torsions:
REMARK  status: ('A' for Active; 'I' for Inactive)
REMARK    1  A    between atoms: C_2  and  C_9
REMARK    2  A    between atoms: N_3  and  C_4
REMARK    3  A    between atoms: C_12  and  N_13
REMARK    4  A    between atoms: N_13  and  C_14
REMARK    5  A    between atoms: N_13  and  C_17
REMARK    6  A    between atoms: C_14  and  C_15
REMARK    7  A    between atoms: C_17  and  C_18
REMARK                            x       y       z     vdW  Elec       q    Type
REMARK                         _______ _______ _______ _____ _____    ______ ____
ROOT
ATOM      1  C   UNL     1       2.437   7.346  19.221  0.00  0.00    +0.000 A 
ATOM      2  C   UNL     1       2.837   6.121  19.712  0.00  0.00    +0.000 A 
ATOM      3  C   UNL     1       3.882   5.424  19.086  0.00  0.00    +0.000 A 
ATOM      4  C   UNL     1       4.479   5.804  17.867  0.00  0.00    +0.000 A 
ATOM      5  C   UNL     1       3.990   7.026  17.359  0.00  0.00    +0.000 A 
ATOM      6  C   UNL     1       3.001   7.789  18.025  0.00  0.00    +0.000 A 
ENDROOT
BRANCH   1   8
ATOM      7  O   UNL     1       1.248   7.789  21.203  0.00  0.00    +0.000 OA
ATOM      8  C   UNL     1       1.512   8.160  20.034  0.00  0.00    +0.000 C 
ATOM      9  N   UNL     1       1.002   9.283  19.456  0.00  0.00    +0.000 N 
ATOM     10  H   UNL     1       1.122   9.409  18.453  0.00  0.00    +0.000 HD
BRANCH   9  11
ATOM     11  C   UNL     1       0.071  10.159  20.133  0.00  0.00    +0.000 C 
ATOM     12  C   UNL     1       0.761  11.318  20.843  0.00  0.00    +0.000 C 
ATOM     13  C   UNL     1      -0.375  12.298  21.105  0.00  0.00    +0.000 C 
ATOM     14  C   UNL     1      -1.373  12.090  19.963  0.00  0.00    +0.000 C 
ATOM     15  C   UNL     1      -0.880  10.874  19.178  0.00  0.00    +0.000 C 
ENDBRANCH   9  11
ENDBRANCH   1   8
BRANCH   4  16
ATOM     16  N   UNL     1       5.486   5.072  17.231  0.00  0.00    +0.000 N 
BRANCH  16  17
ATOM     17  C   UNL     1       6.803   4.726  17.858  0.00  0.00    +0.000 C 
BRANCH  17  18
ATOM     18  C   UNL     1       7.641   5.862  18.456  0.00  0.00    +0.000 C 
ATOM     19 CL   UNL     1       7.651   7.375  17.529  0.00  0.00    +0.000 Cl
ENDBRANCH  17  18
ENDBRANCH  16  17
BRANCH  16  20
ATOM     20  C   UNL     1       5.216   4.395  15.932  0.00  0.00    +0.000 C 
BRANCH  20  21
ATOM     21  C   UNL     1       6.115   4.866  14.780  0.00  0.00    +0.000 C 
ATOM     22 CL   UNL     1       6.030   3.745  13.385  0.00  0.00    +0.000 Cl
ENDBRANCH  20  21
ENDBRANCH  16  20
ENDBRANCH   4  16
TORSDOF 7
ENDMDL
MODEL 3
REMARK VINA RESULT:      -6.2      0.942      1.327
REMARK  Name = 
REMARK  7 active torsions:
REMARK  status: ('A' for Active; 'I' for Inactive)
REMARK    1  A    between atoms: C_2  and  C_9
REMARK    2  A    between atoms: N_3  and  C_4
REMARK    3  A    between atoms: C_12  and  N_13
REMARK    4  A    between atoms: N_13  and  C_14
REMARK    5  A    between atoms: N_13  and  C_17
REMARK    6  A    between atoms: C_14  and  C_15
REMARK    7  A    between atoms: C_17  and  C_18
REMARK                            x       y       z     vdW  Elec       q    Type
REMARK                         _______ _______ _______ _____ _____    ______ ____
ROOT
ATOM      1  C   UNL     1       2.976   6.354  19.388  0.00  0.00    +0.000 A 
ATOM      2  C   UNL     1       3.168   7.077  18.230  0.00  0.00    +0.000 A 
ATOM      3  C   UNL     1       4.037   6.595  17.240  0.00  0.00    +0.000 A 
ATOM      4  C   UNL     1       4.879   5.475  17.391  0.00  0.00    +0.000 A 
ATOM      5  C   UNL     1       4.705   4.805  18.620  0.00  0.00    +0.000 A 
ATOM      6  C   UNL     1       3.767   5.224  19.594  0.00  0.00    +0.000 A 
ENDROOT
BRANCH   1   8
ATOM      7  O   UNL     1       1.295   5.874  20.964  0.00  0.00    +0.000 OA
ATOM      8  C   UNL     1       1.884   6.757  20.295  0.00  0.00    +0.000 C 
ATOM      9  N   UNL     1       1.584   8.085  20.354  0.00  0.00    +0.000 N 
ATOM     10  H   UNL     1       1.982   8.703  19.650  0.00  0.00    +0.000 HD
BRANCH   9  11
ATOM     11  C   UNL     1       0.526   8.613  21.187  0.00  0.00    +0.000 C 
ATOM     12  C   UNL     1       1.031   9.124  22.531  0.00  0.00    +0.000 C 
ATOM     13  C   UNL     1      -0.119   9.985  23.037  0.00  0.00    +0.000 C 
ATOM     14  C   UNL     1      -0.799  10.544  21.786  0.00  0.00    +0.000 C 
ATOM     15  C   UNL     1      -0.142   9.850  20.593  0.00  0.00    +0.000 C 
ENDBRANCH   9  11
ENDBRANCH   1   8
BRANCH   4  16
ATOM     16  N   UNL     1       5.776   5.036  16.413  0.00  0.00    +0.000 N 
BRANCH  16  17
ATOM     17  C   UNL     1       5.367   4.457  15.092  0.00  0.00    +0.000 C 
BRANCH  17  18
ATOM     18  C   UNL     1       6.461   4.177  14.054  0.00  0.00    +0.000 C 
ATOM     19 CL   UNL     1       5.915   3.389  12.561  0.00  0.00    +0.000 Cl
ENDBRANCH  17  18
ENDBRANCH  16  17
BRANCH  16  20
ATOM     20  C   UNL     1       7.231   5.322  16.546  0.00  0.00    +0.000 C 
BRANCH  20  21
ATOM     21  C   UNL     1       7.550   6.613  17.313  0.00  0.00    +0.000 C 
ATOM     22 CL   UNL     1       8.009   6.270  19.010  0.00  0.00    +0.000 Cl
ENDBRANCH  20  21
ENDBRANCH  16  20
ENDBRANCH   4  16
TORSDOF 7
ENDMDL
MODEL 4
REMARK VINA RESULT:      -6.1      1.676      1.751
REMARK  Name = 
REMARK  7 active torsions:
REMARK  status: ('A' for Active; 'I' for Inactive)
REMARK    1  A    between atoms: C_2  and  C_9
REMARK    2  A    between atoms: N_3  and  C_4
REMARK    3  A    between atoms: C_12  and  N_13
REMARK    4  A    between atoms: N_13  and  C_14
REMARK    5  A    between atoms: N_13  and  C_17
REMARK    6  A    between atoms: C_14  and  C_15
REMARK    7  A    between atoms: C_17  and  C_18
REMARK                            x       y       z     vdW  Elec       q    Type
REMARK                         _______ _______ _______ _____ _____    ______ ____
ROOT
ATOM      1  C   UNL     1       2.806   7.074  18.476  0.00  0.00    +0.000 A 
ATOM      2  C   UNL     1       2.804   5.695  18.487  0.00  0.00    +0.000 A 
ATOM      3  C   UNL     1       3.782   4.988  17.773  0.00  0.00    +0.000 A 
ATOM      4  C   UNL     1       4.710   5.578  16.890  0.00  0.00    +0.000 A 
ATOM      5  C   UNL     1       4.631   6.985  16.851  0.00  0.00    +0.000 A 
ATOM      6  C   UNL     1       3.710   7.722  17.635  0.00  0.00    +0.000 A 
ENDROOT
BRANCH   1   8
ATOM      7  O   UNL     1       1.733   7.291  20.560  0.00  0.00    +0.000 OA
ATOM      8  C   UNL     1       1.923   7.785  19.422  0.00  0.00    +0.000 C 
ATOM      9  N   UNL     1       1.369   8.953  18.995  0.00  0.00    +0.000 N 
ATOM     10  H   UNL     1       1.427   9.184  18.005  0.00  0.00    +0.000 HD
BRANCH   9  11
ATOM     11  C   UNL     1       0.472   9.740  19.812  0.00  0.00    +0.000 C 
ATOM     12  C   UNL     1       1.112  11.026  20.321  0.00  0.00    +0.000 C 
ATOM     13  C   UNL     1      -0.080  11.861  20.771  0.00  0.00    +0.000 C 
ATOM     14  C   UNL     1      -1.242  11.444  19.866  0.00  0.00    +0.000 C 
ATOM     15  C   UNL     1      -0.742  10.255  19.045  0.00  0.00    +0.000 C 
ENDBRANCH   9  11
ENDBRANCH   1   8
BRANCH   4  16
ATOM     16  N   UNL     1       5.648   4.854  16.147  0.00  0.00    +0.000 N 
BRANCH  16  17
ATOM     17  C   UNL     1       5.320   4.061  14.918  0.00  0.00    +0.000 C 
BRANCH  17  18
ATOM     18  C   UNL     1       6.366   3.995  13.799  0.00  0.00    +0.000 C 
ATOM     19 CL   UNL     1       5.805   3.295  12.267  0.00  0.00    +0.000 Cl
ENDBRANCH  17  18
ENDBRANCH  16  17
BRANCH  16  20
ATOM     20  C   UNL     1       7.103   5.005  16.424  0.00  0.00    +0.000 C 
BRANCH  20  21
ATOM     21  C   UNL     1       7.504   4.685  17.870  0.00  0.00    +0.000 C 
ATOM     22 CL   UNL     1       7.843   6.177  18.801  0.00  0.00    +0.000 Cl
ENDBRANCH  20  21
ENDBRANCH  16  20
ENDBRANCH   4  16
TORSDOF 7
ENDMDL
MODEL 5
REMARK VINA RESULT:      -6.1      4.112      8.625
REMARK  Name = 
REMARK  7 active torsions:
REMARK  status: ('A' for Active; 'I' for Inactive)
REMARK    1  A    between atoms: C_2  and  C_9
REMARK    2  A    between atoms: N_3  and  C_4
REMARK    3  A    between atoms: C_12  and  N_13
REMARK    4  A    between atoms: N_13  and  C_14
REMARK    5  A    between atoms: N_13  and  C_17
REMARK    6  A    between atoms: C_14  and  C_15
REMARK    7  A    between atoms: C_17  and  C_18
REMARK                            x       y       z     vdW  Elec       q    Type
REMARK                         _______ _______ _______ _____ _____    ______ ____
ROOT
ATOM      1  C   UNL     1       2.509   7.545  18.678  0.00  0.00    +0.000 A 
ATOM      2  C   UNL     1       2.039   7.631  19.971  0.00  0.00    +0.000 A 
ATOM      3  C   UNL     1       1.132   8.643  20.319  0.00  0.00    +0.000 A 
ATOM      4  C   UNL     1       0.759   9.709  19.476  0.00  0.00    +0.000 A 
ATOM      5  C   UNL     1       1.319   9.624  18.184  0.00  0.00    +0.000 A 
ATOM      6  C   UNL     1       2.165   8.561  17.786  0.00  0.00    +0.000 A 
ENDROOT
BRANCH   1   8
ATOM      7  O   UNL     1       3.004   5.250  18.850  0.00  0.00    +0.000 OA
ATOM      8  C   UNL     1       3.265   6.340  18.284  0.00  0.00    +0.000 C 
ATOM      9  N   UNL     1       4.208   6.488  17.312  0.00  0.00    +0.000 N 
ATOM     10  H   UNL     1       4.480   7.431  17.042  0.00  0.00    +0.000 HD
BRANCH   9  11
ATOM     11  C   UNL     1       5.031   5.395  16.846  0.00  0.00    +0.000 C 
ATOM     12  C   UNL     1       5.475   5.565  15.398  0.00  0.00    +0.000 C 
ATOM     13  C   UNL     1       6.625   4.575  15.261  0.00  0.00    +0.000 C 
ATOM     14  C   UNL     1       7.264   4.489  16.649  0.00  0.00    +0.000 C 
ATOM     15  C   UNL     1       6.360   5.287  17.589  0.00  0.00    +0.000 C 
ENDBRANCH   9  11
ENDBRANCH   1   8
BRANCH   4  16
ATOM     16  N   UNL     1      -0.109  10.736  19.855  0.00  0.00    +0.000 N 
BRANCH  16  17
ATOM     17  C   UNL     1       0.310  11.957  20.618  0.00  0.00    +0.000 C 
BRANCH  17  18
ATOM     18  C   UNL     1      -0.437  12.293  21.914  0.00  0.00    +0.000 C 
ATOM     19 CL   UNL     1      -0.849  10.906  22.942  0.00  0.00    +0.000 Cl
ENDBRANCH  17  18
ENDBRANCH  16  17
BRANCH  16  20
ATOM     20  C   UNL     1      -1.501  10.778  19.326  0.00  0.00    +0.000 C 
BRANCH  20  21
ATOM     21  C   UNL     1      -1.626  11.417  17.936  0.00  0.00    +0.000 C 
ATOM     22 CL   UNL     1      -2.081  10.206  16.698  0.00  0.00    +0.000 Cl
ENDBRANCH  20  21
ENDBRANCH  16  20
ENDBRANCH   4  16
TORSDOF 7
ENDMDL
MODEL 6
REMARK VINA RESULT:      -6.1      4.047      8.323
REMARK  Name = 
REMARK  7 active torsions:
REMARK  status: ('A' for Active; 'I' for Inactive)
REMARK    1  A    between atoms: C_2  and  C_9
REMARK    2  A    between atoms: N_3  and  C_4
REMARK    3  A    between atoms: C_12  and  N_13
REMARK    4  A    between atoms: N_13  and  C_14
REMARK    5  A    between atoms: N_13  and  C_17
REMARK    6  A    between atoms: C_14  and  C_15
REMARK    7  A    between atoms: C_17  and  C_18
REMARK                            x       y       z     vdW  Elec       q    Type
REMARK                         _______ _______ _______ _____ _____    ______ ____
ROOT
ATOM      1  C   UNL     1       2.376   7.492  18.910  0.00  0.00    +0.000 A 
ATOM      2  C   UNL     1       2.161   8.364  17.865  0.00  0.00    +0.000 A 
ATOM      3  C   UNL     1       1.512   9.587  18.096  0.00  0.00    +0.000 A 
ATOM      4  C   UNL     1       0.904   9.952  19.314  0.00  0.00    +0.000 A 
ATOM      5  C   UNL     1       1.084   8.999  20.338  0.00  0.00    +0.000 A 
ATOM      6  C   UNL     1       1.814   7.801  20.149  0.00  0.00    +0.000 A 
ENDROOT
BRANCH   1   8
ATOM      7  O   UNL     1       3.230   5.379  19.499  0.00  0.00    +0.000 OA
ATOM      8  C   UNL     1       3.266   6.336  18.687  0.00  0.00    +0.000 C 
ATOM      9  N   UNL     1       4.077   6.378  17.594  0.00  0.00    +0.000 N 
ATOM     10  H   UNL     1       4.175   7.261  17.097  0.00  0.00    +0.000 HD
BRANCH   9  11
ATOM     11  C   UNL     1       5.010   5.321  17.268  0.00  0.00    +0.000 C 
ATOM     12  C   UNL     1       5.376   5.291  15.790  0.00  0.00    +0.000 C 
ATOM     13  C   UNL     1       6.631   4.429  15.753  0.00  0.00    +0.000 C 
ATOM     14  C   UNL     1       7.327   4.655  17.097  0.00  0.00    +0.000 C 
ATOM     15  C   UNL     1       6.368   5.493  17.942  0.00  0.00    +0.000 C 
ENDBRANCH   9  11
ENDBRANCH   1   8
BRANCH   4  16
ATOM     16  N   UNL     1       0.219  11.154  19.514  0.00  0.00    +0.000 N 
BRANCH  16  17
ATOM     17  C   UNL     1       0.538  12.137  20.600  0.00  0.00    +0.000 C 
BRANCH  17  18
ATOM     18  C   UNL     1       1.855  12.916  20.507  0.00  0.00    +0.000 C 
ATOM     19 CL   UNL     1       2.058  13.907  19.050  0.00  0.00    +0.000 Cl
ENDBRANCH  17  18
ENDBRANCH  16  17
BRANCH  16  20
ATOM     20  C   UNL     1      -0.759  11.638  18.500  0.00  0.00    +0.000 C 
BRANCH  20  21
ATOM     21  C   UNL     1      -2.020  10.772  18.381  0.00  0.00    +0.000 C 
ATOM     22 CL   UNL     1      -2.019   9.819  16.864  0.00  0.00    +0.000 Cl
ENDBRANCH  20  21
ENDBRANCH  16  20
ENDBRANCH   4  16
TORSDOF 7
ENDMDL
MODEL 7
REMARK VINA RESULT:      -6.1      3.057      4.187
REMARK  Name = 
REMARK  7 active torsions:
REMARK  status: ('A' for Active; 'I' for Inactive)
REMARK    1  A    between atoms: C_2  and  C_9
REMARK    2  A    between atoms: N_3  and  C_4
REMARK    3  A    between atoms: C_12  and  N_13
REMARK    4  A    between atoms: N_13  and  C_14
REMARK    5  A    between atoms: N_13  and  C_17
REMARK    6  A    between atoms: C_14  and  C_15
REMARK    7  A    between atoms: C_17  and  C_18
REMARK                            x       y       z     vdW  Elec       q    Type
REMARK                         _______ _______ _______ _____ _____    ______ ____
ROOT
ATOM      1  C   UNL     1       2.356   8.122  18.363  0.00  0.00    +0.000 A 
ATOM      2  C   UNL     1       2.197   7.299  19.457  0.00  0.00    +0.000 A 
ATOM      3  C   UNL     1       3.026   6.179  19.617  0.00  0.00    +0.000 A 
ATOM      4  C   UNL     1       3.940   5.716  18.648  0.00  0.00    +0.000 A 
ATOM      5  C   UNL     1       4.020   6.546  17.511  0.00  0.00    +0.000 A 
ATOM      6  C   UNL     1       3.257   7.730  17.373  0.00  0.00    +0.000 A 
ENDROOT
BRANCH   1   8
ATOM      7  O   UNL     1       1.956  10.268  17.483  0.00  0.00    +0.000 OA
ATOM      8  C   UNL     1       1.641   9.413  18.346  0.00  0.00    +0.000 C 
ATOM      9  N   UNL     1       0.665   9.595  19.279  0.00  0.00    +0.000 N 
ATOM     10  H   UNL     1       0.602   8.932  20.049  0.00  0.00    +0.000 HD
BRANCH   9  11
ATOM     11  C   UNL     1      -0.099  10.818  19.385  0.00  0.00    +0.000 C 
ATOM     12  C   UNL     1      -1.428  10.751  18.643  0.00  0.00    +0.000 C 
ATOM     13  C   UNL     1      -2.216  11.920  19.220  0.00  0.00    +0.000 C 
ATOM     14  C   UNL     1      -1.719  12.083  20.658  0.00  0.00    +0.000 C 
ATOM     15  C   UNL     1      -0.534  11.130  20.815  0.00  0.00    +0.000 C 
ENDBRANCH   9  11
ENDBRANCH   1   8
BRANCH   4  16
ATOM     16  N   UNL     1       4.725   4.569  18.802  0.00  0.00    +0.000 N 
BRANCH  16  17
ATOM     17  C   UNL     1       6.193   4.586  19.106  0.00  0.00    +0.000 C 
BRANCH  17  18
ATOM     18  C   UNL     1       7.161   4.973  17.982  0.00  0.00    +0.000 C 
ATOM     19 CL   UNL     1       7.679   6.670  17.969  0.00  0.00    +0.000 Cl
ENDBRANCH  17  18
ENDBRANCH  16  17
BRANCH  16  20
ATOM     20  C   UNL     1       4.085   3.227  18.882  0.00  0.00    +0.000 C 
BRANCH  20  21
ATOM     21  C   UNL     1       3.111   2.926  17.735  0.00  0.00    +0.000 C 
ATOM     22 CL   UNL     1       1.415   3.237  18.217  0.00  0.00    +0.000 Cl
ENDBRANCH  20  21
ENDBRANCH  16  20
ENDBRANCH   4  16
TORSDOF 7
ENDMDL
MODEL 8
REMARK VINA RESULT:      -6.1      2.671      3.460
REMARK  Name = 
REMARK  7 active torsions:
REMARK  status: ('A' for Active; 'I' for Inactive)
REMARK    1  A    between atoms: C_2  and  C_9
REMARK    2  A    between atoms: N_3  and  C_4
REMARK    3  A    between atoms: C_12  and  N_13
REMARK    4  A    between atoms: N_13  and  C_14
REMARK    5  A    between atoms: N_13  and  C_17
REMARK    6  A    between atoms: C_14  and  C_15
REMARK    7  A    between atoms: C_17  and  C_18
REMARK                            x       y       z     vdW  Elec       q    Type
REMARK                         _______ _______ _______ _____ _____    ______ ____
ROOT
ATOM      1  C   UNL     1       2.206   7.848  18.961  0.00  0.00    +0.000 A 
ATOM      2  C   UNL     1       2.991   7.807  17.829  0.00  0.00    +0.000 A 
ATOM      3  C   UNL     1       3.690   6.634  17.504  0.00  0.00    +0.000 A 
ATOM      4  C   UNL     1       3.786   5.503  18.340  0.00  0.00    +0.000 A 
ATOM      5  C   UNL     1       3.028   5.615  19.524  0.00  0.00    +0.000 A 
ATOM      6  C   UNL     1       2.244   6.754  19.826  0.00  0.00    +0.000 A 
ENDROOT
BRANCH   1   8
ATOM      7  O   UNL     1       0.884   9.610  18.133  0.00  0.00    +0.000 OA
ATOM      8  C   UNL     1       1.302   8.999  19.146  0.00  0.00    +0.000 C 
ATOM      9  N   UNL     1       0.967   9.326  20.426  0.00  0.00    +0.000 N 
ATOM     10  H   UNL     1       1.491   8.900  21.188  0.00  0.00    +0.000 HD
BRANCH   9  11
ATOM     11  C   UNL     1       0.105  10.442  20.750  0.00  0.00    +0.000 C 
ATOM     12  C   UNL     1      -0.432  10.378  22.174  0.00  0.00    +0.000 C 
ATOM     13  C   UNL     1      -0.935  11.794  22.426  0.00  0.00    +0.000 C 
ATOM     14  C   UNL     1      -0.041  12.706  21.583  0.00  0.00    +0.000 C 
ATOM     15  C   UNL     1       0.829  11.784  20.728  0.00  0.00    +0.000 C 
ENDBRANCH   9  11
ENDBRANCH   1   8
BRANCH   4  16
ATOM     16  N   UNL     1       4.527   4.361  18.023  0.00  0.00    +0.000 N 
BRANCH  16  17
ATOM     17  C   UNL     1       4.195   2.980  18.503  0.00  0.00    +0.000 C 
BRANCH  17  18
ATOM     18  C   UNL     1       3.038   2.236  17.826  0.00  0.00    +0.000 C 
ATOM     19 CL   UNL     1       1.502   2.239  18.714  0.00  0.00    +0.000 Cl
ENDBRANCH  17  18
ENDBRANCH  16  17
BRANCH  16  20
ATOM     20  C   UNL     1       5.597   4.422  16.990  0.00  0.00    +0.000 C 
BRANCH  20  21
ATOM     21  C   UNL     1       6.989   4.756  17.546  0.00  0.00    +0.000 C 
ATOM     22 CL   UNL     1       7.309   6.517  17.492  0.00  0.00    +0.000 Cl
ENDBRANCH  20  21
ENDBRANCH  16  20
ENDBRANCH   4  16
TORSDOF 7
ENDMDL
MODEL 9
REMARK VINA RESULT:      -6.1      3.633      8.168
REMARK  Name = 
REMARK  7 active torsions:
REMARK  status: ('A' for Active; 'I' for Inactive)
REMARK    1  A    between atoms: C_2  and  C_9
REMARK    2  A    between atoms: N_3  and  C_4
REMARK    3  A    between atoms: C_12  and  N_13
REMARK    4  A    between atoms: N_13  and  C_14
REMARK    5  A    between atoms: N_13  and  C_17
REMARK    6  A    between atoms: C_14  and  C_15
REMARK    7  A    between atoms: C_17  and  C_18
REMARK                            x       y       z     vdW  Elec       q    Type
REMARK                         _______ _______ _______ _____ _____    ______ ____
ROOT
ATOM      1  C   UNL     1       5.111   4.452  17.373  0.00  0.00    +0.000 A 
ATOM      2  C   UNL     1       3.809   4.203  16.994  0.00  0.00    +0.000 A 
ATOM      3  C   UNL     1       2.754   4.516  17.865  0.00  0.00    +0.000 A 
ATOM      4  C   UNL     1       2.918   4.937  19.200  0.00  0.00    +0.000 A 
ATOM      5  C   UNL     1       4.268   5.109  19.572  0.00  0.00    +0.000 A 
ATOM      6  C   UNL     1       5.342   4.885  18.678  0.00  0.00    +0.000 A 
ENDROOT
BRANCH   1   8
ATOM      7  O   UNL     1       7.368   4.482  16.707  0.00  0.00    +0.000 OA
ATOM      8  C   UNL     1       6.172   4.340  16.354  0.00  0.00    +0.000 C 
ATOM      9  N   UNL     1       5.780   4.079  15.075  0.00  0.00    +0.000 N 
ATOM     10  H   UNL     1       4.792   4.161  14.845  0.00  0.00    +0.000 HD
BRANCH   9  11
ATOM     11  C   UNL     1       6.715   3.962  13.978  0.00  0.00    +0.000 C 
ATOM     12  C   UNL     1       6.062   3.454  12.698  0.00  0.00    +0.000 C 
ATOM     13  C   UNL     1       7.078   3.804  11.619  0.00  0.00    +0.000 C 
ATOM     14  C   UNL     1       7.789   5.066  12.114  0.00  0.00    +0.000 C 
ATOM     15  C   UNL     1       7.296   5.304  13.542  0.00  0.00    +0.000 C 
ENDBRANCH   9  11
ENDBRANCH   1   8
BRANCH   4  16
ATOM     16  N   UNL     1       1.856   5.199  20.071  0.00  0.00    +0.000 N 
BRANCH  16  17
ATOM     17  C   UNL     1       0.795   4.203  20.430  0.00  0.00    +0.000 C 
BRANCH  17  18
ATOM     18  C   UNL     1       1.222   2.757  20.708  0.00  0.00    +0.000 C 
ATOM     19 CL   UNL     1       2.640   2.566  21.758  0.00  0.00    +0.000 Cl
ENDBRANCH  17  18
ENDBRANCH  16  17
BRANCH  16  20
ATOM     20  C   UNL     1       1.837   6.451  20.877  0.00  0.00    +0.000 C 
BRANCH  20  21
ATOM     21  C   UNL     1       1.793   7.737  20.039  0.00  0.00    +0.000 C 
ATOM     22 CL   UNL     1       1.080   9.095  20.963  0.00  0.00    +0.000 Cl
ENDBRANCH  20  21
ENDBRANCH  16  20
ENDBRANCH   4  16
TORSDOF 7
ENDMDL
