MODEL 1
REMARK VINA RESULT:      -7.3      0.000      0.000
REMARK  Name = 
REMARK  8 active torsions:
REMARK  status: ('A' for Active; 'I' for Inactive)
REMARK    1  A    between atoms: C_1  and  C_2
REMARK    2  A    between atoms: C_2  and  C_3
REMARK    3  A    between atoms: C_2  and  N_4
REMARK    4  A    between atoms: C_7  and  N_8
REMARK    5  A    between atoms: N_11  and  C_12
REMARK    6  A    between atoms: C_18  and  C_19
REMARK    7  A    between atoms: C_19  and  C_20
REMARK    8  A    between atoms: C_20  and  O_21
REMARK                            x       y       z     vdW  Elec       q    Type
REMARK                         _______ _______ _______ _____ _____    ______ ____
ROOT
ATOM      1  N   UNL     1       5.554   5.231  19.316  0.00  0.00    +0.000 NA
ATOM      2  C   UNL     1       4.415   6.174  19.233  0.00  0.00    +0.000 C 
ATOM      3  C   UNL     1       3.483   6.079  17.991  0.00  0.00    +0.000 C 
ATOM      4  N   UNL     1       3.195   4.738  17.471  0.00  0.00    +0.000 NA
ATOM      5  C   UNL     1       4.373   3.882  17.569  0.00  0.00    +0.000 C 
ATOM      6  C   UNL     1       5.148   3.884  18.895  0.00  0.00    +0.000 C 
ENDROOT
BRANCH   1  10
ATOM      7  N   UNL     1       7.279   5.446  15.838  0.00  0.00    +0.000 NA
ATOM      8  C   UNL     1       6.794   6.710  16.406  0.00  0.00    +0.000 C 
ATOM      9  C   UNL     1       6.930   6.979  17.908  0.00  0.00    +0.000 C 
ATOM     10  C   UNL     1       6.853   5.760  18.831  0.00  0.00    +0.000 C 
ATOM     11  C   UNL     1       7.811   4.710  18.241  0.00  0.00    +0.000 C 
ATOM     12  C   UNL     1       7.579   4.357  16.771  0.00  0.00    +0.000 C 
BRANCH   7  14
ATOM     13  C   UNL     1       7.275   5.097  13.359  0.00  0.00    +0.000 C 
ATOM     14  C   UNL     1       6.461   5.028  14.663  0.00  0.00    +0.000 C 
ATOM     15  C   UNL     1       5.858   3.616  14.759  0.00  0.00    +0.000 C 
ENDBRANCH   7  14
ENDBRANCH   1  10
BRANCH   4  16
ATOM     16  C   UNL     1       1.924   4.133  17.847  0.00  0.00    +0.000 C 
ATOM     17  C   UNL     1       1.981   2.600  17.870  0.00  0.00    +0.000 C 
ATOM     18  C   UNL     1       0.825   2.199  18.774  0.00  0.00    +0.000 C 
ATOM     19  C   UNL     1       0.781   3.259  19.861  0.00  0.00    +0.000 C 
ATOM     20  C   UNL     1       1.506   4.468  19.296  0.00  0.00    +0.000 C 
ENDBRANCH   4  16
BRANCH   6  21
ATOM     21  C   UNL     1       4.398   3.116  20.006  0.00  0.00    +0.000 C 
BRANCH  21  22
ATOM     22  C   UNL     1       4.787   1.646  20.107  0.00  0.00    +0.000 C 
BRANCH  22  23
ATOM     23  O   UNL     1       5.402   1.404  21.370  0.00  0.00    +0.000 OA
ATOM     24  H   UNL     1       4.998   0.600  21.738  0.00  0.00    +0.000 HD
ENDBRANCH  22  23
ENDBRANCH  21  22
ENDBRANCH   6  21
TORSDOF 6
ENDMDL
MODEL 2
REMARK VINA RESULT:      -7.2      1.710      3.191
REMARK  Name = 
REMARK  8 active torsions:
REMARK  status: ('A' for Active; 'I' for Inactive)
REMARK    1  A    between atoms: C_1  and  C_2
REMARK    2  A    between atoms: C_2  and  C_3
REMARK    3  A    between atoms: C_2  and  N_4
REMARK    4  A    between atoms: C_7  and  N_8
REMARK    5  A    between atoms: N_11  and  C_12
REMARK    6  A    between atoms: C_18  and  C_19
REMARK    7  A    between atoms: C_19  and  C_20
REMARK    8  A    between atoms: C_20  and  O_21
REMARK                            x       y       z     vdW  Elec       q    Type
REMARK                         _______ _______ _______ _____ _____    ______ ____
ROOT
ATOM      1  N   UNL     1       4.593   3.566  17.220  0.00  0.00    +0.000 NA
ATOM      2  C   UNL     1       5.111   3.982  18.544  0.00  0.00    +0.000 C 
ATOM      3  C   UNL     1       4.393   5.158  19.267  0.00  0.00    +0.000 C 
ATOM      4  N   UNL     1       2.933   5.230  19.140  0.00  0.00    +0.000 NA
ATOM      5  C   UNL     1       2.511   4.826  17.802  0.00  0.00    +0.000 C 
ATOM      6  C   UNL     1       3.126   3.547  17.217  0.00  0.00    +0.000 C 
ENDROOT
BRANCH   1  10
ATOM      7  N   UNL     1       6.879   6.666  16.692  0.00  0.00    +0.000 NA
ATOM      8  C   UNL     1       7.533   5.353  16.628  0.00  0.00    +0.000 C 
ATOM      9  C   UNL     1       6.823   4.173  15.959  0.00  0.00    +0.000 C 
ATOM     10  C   UNL     1       5.295   4.153  16.051  0.00  0.00    +0.000 C 
ATOM     11  C   UNL     1       4.818   5.555  15.635  0.00  0.00    +0.000 C 
ATOM     12  C   UNL     1       5.444   6.721  16.404  0.00  0.00    +0.000 C 
BRANCH   7  14
ATOM     13  C   UNL     1       8.070   6.519  18.890  0.00  0.00    +0.000 C 
ATOM     14  C   UNL     1       7.279   7.414  17.919  0.00  0.00    +0.000 C 
ATOM     15  C   UNL     1       8.119   8.678  17.666  0.00  0.00    +0.000 C 
ENDBRANCH   7  14
ENDBRANCH   1  10
BRANCH   4  16
ATOM     16  C   UNL     1       2.138   4.721  20.249  0.00  0.00    +0.000 C 
ATOM     17  C   UNL     1       1.004   3.796  19.790  0.00  0.00    +0.000 C 
ATOM     18  C   UNL     1       0.675   2.970  21.025  0.00  0.00    +0.000 C 
ATOM     19  C   UNL     1       2.009   2.726  21.710  0.00  0.00    +0.000 C 
ATOM     20  C   UNL     1       2.947   3.805  21.195  0.00  0.00    +0.000 C 
ENDBRANCH   4  16
BRANCH   6  21
ATOM     21  C   UNL     1       2.547   2.273  17.871  0.00  0.00    +0.000 C 
BRANCH  21  22
ATOM     22  C   UNL     1       3.584   1.437  18.613  0.00  0.00    +0.000 C 
BRANCH  22  23
ATOM     23  O   UNL     1       4.299   0.632  17.680  0.00  0.00    +0.000 OA
ATOM     24  H   UNL     1       4.985   1.193  17.282  0.00  0.00    +0.000 HD
ENDBRANCH  22  23
ENDBRANCH  21  22
ENDBRANCH   6  21
TORSDOF 6
ENDMDL
MODEL 3
REMARK VINA RESULT:      -7.2      2.103      3.702
REMARK  Name = 
REMARK  8 active torsions:
REMARK  status: ('A' for Active; 'I' for Inactive)
REMARK    1  A    between atoms: C_1  and  C_2
REMARK    2  A    between atoms: C_2  and  C_3
REMARK    3  A    between atoms: C_2  and  N_4
REMARK    4  A    between atoms: C_7  and  N_8
REMARK    5  A    between atoms: N_11  and  C_12
REMARK    6  A    between atoms: C_18  and  C_19
REMARK    7  A    between atoms: C_19  and  C_20
REMARK    8  A    between atoms: C_20  and  O_21
REMARK                            x       y       z     vdW  Elec       q    Type
REMARK                         _______ _______ _______ _____ _____    ______ ____
ROOT
ATOM      1  N   UNL     1       3.830   4.655  17.078  0.00  0.00    +0.000 NA
ATOM      2  C   UNL     1       2.780   3.650  16.794  0.00  0.00    +0.000 C 
ATOM      3  C   UNL     1       2.961   2.223  17.385  0.00  0.00    +0.000 C 
ATOM      4  N   UNL     1       3.543   2.124  18.729  0.00  0.00    +0.000 NA
ATOM      5  C   UNL     1       4.582   3.133  18.916  0.00  0.00    +0.000 C 
ATOM      6  C   UNL     1       4.268   4.570  18.476  0.00  0.00    +0.000 C 
ENDROOT
BRANCH   1  10
ATOM      7  N   UNL     1       7.481   5.989  17.019  0.00  0.00    +0.000 NA
ATOM      8  C   UNL     1       7.312   4.539  16.864  0.00  0.00    +0.000 C 
ATOM      9  C   UNL     1       6.151   3.985  16.033  0.00  0.00    +0.000 C 
ATOM     10  C   UNL     1       4.862   4.811  16.023  0.00  0.00    +0.000 C 
ATOM     11  C   UNL     1       5.280   6.261  15.723  0.00  0.00    +0.000 C 
ATOM     12  C   UNL     1       6.352   6.844  16.645  0.00  0.00    +0.000 C 
BRANCH   7  14
ATOM     13  C   UNL     1       8.199   7.852  18.530  0.00  0.00    +0.000 C 
ATOM     14  C   UNL     1       8.086   6.328  18.339  0.00  0.00    +0.000 C 
ATOM     15  C   UNL     1       7.344   5.761  19.561  0.00  0.00    +0.000 C 
ENDBRANCH   7  14
ENDBRANCH   1  10
BRANCH   4  16
ATOM     16  C   UNL     1       2.626   1.926  19.842  0.00  0.00    +0.000 C 
ATOM     17  C   UNL     1       3.128   2.562  21.144  0.00  0.00    +0.000 C 
ATOM     18  C   UNL     1       1.870   2.740  21.981  0.00  0.00    +0.000 C 
ATOM     19  C   UNL     1       0.779   3.110  20.990  0.00  0.00    +0.000 C 
ATOM     20  C   UNL     1       1.268   2.633  19.633  0.00  0.00    +0.000 C 
ENDBRANCH   4  16
BRANCH   6  21
ATOM     21  C   UNL     1       3.295   5.274  19.447  0.00  0.00    +0.000 C 
BRANCH  21  22
ATOM     22  C   UNL     1       3.077   6.751  19.137  0.00  0.00    +0.000 C 
BRANCH  22  23
ATOM     23  O   UNL     1       2.176   6.876  18.040  0.00  0.00    +0.000 OA
ATOM     24  H   UNL     1       1.332   7.201  18.397  0.00  0.00    +0.000 HD
ENDBRANCH  22  23
ENDBRANCH  21  22
ENDBRANCH   6  21
TORSDOF 6
ENDMDL
MODEL 4
REMARK VINA RESULT:      -7.2      2.369      6.302
REMARK  Name = 
REMARK  8 active torsions:
REMARK  status: ('A' for Active; 'I' for Inactive)
REMARK    1  A    between atoms: C_1  and  C_2
REMARK    2  A    between atoms: C_2  and  C_3
REMARK    3  A    between atoms: C_2  and  N_4
REMARK    4  A    between atoms: C_7  and  N_8
REMARK    5  A    between atoms: N_11  and  C_12
REMARK    6  A    between atoms: C_18  and  C_19
REMARK    7  A    between atoms: C_19  and  C_20
REMARK    8  A    between atoms: C_20  and  O_21
REMARK                            x       y       z     vdW  Elec       q    Type
REMARK                         _______ _______ _______ _____ _____    ______ ____
ROOT
ATOM      1  N   UNL     1       3.801   4.423  16.481  0.00  0.00    +0.000 NA
ATOM      2  C   UNL     1       3.886   5.466  17.530  0.00  0.00    +0.000 C 
ATOM      3  C   UNL     1       5.057   5.376  18.550  0.00  0.00    +0.000 C 
ATOM      4  N   UNL     1       6.357   4.927  18.038  0.00  0.00    +0.000 NA
ATOM      5  C   UNL     1       6.183   3.887  17.029  0.00  0.00    +0.000 C 
ATOM      6  C   UNL     1       5.130   4.122  15.937  0.00  0.00    +0.000 C 
ENDROOT
BRANCH   1  10
ATOM      7  N   UNL     1       2.324   2.913  19.745  0.00  0.00    +0.000 NA
ATOM      8  C   UNL     1       1.390   3.648  18.884  0.00  0.00    +0.000 C 
ATOM      9  C   UNL     1       1.489   3.522  17.361  0.00  0.00    +0.000 C 
ATOM     10  C   UNL     1       2.888   3.293  16.783  0.00  0.00    +0.000 C 
ATOM     11  C   UNL     1       3.510   2.146  17.600  0.00  0.00    +0.000 C 
ATOM     12  C   UNL     1       3.519   2.345  19.116  0.00  0.00    +0.000 C 
BRANCH   7  14
ATOM     13  C   UNL     1       2.097   5.110  20.924  0.00  0.00    +0.000 C 
ATOM     14  C   UNL     1       2.601   3.658  21.007  0.00  0.00    +0.000 C 
ATOM     15  C   UNL     1       2.002   3.031  22.278  0.00  0.00    +0.000 C 
ENDBRANCH   7  14
ENDBRANCH   1  10
BRANCH   4  16
ATOM     16  C   UNL     1       7.351   5.950  17.746  0.00  0.00    +0.000 C 
ATOM     17  C   UNL     1       6.724   7.272  17.285  0.00  0.00    +0.000 C 
ATOM     18  C   UNL     1       7.799   8.311  17.564  0.00  0.00    +0.000 C 
ATOM     19  C   UNL     1       8.462   7.865  18.856  0.00  0.00    +0.000 C 
ATOM     20  C   UNL     1       8.150   6.384  18.995  0.00  0.00    +0.000 C 
ENDBRANCH   4  16
BRANCH   6  21
ATOM     21  C   UNL     1       5.596   5.165  14.897  0.00  0.00    +0.000 C 
BRANCH  21  22
ATOM     22  C   UNL     1       6.794   4.716  14.069  0.00  0.00    +0.000 C 
BRANCH  22  23
ATOM     23  O   UNL     1       7.903   5.571  14.335  0.00  0.00    +0.000 OA
ATOM     24  H   UNL     1       7.580   6.486  14.277  0.00  0.00    +0.000 HD
ENDBRANCH  22  23
ENDBRANCH  21  22
ENDBRANCH   6  21
TORSDOF 6
ENDMDL
MODEL 5
REMARK VINA RESULT:      -7.2      1.478      2.952
REMARK  Name = 
REMARK  8 active torsions:
REMARK  status: ('A' for Active; 'I' for Inactive)
REMARK    1  A    between atoms: C_1  and  C_2
REMARK    2  A    between atoms: C_2  and  C_3
REMARK    3  A    between atoms: C_2  and  N_4
REMARK    4  A    between atoms: C_7  and  N_8
REMARK    5  A    between atoms: N_11  and  C_12
REMARK    6  A    between atoms: C_18  and  C_19
REMARK    7  A    between atoms: C_19  and  C_20
REMARK    8  A    between atoms: C_20  and  O_21
REMARK                            x       y       z     vdW  Elec       q    Type
REMARK                         _______ _______ _______ _____ _____    ______ ____
ROOT
ATOM      1  N   UNL     1       4.464   3.788  17.386  0.00  0.00    +0.000 NA
ATOM      2  C   UNL     1       4.753   4.607  18.586  0.00  0.00    +0.000 C 
ATOM      3  C   UNL     1       3.651   5.590  19.076  0.00  0.00    +0.000 C 
ATOM      4  N   UNL     1       2.258   5.140  18.974  0.00  0.00    +0.000 NA
ATOM      5  C   UNL     1       2.056   4.360  17.756  0.00  0.00    +0.000 C 
ATOM      6  C   UNL     1       3.089   3.274  17.424  0.00  0.00    +0.000 C 
ENDROOT
BRANCH   1  10
ATOM      7  N   UNL     1       7.177   6.405  16.438  0.00  0.00    +0.000 NA
ATOM      8  C   UNL     1       7.496   5.001  16.153  0.00  0.00    +0.000 C 
ATOM      9  C   UNL     1       6.409   4.056  15.633  0.00  0.00    +0.000 C 
ATOM     10  C   UNL     1       4.979   4.333  16.106  0.00  0.00    +0.000 C 
ATOM     11  C   UNL     1       4.734   5.836  15.886  0.00  0.00    +0.000 C 
ATOM     12  C   UNL     1       5.762   6.773  16.523  0.00  0.00    +0.000 C 
BRANCH   7  14
ATOM     13  C   UNL     1       7.771   8.442  17.766  0.00  0.00    +0.000 C 
ATOM     14  C   UNL     1       8.009   6.936  17.556  0.00  0.00    +0.000 C 
ATOM     15  C   UNL     1       7.798   6.240  18.912  0.00  0.00    +0.000 C 
ENDBRANCH   7  14
ENDBRANCH   1  10
BRANCH   4  16
ATOM     16  C   UNL     1       1.632   4.622  20.183  0.00  0.00    +0.000 C 
ATOM     17  C   UNL     1       0.883   3.305  19.946  0.00  0.00    +0.000 C 
ATOM     18  C   UNL     1       0.796   2.673  21.327  0.00  0.00    +0.000 C 
ATOM     19  C   UNL     1       2.108   3.020  22.010  0.00  0.00    +0.000 C 
ATOM     20  C   UNL     1       2.659   4.226  21.267  0.00  0.00    +0.000 C 
ENDBRANCH   4  16
BRANCH   6  21
ATOM     21  C   UNL     1       2.943   2.037  18.336  0.00  0.00    +0.000 C 
BRANCH  21  22
ATOM     22  C   UNL     1       4.207   1.191  18.435  0.00  0.00    +0.000 C 
BRANCH  22  23
ATOM     23  O   UNL     1       4.914   1.532  19.624  0.00  0.00    +0.000 OA
ATOM     24  H   UNL     1       5.479   0.774  19.850  0.00  0.00    +0.000 HD
ENDBRANCH  22  23
ENDBRANCH  21  22
ENDBRANCH   6  21
TORSDOF 6
ENDMDL
MODEL 6
REMARK VINA RESULT:      -7.2      1.769      6.007
REMARK  Name = 
REMARK  8 active torsions:
REMARK  status: ('A' for Active; 'I' for Inactive)
REMARK    1  A    between atoms: C_1  and  C_2
REMARK    2  A    between atoms: C_2  and  C_3
REMARK    3  A    between atoms: C_2  and  N_4
REMARK    4  A    between atoms: C_7  and  N_8
REMARK    5  A    between atoms: N_11  and  C_12
REMARK    6  A    between atoms: C_18  and  C_19
REMARK    7  A    between atoms: C_19  and  C_20
REMARK    8  A    between atoms: C_20  and  O_21
REMARK                            x       y       z     vdW  Elec       q    Type
REMARK                         _______ _______ _______ _____ _____    ______ ____
ROOT
ATOM      1  N   UNL     1       4.700   5.358  18.033  0.00  0.00    +0.000 NA
ATOM      2  C   UNL     1       4.411   4.059  17.384  0.00  0.00    +0.000 C 
ATOM      3  C   UNL     1       4.211   4.046  15.841  0.00  0.00    +0.000 C 
ATOM      4  N   UNL     1       5.063   4.940  15.048  0.00  0.00    +0.000 NA
ATOM      5  C   UNL     1       5.279   6.203  15.749  0.00  0.00    +0.000 C 
ATOM      6  C   UNL     1       5.655   6.138  17.236  0.00  0.00    +0.000 C 
ENDROOT
BRANCH   1  10
ATOM      7  N   UNL     1       1.441   4.196  19.804  0.00  0.00    +0.000 NA
ATOM      8  C   UNL     1       2.445   4.852  20.650  0.00  0.00    +0.000 C 
ATOM      9  C   UNL     1       3.239   6.047  20.112  0.00  0.00    +0.000 C 
ATOM     10  C   UNL     1       3.524   6.057  18.607  0.00  0.00    +0.000 C 
ATOM     11  C   UNL     1       2.183   5.766  17.912  0.00  0.00    +0.000 C 
ATOM     12  C   UNL     1       1.462   4.498  18.371  0.00  0.00    +0.000 C 
BRANCH   7  14
ATOM     13  C   UNL     1       2.147   1.894  19.119  0.00  0.00    +0.000 C 
ATOM     14  C   UNL     1       1.335   2.741  20.115  0.00  0.00    +0.000 C 
ATOM     15  C   UNL     1       1.781   2.343  21.532  0.00  0.00    +0.000 C 
ENDBRANCH   7  14
ENDBRANCH   1  10
BRANCH   4  16
ATOM     16  C   UNL     1       6.227   4.354  14.400  0.00  0.00    +0.000 C 
ATOM     17  C   UNL     1       5.884   3.666  13.073  0.00  0.00    +0.000 C 
ATOM     18  C   UNL     1       7.207   3.625  12.322  0.00  0.00    +0.000 C 
ATOM     19  C   UNL     1       7.907   4.927  12.674  0.00  0.00    +0.000 C 
ATOM     20  C   UNL     1       7.266   5.411  13.964  0.00  0.00    +0.000 C 
ENDBRANCH   4  16
BRANCH   6  21
ATOM     21  C   UNL     1       7.116   5.680  17.444  0.00  0.00    +0.000 C 
BRANCH  21  22
ATOM     22  C   UNL     1       7.701   6.083  18.793  0.00  0.00    +0.000 C 
BRANCH  22  23
ATOM     23  O   UNL     1       7.042   5.362  19.831  0.00  0.00    +0.000 OA
ATOM     24  H   UNL     1       7.648   4.661  20.123  0.00  0.00    +0.000 HD
ENDBRANCH  22  23
ENDBRANCH  21  22
ENDBRANCH   6  21
TORSDOF 6
ENDMDL
MODEL 7
REMARK VINA RESULT:      -7.1      1.975      3.783
REMARK  Name = 
REMARK  8 active torsions:
REMARK  status: ('A' for Active; 'I' for Inactive)
REMARK    1  A    between atoms: C_1  and  C_2
REMARK    2  A    between atoms: C_2  and  C_3
REMARK    3  A    between atoms: C_2  and  N_4
REMARK    4  A    between atoms: C_7  and  N_8
REMARK    5  A    between atoms: N_11  and  C_12
REMARK    6  A    between atoms: C_18  and  C_19
REMARK    7  A    between atoms: C_19  and  C_20
REMARK    8  A    between atoms: C_20  and  O_21
REMARK                            x       y       z     vdW  Elec       q    Type
REMARK                         _______ _______ _______ _____ _____    ______ ____
ROOT
ATOM      1  N   UNL     1       3.888   4.241  16.693  0.00  0.00    +0.000 NA
ATOM      2  C   UNL     1       3.303   2.880  16.652  0.00  0.00    +0.000 C 
ATOM      3  C   UNL     1       3.746   1.867  17.746  0.00  0.00    +0.000 C 
ATOM      4  N   UNL     1       3.957   2.393  19.100  0.00  0.00    +0.000 NA
ATOM      5  C   UNL     1       4.555   3.724  19.049  0.00  0.00    +0.000 C 
ATOM      6  C   UNL     1       3.948   4.741  18.071  0.00  0.00    +0.000 C 
ENDROOT
BRANCH   1  10
ATOM      7  N   UNL     1       7.226   6.202  17.036  0.00  0.00    +0.000 NA
ATOM      8  C   UNL     1       7.322   4.738  17.078  0.00  0.00    +0.000 C 
ATOM      9  C   UNL     1       6.441   3.885  16.160  0.00  0.00    +0.000 C 
ATOM     10  C   UNL     1       5.063   4.454  15.812  0.00  0.00    +0.000 C 
ATOM     11  C   UNL     1       5.295   5.908  15.367  0.00  0.00    +0.000 C 
ATOM     12  C   UNL     1       6.068   6.785  16.355  0.00  0.00    +0.000 C 
BRANCH   7  14
ATOM     13  C   UNL     1       8.156   5.782  19.322  0.00  0.00    +0.000 C 
ATOM     14  C   UNL     1       7.510   6.804  18.370  0.00  0.00    +0.000 C 
ATOM     15  C   UNL     1       8.414   8.049  18.345  0.00  0.00    +0.000 C 
ENDBRANCH   7  14
ENDBRANCH   1  10
BRANCH   4  16
ATOM     16  C   UNL     1       2.884   2.204  20.066  0.00  0.00    +0.000 C 
ATOM     17  C   UNL     1       2.913   3.242  21.195  0.00  0.00    +0.000 C 
ATOM     18  C   UNL     1       1.492   3.239  21.739  0.00  0.00    +0.000 C 
ATOM     19  C   UNL     1       0.599   3.038  20.527  0.00  0.00    +0.000 C 
ATOM     20  C   UNL     1       1.482   2.421  19.455  0.00  0.00    +0.000 C 
ENDBRANCH   4  16
BRANCH   6  21
ATOM     21  C   UNL     1       2.590   5.283  18.567  0.00  0.00    +0.000 C 
BRANCH  21  22
ATOM     22  C   UNL     1       2.653   6.710  19.099  0.00  0.00    +0.000 C 
BRANCH  22  23
ATOM     23  O   UNL     1       2.359   6.709  20.493  0.00  0.00    +0.000 OA
ATOM     24  H   UNL     1       2.673   7.556  20.854  0.00  0.00    +0.000 HD
ENDBRANCH  22  23
ENDBRANCH  21  22
ENDBRANCH   6  21
TORSDOF 6
ENDMDL
MODEL 8
REMARK VINA RESULT:      -6.7      2.086      5.958
REMARK  Name = 
REMARK  8 active torsions:
REMARK  status: ('A' for Active; 'I' for Inactive)
REMARK    1  A    between atoms: C_1  and  C_2
REMARK    2  A    between atoms: C_2  and  C_3
REMARK    3  A    between atoms: C_2  and  N_4
REMARK    4  A    between atoms: C_7  and  N_8
REMARK    5  A    between atoms: N_11  and  C_12
REMARK    6  A    between atoms: C_18  and  C_19
REMARK    7  A    between atoms: C_19  and  C_20
REMARK    8  A    between atoms: C_20  and  O_21
REMARK                            x       y       z     vdW  Elec       q    Type
REMARK                         _______ _______ _______ _____ _____    ______ ____
ROOT
ATOM      1  N   UNL     1       5.299   5.688  18.194  0.00  0.00    +0.000 NA
ATOM      2  C   UNL     1       5.382   4.243  17.877  0.00  0.00    +0.000 C 
ATOM      3  C   UNL     1       4.939   3.784  16.459  0.00  0.00    +0.000 C 
ATOM      4  N   UNL     1       5.269   4.668  15.335  0.00  0.00    +0.000 NA
ATOM      5  C   UNL     1       5.139   6.069  15.726  0.00  0.00    +0.000 C 
ATOM      6  C   UNL     1       5.763   6.498  17.062  0.00  0.00    +0.000 C 
ENDROOT
BRANCH   1  10
ATOM      7  N   UNL     1       1.811   4.079  18.795  0.00  0.00    +0.000 NA
ATOM      8  C   UNL     1       2.704   4.156  19.957  0.00  0.00    +0.000 C 
ATOM      9  C   UNL     1       3.583   5.392  20.169  0.00  0.00    +0.000 C 
ATOM     10  C   UNL     1       4.068   6.112  18.907  0.00  0.00    +0.000 C 
ATOM     11  C   UNL     1       2.828   6.306  18.017  0.00  0.00    +0.000 C 
ATOM     12  C   UNL     1       2.030   5.038  17.709  0.00  0.00    +0.000 C 
BRANCH   7  14
ATOM     13  C   UNL     1       2.880   1.819  18.658  0.00  0.00    +0.000 C 
ATOM     14  C   UNL     1       1.640   2.671  18.333  0.00  0.00    +0.000 C 
ATOM     15  C   UNL     1       0.413   1.942  18.908  0.00  0.00    +0.000 C 
ENDBRANCH   7  14
ENDBRANCH   1  10
BRANCH   4  16
ATOM     16  C   UNL     1       6.436   4.326  14.535  0.00  0.00    +0.000 C 
ATOM     17  C   UNL     1       6.070   3.627  13.220  0.00  0.00    +0.000 C 
ATOM     18  C   UNL     1       7.282   3.853  12.328  0.00  0.00    +0.000 C 
ATOM     19  C   UNL     1       7.773   5.250  12.667  0.00  0.00    +0.000 C 
ATOM     20  C   UNL     1       7.210   5.569  14.042  0.00  0.00    +0.000 C 
ENDBRANCH   4  16
BRANCH   6  21
ATOM     21  C   UNL     1       7.304   6.579  16.982  0.00  0.00    +0.000 C 
BRANCH  21  22
ATOM     22  C   UNL     1       7.892   7.804  17.672  0.00  0.00    +0.000 C 
BRANCH  22  23
ATOM     23  O   UNL     1       8.517   7.407  18.890  0.00  0.00    +0.000 OA
ATOM     24  H   UNL     1       9.232   6.792  18.660  0.00  0.00    +0.000 HD
ENDBRANCH  22  23
ENDBRANCH  21  22
ENDBRANCH   6  21
TORSDOF 6
ENDMDL
MODEL 9
REMARK VINA RESULT:      -6.7      2.232      3.957
REMARK  Name = 
REMARK  8 active torsions:
REMARK  status: ('A' for Active; 'I' for Inactive)
REMARK    1  A    between atoms: C_1  and  C_2
REMARK    2  A    between atoms: C_2  and  C_3
REMARK    3  A    between atoms: C_2  and  N_4
REMARK    4  A    between atoms: C_7  and  N_8
REMARK    5  A    between atoms: N_11  and  C_12
REMARK    6  A    between atoms: C_18  and  C_19
REMARK    7  A    between atoms: C_19  and  C_20
REMARK    8  A    between atoms: C_20  and  O_21
REMARK                            x       y       z     vdW  Elec       q    Type
REMARK                         _______ _______ _______ _____ _____    ______ ____
ROOT
ATOM      1  N   UNL     1       3.936   4.467  16.625  0.00  0.00    +0.000 NA
ATOM      2  C   UNL     1       3.527   3.129  17.109  0.00  0.00    +0.000 C 
ATOM      3  C   UNL     1       3.963   2.710  18.542  0.00  0.00    +0.000 C 
ATOM      4  N   UNL     1       3.957   3.753  19.575  0.00  0.00    +0.000 NA
ATOM      5  C   UNL     1       4.394   5.030  19.020  0.00  0.00    +0.000 C 
ATOM      6  C   UNL     1       3.783   5.473  17.683  0.00  0.00    +0.000 C 
ENDROOT
BRANCH   1  10
ATOM      7  N   UNL     1       7.307   6.393  16.826  0.00  0.00    +0.000 NA
ATOM      8  C   UNL     1       7.355   4.959  17.137  0.00  0.00    +0.000 C 
ATOM      9  C   UNL     1       6.505   3.971  16.332  0.00  0.00    +0.000 C 
ATOM     10  C   UNL     1       5.168   4.494  15.798  0.00  0.00    +0.000 C 
ATOM     11  C   UNL     1       5.472   5.839  15.116  0.00  0.00    +0.000 C 
ATOM     12  C   UNL     1       6.210   6.865  15.978  0.00  0.00    +0.000 C 
BRANCH   7  14
ATOM     13  C   UNL     1       8.263   6.426  19.140  0.00  0.00    +0.000 C 
ATOM     14  C   UNL     1       7.528   7.222  18.046  0.00  0.00    +0.000 C 
ATOM     15  C   UNL     1       8.312   8.525  17.815  0.00  0.00    +0.000 C 
ENDBRANCH   7  14
ENDBRANCH   1  10
BRANCH   4  16
ATOM     16  C   UNL     1       2.813   3.797  20.475  0.00  0.00    +0.000 C 
ATOM     17  C   UNL     1       1.492   3.458  19.773  0.00  0.00    +0.000 C 
ATOM     18  C   UNL     1       0.572   3.022  20.903  0.00  0.00    +0.000 C 
ATOM     19  C   UNL     1       1.462   2.266  21.875  0.00  0.00    +0.000 C 
ATOM     20  C   UNL     1       2.881   2.723  21.584  0.00  0.00    +0.000 C 
ENDBRANCH   4  16
BRANCH   6  21
ATOM     21  C   UNL     1       2.323   5.950  17.842  0.00  0.00    +0.000 C 
BRANCH  21  22
ATOM     22  C   UNL     1       2.191   7.327  18.483  0.00  0.00    +0.000 C 
BRANCH  22  23
ATOM     23  O   UNL     1       2.951   8.273  17.735  0.00  0.00    +0.000 OA
ATOM     24  H   UNL     1       2.371   9.032  17.559  0.00  0.00    +0.000 HD
ENDBRANCH  22  23
ENDBRANCH  21  22
ENDBRANCH   6  21
TORSDOF 6
ENDMDL
