MODEL 1
REMARK VINA RESULT:      -8.3      0.000      0.000
REMARK  Name = 
REMARK  10 active torsions:
REMARK  status: ('A' for Active; 'I' for Inactive)
REMARK    1  A    between atoms: C_1  and  O_2
REMARK    2  A    between atoms: O_2  and  C_3
REMARK    3  A    between atoms: C_6  and  C_7
REMARK    4  A    between atoms: C_7  and  O_8
REMARK    5  A    between atoms: O_8  and  C_9
REMARK    6  A    between atoms: C_12  and  C_13
REMARK    7  A    between atoms: C_13  and  C_14
REMARK    8  A    between atoms: C_13  and  C_18
REMARK    9  A    between atoms: C_14  and  C_15
REMARK   10  A    between atoms: C_15  and  O_17
REMARK                            x       y       z     vdW  Elec       q    Type
REMARK                         _______ _______ _______ _____ _____    ______ ____
ROOT
ATOM      1  C   UNL     1       1.582   8.937  19.358  0.00  0.00    +0.000 A 
ATOM      2  C   UNL     1       2.102   8.496  18.146  0.00  0.00    +0.000 A 
ATOM      3  C   UNL     1       2.500   7.174  17.991  0.00  0.00    +0.000 A 
ATOM      4  C   UNL     1       2.403   6.252  19.046  0.00  0.00    +0.000 A 
ATOM      5  C   UNL     1       1.910   6.723  20.278  0.00  0.00    +0.000 A 
ATOM      6  C   UNL     1       1.514   8.057  20.436  0.00  0.00    +0.000 A 
ENDROOT
BRANCH   1   7
ATOM      7  O   UNL     1       1.114  10.205  19.573  0.00  0.00    +0.000 OA
BRANCH   7   8
ATOM      8  C   UNL     1      -0.210  10.256  20.112  0.00  0.00    +0.000 C 
BRANCH   8  12
ATOM      9  C   UNL     1      -2.989  11.021  16.921  0.00  0.00    +0.000 A 
ATOM     10  C   UNL     1      -2.012  10.032  16.777  0.00  0.00    +0.000 A 
ATOM     11  C   UNL     1      -1.116   9.772  17.812  0.00  0.00    +0.000 A 
ATOM     12  C   UNL     1      -1.179  10.514  18.996  0.00  0.00    +0.000 A 
ATOM     13  C   UNL     1      -2.149  11.515  19.131  0.00  0.00    +0.000 A 
ATOM     14  C   UNL     1      -3.050  11.768  18.098  0.00  0.00    +0.000 A 
BRANCH   9  16
ATOM     15  C   UNL     1      -3.530  10.337  14.730  0.00  0.00    +0.000 C 
ATOM     16  O   UNL     1      -3.801  11.194  15.832  0.00  0.00    +0.000 OA
ENDBRANCH   9  16
ENDBRANCH   8  12
ENDBRANCH   7   8
ENDBRANCH   1   7
BRANCH   4  17
ATOM     17  C   UNL     1       2.792   4.784  18.883  0.00  0.00    +0.000 C 
BRANCH  17  18
ATOM     18  C   UNL     1       4.180   4.634  18.248  0.00  0.00    +0.000 A 
ATOM     19  C   UNL     1       4.316   4.126  16.945  0.00  0.00    +0.000 A 
ATOM     20  C   UNL     1       5.574   4.062  16.342  0.00  0.00    +0.000 A 
ATOM     21  C   UNL     1       6.694   4.505  17.034  0.00  0.00    +0.000 A 
ATOM     22  F   UNL     1       7.897   4.465  16.445  0.00  0.00    +0.000 F 
ATOM     23  C   UNL     1       6.586   4.994  18.329  0.00  0.00    +0.000 A 
ATOM     24  C   UNL     1       5.334   5.052  18.939  0.00  0.00    +0.000 A 
ENDBRANCH  17  18
BRANCH  17  25
ATOM     25  C   UNL     1       1.822   3.916  18.043  0.00  0.00    +0.000 C 
BRANCH  25  26
ATOM     26  C   UNL     1       1.227   2.760  18.815  0.00  0.00    +0.000 C 
ATOM     27  O   UNL     1       0.209   2.165  18.502  0.00  0.00    +0.000 OA
BRANCH  26  28
ATOM     28  O   UNL     1       1.933   2.458  19.928  0.00  0.00    +0.000 OA
ATOM     29  H   UNL     1       2.573   1.730  19.827  0.00  0.00    +0.000 HD
ENDBRANCH  26  28
ENDBRANCH  25  26
ENDBRANCH  17  25
ENDBRANCH   4  17
TORSDOF 9
ENDMDL
MODEL 2
REMARK VINA RESULT:      -8.3      0.931      1.527
REMARK  Name = 
REMARK  10 active torsions:
REMARK  status: ('A' for Active; 'I' for Inactive)
REMARK    1  A    between atoms: C_1  and  O_2
REMARK    2  A    between atoms: O_2  and  C_3
REMARK    3  A    between atoms: C_6  and  C_7
REMARK    4  A    between atoms: C_7  and  O_8
REMARK    5  A    between atoms: O_8  and  C_9
REMARK    6  A    between atoms: C_12  and  C_13
REMARK    7  A    between atoms: C_13  and  C_14
REMARK    8  A    between atoms: C_13  and  C_18
REMARK    9  A    between atoms: C_14  and  C_15
REMARK   10  A    between atoms: C_15  and  O_17
REMARK                            x       y       z     vdW  Elec       q    Type
REMARK                         _______ _______ _______ _____ _____    ______ ____
ROOT
ATOM      1  C   UNL     1       1.353   9.026  19.672  0.00  0.00    +0.000 A 
ATOM      2  C   UNL     1       1.901   8.638  18.455  0.00  0.00    +0.000 A 
ATOM      3  C   UNL     1       2.343   7.333  18.267  0.00  0.00    +0.000 A 
ATOM      4  C   UNL     1       2.262   6.379  19.293  0.00  0.00    +0.000 A 
ATOM      5  C   UNL     1       1.740   6.796  20.531  0.00  0.00    +0.000 A 
ATOM      6  C   UNL     1       1.300   8.112  20.723  0.00  0.00    +0.000 A 
ENDROOT
BRANCH   1   7
ATOM      7  O   UNL     1       0.842  10.272  19.918  0.00  0.00    +0.000 OA
BRANCH   7   8
ATOM      8  C   UNL     1       0.576  11.037  18.740  0.00  0.00    +0.000 C 
BRANCH   8  12
ATOM      9  C   UNL     1      -3.642  10.913  17.911  0.00  0.00    +0.000 A 
ATOM     10  C   UNL     1      -2.773  10.040  17.251  0.00  0.00    +0.000 A 
ATOM     11  C   UNL     1      -1.406  10.068  17.524  0.00  0.00    +0.000 A 
ATOM     12  C   UNL     1      -0.895  10.985  18.449  0.00  0.00    +0.000 A 
ATOM     13  C   UNL     1      -1.768  11.869  19.097  0.00  0.00    +0.000 A 
ATOM     14  C   UNL     1      -3.135  11.833  18.829  0.00  0.00    +0.000 A 
BRANCH   9  16
ATOM     15  C   UNL     1      -5.894  10.933  18.611  0.00  0.00    +0.000 C 
ATOM     16  O   UNL     1      -4.958  10.800  17.549  0.00  0.00    +0.000 OA
ENDBRANCH   9  16
ENDBRANCH   8  12
ENDBRANCH   7   8
ENDBRANCH   1   7
BRANCH   4  17
ATOM     17  C   UNL     1       2.701   4.928  19.092  0.00  0.00    +0.000 C 
BRANCH  17  18
ATOM     18  C   UNL     1       4.076   4.841  18.421  0.00  0.00    +0.000 A 
ATOM     19  C   UNL     1       5.235   5.216  19.121  0.00  0.00    +0.000 A 
ATOM     20  C   UNL     1       6.493   5.064  18.534  0.00  0.00    +0.000 A 
ATOM     21  C   UNL     1       6.597   4.538  17.252  0.00  0.00    +0.000 A 
ATOM     22  F   UNL     1       7.807   4.371  16.701  0.00  0.00    +0.000 F 
ATOM     23  C   UNL     1       5.465   4.177  16.535  0.00  0.00    +0.000 A 
ATOM     24  C   UNL     1       4.207   4.335  17.113  0.00  0.00    +0.000 A 
ENDBRANCH  17  18
BRANCH  17  25
ATOM     25  C   UNL     1       1.741   4.042  18.260  0.00  0.00    +0.000 C 
BRANCH  25  26
ATOM     26  C   UNL     1       1.384   2.739  18.940  0.00  0.00    +0.000 C 
ATOM     27  O   UNL     1       2.131   1.780  19.041  0.00  0.00    +0.000 OA
BRANCH  26  28
ATOM     28  O   UNL     1       0.118   2.728  19.415  0.00  0.00    +0.000 OA
ATOM     29  H   UNL     1       0.023   2.417  20.334  0.00  0.00    +0.000 HD
ENDBRANCH  26  28
ENDBRANCH  25  26
ENDBRANCH  17  25
ENDBRANCH   4  17
TORSDOF 9
ENDMDL
MODEL 3
REMARK VINA RESULT:      -8.1      0.919      1.161
REMARK  Name = 
REMARK  10 active torsions:
REMARK  status: ('A' for Active; 'I' for Inactive)
REMARK    1  A    between atoms: C_1  and  O_2
REMARK    2  A    between atoms: O_2  and  C_3
REMARK    3  A    between atoms: C_6  and  C_7
REMARK    4  A    between atoms: C_7  and  O_8
REMARK    5  A    between atoms: O_8  and  C_9
REMARK    6  A    between atoms: C_12  and  C_13
REMARK    7  A    between atoms: C_13  and  C_14
REMARK    8  A    between atoms: C_13  and  C_18
REMARK    9  A    between atoms: C_14  and  C_15
REMARK   10  A    between atoms: C_15  and  O_17
REMARK                            x       y       z     vdW  Elec       q    Type
REMARK                         _______ _______ _______ _____ _____    ______ ____
ROOT
ATOM      1  C   UNL     1       1.477   8.754  19.589  0.00  0.00    +0.000 A 
ATOM      2  C   UNL     1       2.013   8.382  18.361  0.00  0.00    +0.000 A 
ATOM      3  C   UNL     1       2.458   7.082  18.154  0.00  0.00    +0.000 A 
ATOM      4  C   UNL     1       2.392   6.115  19.170  0.00  0.00    +0.000 A 
ATOM      5  C   UNL     1       1.882   6.517  20.418  0.00  0.00    +0.000 A 
ATOM      6  C   UNL     1       1.438   7.829  20.630  0.00  0.00    +0.000 A 
ENDROOT
BRANCH   1   7
ATOM      7  O   UNL     1       0.963   9.995  19.854  0.00  0.00    +0.000 OA
BRANCH   7   8
ATOM      8  C   UNL     1       0.761  10.804  18.693  0.00  0.00    +0.000 C 
BRANCH   8  12
ATOM      9  C   UNL     1      -3.450  11.031  17.854  0.00  0.00    +0.000 A 
ATOM     10  C   UNL     1      -2.664  10.058  17.233  0.00  0.00    +0.000 A 
ATOM     11  C   UNL     1      -1.300   9.972  17.509  0.00  0.00    +0.000 A 
ATOM     12  C   UNL     1      -0.708  10.875  18.399  0.00  0.00    +0.000 A 
ATOM     13  C   UNL     1      -1.497  11.859  19.008  0.00  0.00    +0.000 A 
ATOM     14  C   UNL     1      -2.862  11.937  18.737  0.00  0.00    +0.000 A 
BRANCH   9  16
ATOM     15  C   UNL     1      -5.661  10.465  18.450  0.00  0.00    +0.000 C 
ATOM     16  O   UNL     1      -4.771  11.024  17.492  0.00  0.00    +0.000 OA
ENDBRANCH   9  16
ENDBRANCH   8  12
ENDBRANCH   7   8
ENDBRANCH   1   7
BRANCH   4  17
ATOM     17  C   UNL     1       2.835   4.669  18.948  0.00  0.00    +0.000 C 
BRANCH  17  18
ATOM     18  C   UNL     1       4.151   4.594  18.166  0.00  0.00    +0.000 A 
ATOM     19  C   UNL     1       4.167   4.127  16.841  0.00  0.00    +0.000 A 
ATOM     20  C   UNL     1       5.355   4.131  16.106  0.00  0.00    +0.000 A 
ATOM     21  C   UNL     1       6.525   4.601  16.690  0.00  0.00    +0.000 A 
ATOM     22  F   UNL     1       7.658   4.627  15.975  0.00  0.00    +0.000 F 
ATOM     23  C   UNL     1       6.537   5.052  18.003  0.00  0.00    +0.000 A 
ATOM     24  C   UNL     1       5.356   5.041  18.743  0.00  0.00    +0.000 A 
ENDBRANCH  17  18
BRANCH  17  25
ATOM     25  C   UNL     1       1.823   3.760  18.207  0.00  0.00    +0.000 C 
BRANCH  25  26
ATOM     26  C   UNL     1       1.113   2.784  19.118  0.00  0.00    +0.000 C 
ATOM     27  O   UNL     1       0.642   3.066  20.208  0.00  0.00    +0.000 OA
BRANCH  26  28
ATOM     28  O   UNL     1       1.071   1.531  18.610  0.00  0.00    +0.000 OA
ATOM     29  H   UNL     1       1.498   0.848  19.160  0.00  0.00    +0.000 HD
ENDBRANCH  26  28
ENDBRANCH  25  26
ENDBRANCH  17  25
ENDBRANCH   4  17
TORSDOF 9
ENDMDL
MODEL 4
REMARK VINA RESULT:      -8.1      1.275      1.818
REMARK  Name = 
REMARK  10 active torsions:
REMARK  status: ('A' for Active; 'I' for Inactive)
REMARK    1  A    between atoms: C_1  and  O_2
REMARK    2  A    between atoms: O_2  and  C_3
REMARK    3  A    between atoms: C_6  and  C_7
REMARK    4  A    between atoms: C_7  and  O_8
REMARK    5  A    between atoms: O_8  and  C_9
REMARK    6  A    between atoms: C_12  and  C_13
REMARK    7  A    between atoms: C_13  and  C_14
REMARK    8  A    between atoms: C_13  and  C_18
REMARK    9  A    between atoms: C_14  and  C_15
REMARK   10  A    between atoms: C_15  and  O_17
REMARK                            x       y       z     vdW  Elec       q    Type
REMARK                         _______ _______ _______ _____ _____    ______ ____
ROOT
ATOM      1  C   UNL     1       1.868   7.951  19.580  0.00  0.00    +0.000 A 
ATOM      2  C   UNL     1       2.463   7.917  18.324  0.00  0.00    +0.000 A 
ATOM      3  C   UNL     1       3.071   6.755  17.865  0.00  0.00    +0.000 A 
ATOM      4  C   UNL     1       3.115   5.593  18.651  0.00  0.00    +0.000 A 
ATOM      5  C   UNL     1       2.541   5.653  19.935  0.00  0.00    +0.000 A 
ATOM      6  C   UNL     1       1.933   6.826  20.400  0.00  0.00    +0.000 A 
ENDROOT
BRANCH   1   7
ATOM      7  O   UNL     1       1.197   9.034  20.080  0.00  0.00    +0.000 OA
BRANCH   7   8
ATOM      8  C   UNL     1       1.218  10.180  19.225  0.00  0.00    +0.000 C 
BRANCH   8  12
ATOM      9  C   UNL     1      -2.823  11.294  18.269  0.00  0.00    +0.000 A 
ATOM     10  C   UNL     1      -2.146  10.367  17.473  0.00  0.00    +0.000 A 
ATOM     11  C   UNL     1      -0.839   9.994  17.785  0.00  0.00    +0.000 A 
ATOM     12  C   UNL     1      -0.193  10.561  18.888  0.00  0.00    +0.000 A 
ATOM     13  C   UNL     1      -0.871  11.501  19.675  0.00  0.00    +0.000 A 
ATOM     14  C   UNL     1      -2.180  11.866  19.367  0.00  0.00    +0.000 A 
BRANCH   9  16
ATOM     15  C   UNL     1      -4.396  11.231  16.513  0.00  0.00    +0.000 C 
ATOM     16  O   UNL     1      -4.095  11.591  17.855  0.00  0.00    +0.000 OA
ENDBRANCH   9  16
ENDBRANCH   8  12
ENDBRANCH   7   8
ENDBRANCH   1   7
BRANCH   4  17
ATOM     17  C   UNL     1       3.740   4.292  18.147  0.00  0.00    +0.000 C 
BRANCH  17  18
ATOM     18  C   UNL     1       4.838   4.557  17.110  0.00  0.00    +0.000 A 
ATOM     19  C   UNL     1       6.126   4.938  17.520  0.00  0.00    +0.000 A 
ATOM     20  C   UNL     1       7.144   5.104  16.578  0.00  0.00    +0.000 A 
ATOM     21  C   UNL     1       6.880   4.889  15.231  0.00  0.00    +0.000 A 
ATOM     22  F   UNL     1       7.864   5.026  14.332  0.00  0.00    +0.000 F 
ATOM     23  C   UNL     1       5.610   4.528  14.802  0.00  0.00    +0.000 A 
ATOM     24  C   UNL     1       4.589   4.370  15.737  0.00  0.00    +0.000 A 
ENDBRANCH  17  18
BRANCH  17  25
ATOM     25  C   UNL     1       2.760   3.275  17.511  0.00  0.00    +0.000 C 
BRANCH  25  26
ATOM     26  C   UNL     1       2.707   1.952  18.242  0.00  0.00    +0.000 C 
ATOM     27  O   UNL     1       3.665   1.218  18.420  0.00  0.00    +0.000 OA
BRANCH  26  28
ATOM     28  O   UNL     1       1.462   1.641  18.668  0.00  0.00    +0.000 OA
ATOM     29  H   UNL     1       1.295   0.689  18.799  0.00  0.00    +0.000 HD
ENDBRANCH  26  28
ENDBRANCH  25  26
ENDBRANCH  17  25
ENDBRANCH   4  17
TORSDOF 9
ENDMDL
MODEL 5
REMARK VINA RESULT:      -8.1      0.967      1.804
REMARK  Name = 
REMARK  10 active torsions:
REMARK  status: ('A' for Active; 'I' for Inactive)
REMARK    1  A    between atoms: C_1  and  O_2
REMARK    2  A    between atoms: O_2  and  C_3
REMARK    3  A    between atoms: C_6  and  C_7
REMARK    4  A    between atoms: C_7  and  O_8
REMARK    5  A    between atoms: O_8  and  C_9
REMARK    6  A    between atoms: C_12  and  C_13
REMARK    7  A    between atoms: C_13  and  C_14
REMARK    8  A    between atoms: C_13  and  C_18
REMARK    9  A    between atoms: C_14  and  C_15
REMARK   10  A    between atoms: C_15  and  O_17
REMARK                            x       y       z     vdW  Elec       q    Type
REMARK                         _______ _______ _______ _____ _____    ______ ____
ROOT
ATOM      1  C   UNL     1       1.503   8.806  19.721  0.00  0.00    +0.000 A 
ATOM      2  C   UNL     1       1.364   7.838  20.709  0.00  0.00    +0.000 A 
ATOM      3  C   UNL     1       1.773   6.531  20.474  0.00  0.00    +0.000 A 
ATOM      4  C   UNL     1       2.321   6.146  19.241  0.00  0.00    +0.000 A 
ATOM      5  C   UNL     1       2.420   7.128  18.238  0.00  0.00    +0.000 A 
ATOM      6  C   UNL     1       2.004   8.445  18.472  0.00  0.00    +0.000 A 
ENDROOT
BRANCH   1   7
ATOM      7  O   UNL     1       1.182  10.126  19.893  0.00  0.00    +0.000 OA
BRANCH   7   8
ATOM      8  C   UNL     1       0.889  10.819  18.678  0.00  0.00    +0.000 C 
BRANCH   8  12
ATOM      9  C   UNL     1      -3.377  11.093  18.214  0.00  0.00    +0.000 A 
ATOM     10  C   UNL     1      -2.650  10.158  17.472  0.00  0.00    +0.000 A 
ATOM     11  C   UNL     1      -1.269  10.056  17.627  0.00  0.00    +0.000 A 
ATOM     12  C   UNL     1      -0.600  10.906  18.515  0.00  0.00    +0.000 A 
ATOM     13  C   UNL     1      -1.329  11.852  19.245  0.00  0.00    +0.000 A 
ATOM     14  C   UNL     1      -2.712  11.945  19.096  0.00  0.00    +0.000 A 
BRANCH   9  16
ATOM     15  C   UNL     1      -5.513  11.787  18.933  0.00  0.00    +0.000 C 
ATOM     16  O   UNL     1      -4.724  11.106  17.966  0.00  0.00    +0.000 OA
ENDBRANCH   9  16
ENDBRANCH   8  12
ENDBRANCH   7   8
ENDBRANCH   1   7
BRANCH   4  17
ATOM     17  C   UNL     1       2.817   4.724  18.978  0.00  0.00    +0.000 C 
BRANCH  17  18
ATOM     18  C   UNL     1       4.204   4.721  18.326  0.00  0.00    +0.000 A 
ATOM     19  C   UNL     1       5.339   5.092  19.065  0.00  0.00    +0.000 A 
ATOM     20  C   UNL     1       6.610   5.015  18.491  0.00  0.00    +0.000 A 
ATOM     21  C   UNL     1       6.750   4.569  17.183  0.00  0.00    +0.000 A 
ATOM     22  F   UNL     1       7.973   4.473  16.643  0.00  0.00    +0.000 F 
ATOM     23  C   UNL     1       5.642   4.213  16.427  0.00  0.00    +0.000 A 
ATOM     24  C   UNL     1       4.370   4.296  16.993  0.00  0.00    +0.000 A 
ENDBRANCH  17  18
BRANCH  17  25
ATOM     25  C   UNL     1       1.904   3.844  18.089  0.00  0.00    +0.000 C 
BRANCH  25  26
ATOM     26  C   UNL     1       1.272   2.688  18.833  0.00  0.00    +0.000 C 
ATOM     27  O   UNL     1       0.484   2.805  19.758  0.00  0.00    +0.000 OA
BRANCH  26  28
ATOM     28  O   UNL     1       1.694   1.485  18.384  0.00  0.00    +0.000 OA
ATOM     29  H   UNL     1       1.154   1.098  17.670  0.00  0.00    +0.000 HD
ENDBRANCH  26  28
ENDBRANCH  25  26
ENDBRANCH  17  25
ENDBRANCH   4  17
TORSDOF 9
ENDMDL
MODEL 6
REMARK VINA RESULT:      -8.1      1.084      1.650
REMARK  Name = 
REMARK  10 active torsions:
REMARK  status: ('A' for Active; 'I' for Inactive)
REMARK    1  A    between atoms: C_1  and  O_2
REMARK    2  A    between atoms: O_2  and  C_3
REMARK    3  A    between atoms: C_6  and  C_7
REMARK    4  A    between atoms: C_7  and  O_8
REMARK    5  A    between atoms: O_8  and  C_9
REMARK    6  A    between atoms: C_12  and  C_13
REMARK    7  A    between atoms: C_13  and  C_14
REMARK    8  A    between atoms: C_13  and  C_18
REMARK    9  A    between atoms: C_14  and  C_15
REMARK   10  A    between atoms: C_15  and  O_17
REMARK                            x       y       z     vdW  Elec       q    Type
REMARK                         _______ _______ _______ _____ _____    ______ ____
ROOT
ATOM      1  C   UNL     1       1.603   8.830  19.013  0.00  0.00    +0.000 A 
ATOM      2  C   UNL     1       1.513   8.200  20.249  0.00  0.00    +0.000 A 
ATOM      3  C   UNL     1       2.125   6.970  20.457  0.00  0.00    +0.000 A 
ATOM      4  C   UNL     1       2.836   6.324  19.434  0.00  0.00    +0.000 A 
ATOM      5  C   UNL     1       2.887   6.956  18.177  0.00  0.00    +0.000 A 
ATOM      6  C   UNL     1       2.266   8.194  17.965  0.00  0.00    +0.000 A 
ENDROOT
BRANCH   1   7
ATOM      7  O   UNL     1       1.081  10.067  18.745  0.00  0.00    +0.000 OA
BRANCH   7   8
ATOM      8  C   UNL     1       0.067  10.485  19.662  0.00  0.00    +0.000 C 
BRANCH   8  12
ATOM      9  C   UNL     1      -3.548  11.301  17.483  0.00  0.00    +0.000 A 
ATOM     10  C   UNL     1      -2.614  10.394  16.975  0.00  0.00    +0.000 A 
ATOM     11  C   UNL     1      -1.446  10.117  17.683  0.00  0.00    +0.000 A 
ATOM     12  C   UNL     1      -1.194  10.761  18.899  0.00  0.00    +0.000 A 
ATOM     13  C   UNL     1      -2.125  11.681  19.397  0.00  0.00    +0.000 A 
ATOM     14  C   UNL     1      -3.297  11.950  18.693  0.00  0.00    +0.000 A 
BRANCH   9  16
ATOM     15  C   UNL     1      -5.784  12.042  17.356  0.00  0.00    +0.000 C 
ATOM     16  O   UNL     1      -4.648  11.501  16.692  0.00  0.00    +0.000 OA
ENDBRANCH   9  16
ENDBRANCH   8  12
ENDBRANCH   7   8
ENDBRANCH   1   7
BRANCH   4  17
ATOM     17  C   UNL     1       3.554   4.993  19.655  0.00  0.00    +0.000 C 
BRANCH  17  18
ATOM     18  C   UNL     1       4.673   4.777  18.631  0.00  0.00    +0.000 A 
ATOM     19  C   UNL     1       4.404   4.148  17.403  0.00  0.00    +0.000 A 
ATOM     20  C   UNL     1       5.408   4.021  16.441  0.00  0.00    +0.000 A 
ATOM     21  C   UNL     1       6.679   4.520  16.700  0.00  0.00    +0.000 A 
ATOM     22  F   UNL     1       7.634   4.419  15.766  0.00  0.00    +0.000 F 
ATOM     23  C   UNL     1       6.973   5.130  17.912  0.00  0.00    +0.000 A 
ATOM     24  C   UNL     1       5.976   5.251  18.879  0.00  0.00    +0.000 A 
ENDBRANCH  17  18
BRANCH  17  25
ATOM     25  C   UNL     1       2.660   3.729  19.613  0.00  0.00    +0.000 C 
BRANCH  25  26
ATOM     26  C   UNL     1       1.781   3.572  20.834  0.00  0.00    +0.000 C 
ATOM     27  O   UNL     1       2.193   3.376  21.966  0.00  0.00    +0.000 OA
BRANCH  26  28
ATOM     28  O   UNL     1       0.463   3.645  20.541  0.00  0.00    +0.000 OA
ATOM     29  H   UNL     1      -0.116   3.093  21.099  0.00  0.00    +0.000 HD
ENDBRANCH  26  28
ENDBRANCH  25  26
ENDBRANCH  17  25
ENDBRANCH   4  17
TORSDOF 9
ENDMDL
MODEL 7
REMARK VINA RESULT:      -8.1      1.640      2.152
REMARK  Name = 
REMARK  10 active torsions:
REMARK  status: ('A' for Active; 'I' for Inactive)
REMARK    1  A    between atoms: C_1  and  O_2
REMARK    2  A    between atoms: O_2  and  C_3
REMARK    3  A    between atoms: C_6  and  C_7
REMARK    4  A    between atoms: C_7  and  O_8
REMARK    5  A    between atoms: O_8  and  C_9
REMARK    6  A    between atoms: C_12  and  C_13
REMARK    7  A    between atoms: C_13  and  C_14
REMARK    8  A    between atoms: C_13  and  C_18
REMARK    9  A    between atoms: C_14  and  C_15
REMARK   10  A    between atoms: C_15  and  O_17
REMARK                            x       y       z     vdW  Elec       q    Type
REMARK                         _______ _______ _______ _____ _____    ______ ____
ROOT
ATOM      1  C   UNL     1       1.803   7.775  19.679  0.00  0.00    +0.000 A 
ATOM      2  C   UNL     1       1.731   6.725  20.588  0.00  0.00    +0.000 A 
ATOM      3  C   UNL     1       2.506   5.586  20.410  0.00  0.00    +0.000 A 
ATOM      4  C   UNL     1       3.369   5.453  19.312  0.00  0.00    +0.000 A 
ATOM      5  C   UNL     1       3.404   6.507  18.379  0.00  0.00    +0.000 A 
ATOM      6  C   UNL     1       2.619   7.654  18.556  0.00  0.00    +0.000 A 
ENDROOT
BRANCH   1   7
ATOM      7  O   UNL     1       1.119   8.953  19.815  0.00  0.00    +0.000 OA
BRANCH   7   8
ATOM      8  C   UNL     1       1.035   9.721  18.612  0.00  0.00    +0.000 C 
BRANCH   8  12
ATOM      9  C   UNL     1      -2.913  11.396  18.298  0.00  0.00    +0.000 A 
ATOM     10  C   UNL     1      -2.516  10.373  17.433  0.00  0.00    +0.000 A 
ATOM     11  C   UNL     1      -1.241   9.818  17.538  0.00  0.00    +0.000 A 
ATOM     12  C   UNL     1      -0.346  10.298  18.500  0.00  0.00    +0.000 A 
ATOM     13  C   UNL     1      -0.742  11.334  19.355  0.00  0.00    +0.000 A 
ATOM     14  C   UNL     1      -2.021  11.880  19.255  0.00  0.00    +0.000 A 
BRANCH   9  16
ATOM     15  C   UNL     1      -4.806  11.423  16.892  0.00  0.00    +0.000 C 
ATOM     16  O   UNL     1      -4.181  11.868  18.089  0.00  0.00    +0.000 OA
ENDBRANCH   9  16
ENDBRANCH   8  12
ENDBRANCH   7   8
ENDBRANCH   1   7
BRANCH   4  17
ATOM     17  C   UNL     1       4.263   4.228  19.121  0.00  0.00    +0.000 C 
BRANCH  17  18
ATOM     18  C   UNL     1       5.142   4.358  17.872  0.00  0.00    +0.000 A 
ATOM     19  C   UNL     1       4.601   4.136  16.595  0.00  0.00    +0.000 A 
ATOM     20  C   UNL     1       5.384   4.329  15.454  0.00  0.00    +0.000 A 
ATOM     21  C   UNL     1       6.703   4.744  15.586  0.00  0.00    +0.000 A 
ATOM     22  F   UNL     1       7.445   4.952  14.490  0.00  0.00    +0.000 F 
ATOM     23  C   UNL     1       7.265   4.953  16.838  0.00  0.00    +0.000 A 
ATOM     24  C   UNL     1       6.490   4.753  17.979  0.00  0.00    +0.000 A 
ENDBRANCH  17  18
BRANCH  17  25
ATOM     25  C   UNL     1       3.531   2.868  19.013  0.00  0.00    +0.000 C 
BRANCH  25  26
ATOM     26  C   UNL     1       4.369   1.695  19.470  0.00  0.00    +0.000 C 
ATOM     27  O   UNL     1       5.049   1.679  20.483  0.00  0.00    +0.000 OA
BRANCH  26  28
ATOM     28  O   UNL     1       4.314   0.649  18.614  0.00  0.00    +0.000 OA
ATOM     29  H   UNL     1       4.688  -0.184  18.955  0.00  0.00    +0.000 HD
ENDBRANCH  26  28
ENDBRANCH  25  26
ENDBRANCH  17  25
ENDBRANCH   4  17
TORSDOF 9
ENDMDL
MODEL 8
REMARK VINA RESULT:      -8.1      0.789      1.832
REMARK  Name = 
REMARK  10 active torsions:
REMARK  status: ('A' for Active; 'I' for Inactive)
REMARK    1  A    between atoms: C_1  and  O_2
REMARK    2  A    between atoms: O_2  and  C_3
REMARK    3  A    between atoms: C_6  and  C_7
REMARK    4  A    between atoms: C_7  and  O_8
REMARK    5  A    between atoms: O_8  and  C_9
REMARK    6  A    between atoms: C_12  and  C_13
REMARK    7  A    between atoms: C_13  and  C_14
REMARK    8  A    between atoms: C_13  and  C_18
REMARK    9  A    between atoms: C_14  and  C_15
REMARK   10  A    between atoms: C_15  and  O_17
REMARK                            x       y       z     vdW  Elec       q    Type
REMARK                         _______ _______ _______ _____ _____    ______ ____
ROOT
ATOM      1  C   UNL     1       1.558   9.120  19.178  0.00  0.00    +0.000 A 
ATOM      2  C   UNL     1       1.481   8.261  20.269  0.00  0.00    +0.000 A 
ATOM      3  C   UNL     1       1.858   6.930  20.143  0.00  0.00    +0.000 A 
ATOM      4  C   UNL     1       2.313   6.410  18.921  0.00  0.00    +0.000 A 
ATOM      5  C   UNL     1       2.349   7.282  17.816  0.00  0.00    +0.000 A 
ATOM      6  C   UNL     1       1.964   8.623  17.941  0.00  0.00    +0.000 A 
ENDROOT
BRANCH   1   7
ATOM      7  O   UNL     1       1.263  10.456  19.234  0.00  0.00    +0.000 OA
BRANCH   7   8
ATOM      8  C   UNL     1       0.109  10.767  20.019  0.00  0.00    +0.000 C 
BRANCH   8  12
ATOM      9  C   UNL     1      -3.256  11.268  17.391  0.00  0.00    +0.000 A 
ATOM     10  C   UNL     1      -3.201  11.969  18.598  0.00  0.00    +0.000 A 
ATOM     11  C   UNL     1      -2.106  11.819  19.449  0.00  0.00    +0.000 A 
ATOM     12  C   UNL     1      -1.066  10.950  19.105  0.00  0.00    +0.000 A 
ATOM     13  C   UNL     1      -1.132  10.237  17.901  0.00  0.00    +0.000 A 
ATOM     14  C   UNL     1      -2.223  10.396  17.047  0.00  0.00    +0.000 A 
BRANCH   9  16
ATOM     15  C   UNL     1      -5.522  11.923  17.383  0.00  0.00    +0.000 C 
ATOM     16  O   UNL     1      -4.386  11.487  16.648  0.00  0.00    +0.000 OA
ENDBRANCH   9  16
ENDBRANCH   8  12
ENDBRANCH   7   8
ENDBRANCH   1   7
BRANCH   4  17
ATOM     17  C   UNL     1       2.774   4.961  18.773  0.00  0.00    +0.000 C 
BRANCH  17  18
ATOM     18  C   UNL     1       4.225   4.877  18.285  0.00  0.00    +0.000 A 
ATOM     19  C   UNL     1       5.282   5.274  19.121  0.00  0.00    +0.000 A 
ATOM     20  C   UNL     1       6.606   5.125  18.703  0.00  0.00    +0.000 A 
ATOM     21  C   UNL     1       6.878   4.580  17.454  0.00  0.00    +0.000 A 
ATOM     22  F   UNL     1       8.149   4.416  17.064  0.00  0.00    +0.000 F 
ATOM     23  C   UNL     1       5.849   4.197  16.603  0.00  0.00    +0.000 A 
ATOM     24  C   UNL     1       4.526   4.352  17.013  0.00  0.00    +0.000 A 
ENDBRANCH  17  18
BRANCH  17  25
ATOM     25  C   UNL     1       1.931   4.078  17.820  0.00  0.00    +0.000 C 
BRANCH  25  26
ATOM     26  C   UNL     1       1.516   2.759  18.433  0.00  0.00    +0.000 C 
ATOM     27  O   UNL     1       0.668   2.632  19.301  0.00  0.00    +0.000 OA
BRANCH  26  28
ATOM     28  O   UNL     1       2.208   1.710  17.933  0.00  0.00    +0.000 OA
ATOM     29  H   UNL     1       1.917   0.834  18.248  0.00  0.00    +0.000 HD
ENDBRANCH  26  28
ENDBRANCH  25  26
ENDBRANCH  17  25
ENDBRANCH   4  17
TORSDOF 9
ENDMDL
MODEL 9
REMARK VINA RESULT:      -8.1      0.990      1.927
REMARK  Name = 
REMARK  10 active torsions:
REMARK  status: ('A' for Active; 'I' for Inactive)
REMARK    1  A    between atoms: C_1  and  O_2
REMARK    2  A    between atoms: O_2  and  C_3
REMARK    3  A    between atoms: C_6  and  C_7
REMARK    4  A    between atoms: C_7  and  O_8
REMARK    5  A    between atoms: O_8  and  C_9
REMARK    6  A    between atoms: C_12  and  C_13
REMARK    7  A    between atoms: C_13  and  C_14
REMARK    8  A    between atoms: C_13  and  C_18
REMARK    9  A    between atoms: C_14  and  C_15
REMARK   10  A    between atoms: C_15  and  O_17
REMARK                            x       y       z     vdW  Elec       q    Type
REMARK                         _______ _______ _______ _____ _____    ______ ____
ROOT
ATOM      1  C   UNL     1       1.586   8.615  19.708  0.00  0.00    +0.000 A 
ATOM      2  C   UNL     1       1.453   7.640  20.690  0.00  0.00    +0.000 A 
ATOM      3  C   UNL     1       1.829   6.327  20.432  0.00  0.00    +0.000 A 
ATOM      4  C   UNL     1       2.338   5.943  19.182  0.00  0.00    +0.000 A 
ATOM      5  C   UNL     1       2.431   6.934  18.185  0.00  0.00    +0.000 A 
ATOM      6  C   UNL     1       2.048   8.256  18.443  0.00  0.00    +0.000 A 
ENDROOT
BRANCH   1   7
ATOM      7  O   UNL     1       1.296   9.939  19.900  0.00  0.00    +0.000 OA
BRANCH   7   8
ATOM      8  C   UNL     1       1.019  10.658  18.696  0.00  0.00    +0.000 C 
BRANCH   8  12
ATOM      9  C   UNL     1      -3.221  11.309  18.414  0.00  0.00    +0.000 A 
ATOM     10  C   UNL     1      -2.453  12.073  19.296  0.00  0.00    +0.000 A 
ATOM     11  C   UNL     1      -1.076  11.874  19.383  0.00  0.00    +0.000 A 
ATOM     12  C   UNL     1      -0.459  10.893  18.600  0.00  0.00    +0.000 A 
ATOM     13  C   UNL     1      -1.235  10.119  17.728  0.00  0.00    +0.000 A 
ATOM     14  C   UNL     1      -2.610  10.326  17.635  0.00  0.00    +0.000 A 
BRANCH   9  16
ATOM     15  C   UNL     1      -4.994  12.452  19.470  0.00  0.00    +0.000 C 
ATOM     16  O   UNL     1      -4.562  11.586  18.428  0.00  0.00    +0.000 OA
ENDBRANCH   9  16
ENDBRANCH   8  12
ENDBRANCH   7   8
ENDBRANCH   1   7
BRANCH   4  17
ATOM     17  C   UNL     1       2.799   4.515  18.893  0.00  0.00    +0.000 C 
BRANCH  17  18
ATOM     18  C   UNL     1       4.186   4.490  18.241  0.00  0.00    +0.000 A 
ATOM     19  C   UNL     1       4.334   4.110  16.896  0.00  0.00    +0.000 A 
ATOM     20  C   UNL     1       5.588   4.161  16.284  0.00  0.00    +0.000 A 
ATOM     21  C   UNL     1       6.693   4.590  17.009  0.00  0.00    +0.000 A 
ATOM     22  F   UNL     1       7.891   4.661  16.412  0.00  0.00    +0.000 F 
ATOM     23  C   UNL     1       6.574   4.954  18.343  0.00  0.00    +0.000 A 
ATOM     24  C   UNL     1       5.326   4.896  18.961  0.00  0.00    +0.000 A 
ENDBRANCH  17  18
BRANCH  17  25
ATOM     25  C   UNL     1       1.865   3.675  17.987  0.00  0.00    +0.000 C 
BRANCH  25  26
ATOM     26  C   UNL     1       1.581   2.293  18.534  0.00  0.00    +0.000 C 
ATOM     27  O   UNL     1       2.423   1.545  19.003  0.00  0.00    +0.000 OA
BRANCH  26  28
ATOM     28  O   UNL     1       0.279   1.946  18.425  0.00  0.00    +0.000 OA
ATOM     29  H   UNL     1      -0.354   2.682  18.516  0.00  0.00    +0.000 HD
ENDBRANCH  26  28
ENDBRANCH  25  26
ENDBRANCH  17  25
ENDBRANCH   4  17
TORSDOF 9
ENDMDL
