MODEL 1
REMARK VINA RESULT:      -5.8      0.000      0.000
REMARK  Name = 
REMARK  2 active torsions:
REMARK  status: ('A' for Active; 'I' for Inactive)
REMARK    1  A    between atoms: N_1  and  O_2
REMARK    2  A    between atoms: O_2  and  C_3
REMARK                            x       y       z     vdW  Elec       q    Type
REMARK                         _______ _______ _______ _____ _____    ______ ____
ROOT
ATOM      1  C   UNL     1       4.424   3.801  18.491  0.00  0.00    +0.000 C 
ATOM      2  C   UNL     1       3.768   4.988  17.758  0.00  0.00    +0.000 C 
ATOM      3  C   UNL     1       2.254   4.803  17.874  0.00  0.00    +0.000 C 
ATOM      4  C   UNL     1       2.146   4.067  19.172  0.00  0.00    +0.000 A 
ATOM      5  C   UNL     1       1.019   3.901  19.958  0.00  0.00    +0.000 A 
ATOM      6  C   UNL     1       1.129   3.131  21.116  0.00  0.00    +0.000 A 
ATOM      7  C   UNL     1       2.350   2.531  21.462  0.00  0.00    +0.000 A 
ATOM      8  C   UNL     1       3.481   2.702  20.659  0.00  0.00    +0.000 A 
ATOM      9  C   UNL     1       3.372   3.484  19.520  0.00  0.00    +0.000 A 
ENDROOT
BRANCH   1  10
ATOM     10  O   UNL     1       5.644   4.203  19.120  0.00  0.00    +0.000 OA
BRANCH  10  11
ATOM     11  N   UNL     1       6.723   4.209  18.130  0.00  0.00    +0.000 NA
ATOM     12  H   UNL     1       6.375   4.906  17.470  0.00  0.00    +0.000 HD
ATOM     13  H   UNL     1       6.569   3.305  17.676  0.00  0.00    +0.000 HD
ENDBRANCH  10  11
ENDBRANCH   1  10
TORSDOF 2
ENDMDL
MODEL 2
REMARK VINA RESULT:      -5.6      2.992      4.333
REMARK  Name = 
REMARK  2 active torsions:
REMARK  status: ('A' for Active; 'I' for Inactive)
REMARK    1  A    between atoms: N_1  and  O_2
REMARK    2  A    between atoms: O_2  and  C_3
REMARK                            x       y       z     vdW  Elec       q    Type
REMARK                         _______ _______ _______ _____ _____    ______ ____
ROOT
ATOM      1  C   UNL     1       1.078   3.683  18.848  0.00  0.00    +0.000 C 
ATOM      2  C   UNL     1       1.635   2.246  18.796  0.00  0.00    +0.000 C 
ATOM      3  C   UNL     1       2.625   2.193  17.632  0.00  0.00    +0.000 C 
ATOM      4  C   UNL     1       3.118   3.605  17.599  0.00  0.00    +0.000 A 
ATOM      5  C   UNL     1       4.252   4.090  16.971  0.00  0.00    +0.000 A 
ATOM      6  C   UNL     1       4.501   5.461  17.026  0.00  0.00    +0.000 A 
ATOM      7  C   UNL     1       3.613   6.323  17.688  0.00  0.00    +0.000 A 
ATOM      8  C   UNL     1       2.468   5.824  18.315  0.00  0.00    +0.000 A 
ATOM      9  C   UNL     1       2.236   4.458  18.275  0.00  0.00    +0.000 A 
ENDROOT
BRANCH   1  10
ATOM     10  O   UNL     1       0.819   4.080  20.197  0.00  0.00    +0.000 OA
BRANCH  10  11
ATOM     11  N   UNL     1       0.944   2.918  21.078  0.00  0.00    +0.000 NA
ATOM     12  H   UNL     1       0.426   3.240  21.897  0.00  0.00    +0.000 HD
ATOM     13  H   UNL     1       1.931   2.981  21.339  0.00  0.00    +0.000 HD
ENDBRANCH  10  11
ENDBRANCH   1  10
TORSDOF 2
ENDMDL
MODEL 3
REMARK VINA RESULT:      -5.6      1.752      1.866
REMARK  Name = 
REMARK  2 active torsions:
REMARK  status: ('A' for Active; 'I' for Inactive)
REMARK    1  A    between atoms: N_1  and  O_2
REMARK    2  A    between atoms: O_2  and  C_3
REMARK                            x       y       z     vdW  Elec       q    Type
REMARK                         _______ _______ _______ _____ _____    ______ ____
ROOT
ATOM      1  C   UNL     1       5.106   4.630  17.793  0.00  0.00    +0.000 C 
ATOM      2  C   UNL     1       4.618   6.043  18.168  0.00  0.00    +0.000 C 
ATOM      3  C   UNL     1       3.116   6.087  17.884  0.00  0.00    +0.000 C 
ATOM      4  C   UNL     1       2.733   4.657  18.101  0.00  0.00    +0.000 A 
ATOM      5  C   UNL     1       1.464   4.143  18.299  0.00  0.00    +0.000 A 
ATOM      6  C   UNL     1       1.325   2.762  18.434  0.00  0.00    +0.000 A 
ATOM      7  C   UNL     1       2.445   1.919  18.354  0.00  0.00    +0.000 A 
ATOM      8  C   UNL     1       3.722   2.449  18.150  0.00  0.00    +0.000 A 
ATOM      9  C   UNL     1       3.857   3.824  18.036  0.00  0.00    +0.000 A 
ENDROOT
BRANCH   1  10
ATOM     10  O   UNL     1       6.160   4.208  18.665  0.00  0.00    +0.000 OA
BRANCH  10  11
ATOM     11  N   UNL     1       7.439   4.296  17.958  0.00  0.00    +0.000 NA
ATOM     12  H   UNL     1       7.905   5.028  18.497  0.00  0.00    +0.000 HD
ATOM     13  H   UNL     1       7.145   4.746  17.088  0.00  0.00    +0.000 HD
ENDBRANCH  10  11
ENDBRANCH   1  10
TORSDOF 2
ENDMDL
MODEL 4
REMARK VINA RESULT:      -5.6      1.539      1.814
REMARK  Name = 
REMARK  2 active torsions:
REMARK  status: ('A' for Active; 'I' for Inactive)
REMARK    1  A    between atoms: N_1  and  O_2
REMARK    2  A    between atoms: O_2  and  C_3
REMARK                            x       y       z     vdW  Elec       q    Type
REMARK                         _______ _______ _______ _____ _____    ______ ____
ROOT
ATOM      1  C   UNL     1       3.813   4.768  17.577  0.00  0.00    +0.000 C 
ATOM      2  C   UNL     1       4.216   5.803  18.647  0.00  0.00    +0.000 C 
ATOM      3  C   UNL     1       2.976   6.070  19.500  0.00  0.00    +0.000 C 
ATOM      4  C   UNL     1       2.260   4.761  19.398  0.00  0.00    +0.000 A 
ATOM      5  C   UNL     1       1.242   4.288  20.208  0.00  0.00    +0.000 A 
ATOM      6  C   UNL     1       0.678   3.050  19.904  0.00  0.00    +0.000 A 
ATOM      7  C   UNL     1       1.124   2.313  18.796  0.00  0.00    +0.000 A 
ATOM      8  C   UNL     1       2.150   2.801  17.982  0.00  0.00    +0.000 A 
ATOM      9  C   UNL     1       2.721   4.023  18.299  0.00  0.00    +0.000 A 
ENDROOT
BRANCH   1  10
ATOM     10  O   UNL     1       4.907   3.897  17.274  0.00  0.00    +0.000 OA
BRANCH  10  11
ATOM     11  N   UNL     1       5.750   3.745  18.461  0.00  0.00    +0.000 NA
ATOM     12  H   UNL     1       5.547   2.779  18.720  0.00  0.00    +0.000 HD
ATOM     13  H   UNL     1       5.237   4.319  19.134  0.00  0.00    +0.000 HD
ENDBRANCH  10  11
ENDBRANCH   1  10
TORSDOF 2
ENDMDL
MODEL 5
REMARK VINA RESULT:      -5.5      1.957      2.472
REMARK  Name = 
REMARK  2 active torsions:
REMARK  status: ('A' for Active; 'I' for Inactive)
REMARK    1  A    between atoms: N_1  and  O_2
REMARK    2  A    between atoms: O_2  and  C_3
REMARK                            x       y       z     vdW  Elec       q    Type
REMARK                         _______ _______ _______ _____ _____    ______ ____
ROOT
ATOM      1  C   UNL     1       6.129   4.746  18.552  0.00  0.00    +0.000 C 
ATOM      2  C   UNL     1       5.753   5.858  17.552  0.00  0.00    +0.000 C 
ATOM      3  C   UNL     1       4.758   5.251  16.563  0.00  0.00    +0.000 C 
ATOM      4  C   UNL     1       4.094   4.213  17.412  0.00  0.00    +0.000 A 
ATOM      5  C   UNL     1       2.899   3.559  17.168  0.00  0.00    +0.000 A 
ATOM      6  C   UNL     1       2.484   2.584  18.074  0.00  0.00    +0.000 A 
ATOM      7  C   UNL     1       3.269   2.266  19.194  0.00  0.00    +0.000 A 
ATOM      8  C   UNL     1       4.477   2.929  19.428  0.00  0.00    +0.000 A 
ATOM      9  C   UNL     1       4.876   3.912  18.535  0.00  0.00    +0.000 A 
ENDROOT
BRANCH   1  10
ATOM     10  O   UNL     1       6.359   5.291  19.855  0.00  0.00    +0.000 OA
BRANCH  10  11
ATOM     11  N   UNL     1       7.799   5.448  20.069  0.00  0.00    +0.000 NA
ATOM     12  H   UNL     1       7.880   6.465  20.097  0.00  0.00    +0.000 HD
ATOM     13  H   UNL     1       8.159   5.172  19.153  0.00  0.00    +0.000 HD
ENDBRANCH  10  11
ENDBRANCH   1  10
TORSDOF 2
ENDMDL
MODEL 6
REMARK VINA RESULT:      -5.5      2.554      3.845
REMARK  Name = 
REMARK  2 active torsions:
REMARK  status: ('A' for Active; 'I' for Inactive)
REMARK    1  A    between atoms: N_1  and  O_2
REMARK    2  A    between atoms: O_2  and  C_3
REMARK                            x       y       z     vdW  Elec       q    Type
REMARK                         _______ _______ _______ _____ _____    ______ ____
ROOT
ATOM      1  C   UNL     1       1.564   4.200  20.507  0.00  0.00    +0.000 C 
ATOM      2  C   UNL     1       0.947   2.863  20.052  0.00  0.00    +0.000 C 
ATOM      3  C   UNL     1       1.064   2.812  18.528  0.00  0.00    +0.000 C 
ATOM      4  C   UNL     1       2.294   3.633  18.299  0.00  0.00    +0.000 A 
ATOM      5  C   UNL     1       3.075   3.685  17.158  0.00  0.00    +0.000 A 
ATOM      6  C   UNL     1       4.159   4.562  17.140  0.00  0.00    +0.000 A 
ATOM      7  C   UNL     1       4.437   5.379  18.248  0.00  0.00    +0.000 A 
ATOM      8  C   UNL     1       3.639   5.322  19.394  0.00  0.00    +0.000 A 
ATOM      9  C   UNL     1       2.574   4.434  19.414  0.00  0.00    +0.000 A 
ENDROOT
BRANCH   1  10
ATOM     10  O   UNL     1       2.212   4.056  21.774  0.00  0.00    +0.000 OA
BRANCH  10  11
ATOM     11  N   UNL     1       2.539   2.647  21.995  0.00  0.00    +0.000 NA
ATOM     12  H   UNL     1       3.549   2.659  21.845  0.00  0.00    +0.000 HD
ATOM     13  H   UNL     1       2.145   2.225  21.151  0.00  0.00    +0.000 HD
ENDBRANCH  10  11
ENDBRANCH   1  10
TORSDOF 2
ENDMDL
MODEL 7
REMARK VINA RESULT:      -5.5      1.864      2.158
REMARK  Name = 
REMARK  2 active torsions:
REMARK  status: ('A' for Active; 'I' for Inactive)
REMARK    1  A    between atoms: N_1  and  O_2
REMARK    2  A    between atoms: O_2  and  C_3
REMARK                            x       y       z     vdW  Elec       q    Type
REMARK                         _______ _______ _______ _____ _____    ______ ____
ROOT
ATOM      1  C   UNL     1       3.210   2.238  17.979  0.00  0.00    +0.000 C 
ATOM      2  C   UNL     1       4.230   3.241  17.403  0.00  0.00    +0.000 C 
ATOM      3  C   UNL     1       3.612   4.633  17.533  0.00  0.00    +0.000 C 
ATOM      4  C   UNL     1       2.746   4.459  18.741  0.00  0.00    +0.000 A 
ATOM      5  C   UNL     1       2.185   5.448  19.529  0.00  0.00    +0.000 A 
ATOM      6  C   UNL     1       1.364   5.063  20.587  0.00  0.00    +0.000 A 
ATOM      7  C   UNL     1       1.103   3.706  20.833  0.00  0.00    +0.000 A 
ATOM      8  C   UNL     1       1.670   2.714  20.029  0.00  0.00    +0.000 A 
ATOM      9  C   UNL     1       2.502   3.101  18.989  0.00  0.00    +0.000 A 
ENDROOT
BRANCH   1  10
ATOM     10  O   UNL     1       3.875   1.146  18.620  0.00  0.00    +0.000 OA
BRANCH  10  11
ATOM     11  N   UNL     1       4.852   1.668  19.577  0.00  0.00    +0.000 NA
ATOM     12  H   UNL     1       5.471   2.190  18.955  0.00  0.00    +0.000 HD
ATOM     13  H   UNL     1       5.363   0.814  19.813  0.00  0.00    +0.000 HD
ENDBRANCH  10  11
ENDBRANCH   1  10
TORSDOF 2
ENDMDL
MODEL 8
REMARK VINA RESULT:      -5.5      2.679      4.568
REMARK  Name = 
REMARK  2 active torsions:
REMARK  status: ('A' for Active; 'I' for Inactive)
REMARK    1  A    between atoms: N_1  and  O_2
REMARK    2  A    between atoms: O_2  and  C_3
REMARK                            x       y       z     vdW  Elec       q    Type
REMARK                         _______ _______ _______ _____ _____    ______ ____
ROOT
ATOM      1  C   UNL     1       4.606   4.463  19.365  0.00  0.00    +0.000 C 
ATOM      2  C   UNL     1       3.643   4.465  18.161  0.00  0.00    +0.000 C 
ATOM      3  C   UNL     1       3.850   5.789  17.425  0.00  0.00    +0.000 C 
ATOM      4  C   UNL     1       5.285   6.076  17.734  0.00  0.00    +0.000 A 
ATOM      5  C   UNL     1       6.127   6.967  17.091  0.00  0.00    +0.000 A 
ATOM      6  C   UNL     1       7.425   7.116  17.576  0.00  0.00    +0.000 A 
ATOM      7  C   UNL     1       7.858   6.390  18.696  0.00  0.00    +0.000 A 
ATOM      8  C   UNL     1       6.999   5.496  19.342  0.00  0.00    +0.000 A 
ATOM      9  C   UNL     1       5.715   5.337  18.844  0.00  0.00    +0.000 A 
ENDROOT
BRANCH   1  10
ATOM     10  O   UNL     1       5.083   3.141  19.633  0.00  0.00    +0.000 OA
BRANCH  10  11
ATOM     11  N   UNL     1       4.305   2.176  18.853  0.00  0.00    +0.000 NA
ATOM     12  H   UNL     1       4.218   1.412  19.525  0.00  0.00    +0.000 HD
ATOM     13  H   UNL     1       5.008   1.866  18.179  0.00  0.00    +0.000 HD
ENDBRANCH  10  11
ENDBRANCH   1  10
TORSDOF 2
ENDMDL
MODEL 9
REMARK VINA RESULT:      -5.5      2.588      3.875
REMARK  Name = 
REMARK  2 active torsions:
REMARK  status: ('A' for Active; 'I' for Inactive)
REMARK    1  A    between atoms: N_1  and  O_2
REMARK    2  A    between atoms: O_2  and  C_3
REMARK                            x       y       z     vdW  Elec       q    Type
REMARK                         _______ _______ _______ _____ _____    ______ ____
ROOT
ATOM      1  C   UNL     1       6.872   5.419  16.901  0.00  0.00    +0.000 C 
ATOM      2  C   UNL     1       7.635   5.436  18.241  0.00  0.00    +0.000 C 
ATOM      3  C   UNL     1       6.585   5.451  19.353  0.00  0.00    +0.000 C 
ATOM      4  C   UNL     1       5.452   4.726  18.699  0.00  0.00    +0.000 A 
ATOM      5  C   UNL     1       4.349   4.155  19.309  0.00  0.00    +0.000 A 
ATOM      6  C   UNL     1       3.379   3.565  18.500  0.00  0.00    +0.000 A 
ATOM      7  C   UNL     1       3.514   3.566  17.103  0.00  0.00    +0.000 A 
ATOM      8  C   UNL     1       4.630   4.150  16.496  0.00  0.00    +0.000 A 
ATOM      9  C   UNL     1       5.602   4.717  17.305  0.00  0.00    +0.000 A 
ENDROOT
BRANCH   1  10
ATOM     10  O   UNL     1       7.582   4.657  15.920  0.00  0.00    +0.000 OA
BRANCH  10  11
ATOM     11  N   UNL     1       7.577   5.380  14.647  0.00  0.00    +0.000 NA
ATOM     12  H   UNL     1       7.407   6.334  14.968  0.00  0.00    +0.000 HD
ATOM     13  H   UNL     1       6.689   5.064  14.252  0.00  0.00    +0.000 HD
ENDBRANCH  10  11
ENDBRANCH   1  10
TORSDOF 2
ENDMDL
