MODEL 1
REMARK VINA RESULT:      -8.2      0.000      0.000
REMARK  Name = 
REMARK  5 active torsions:
REMARK  status: ('A' for Active; 'I' for Inactive)
REMARK    1  A    between atoms: C_1  and  C_2
REMARK    2  A    between atoms: C_5  and  C_7
REMARK    3  A    between atoms: N_10  and  C_11
REMARK    4  A    between atoms: C_15  and  O_16
REMARK    5  A    between atoms: C_15  and  C_17
REMARK                            x       y       z     vdW  Elec       q    Type
REMARK                         _______ _______ _______ _____ _____    ______ ____
ROOT
ATOM      1  C   UNL     1       2.799   3.531  17.558  0.00  0.00    +0.000 C 
ATOM      2  C   UNL     1       2.959   5.069  17.662  0.00  0.00    +0.000 C 
ATOM      3  C   UNL     1       4.285   5.406  16.988  0.00  0.00    +0.000 C 
ATOM      4  N   UNL     1       5.454   5.023  17.783  0.00  0.00    +0.000 N 
ATOM      5  C   UNL     1       6.678   4.630  17.217  0.00  0.00    +0.000 C 
ATOM      6  O   UNL     1       7.642   4.312  17.922  0.00  0.00    +0.000 OA
ATOM      7  C   UNL     1       5.452   5.367  19.208  0.00  0.00    +0.000 C 
ATOM      8  C   UNL     1       4.114   5.114  19.894  0.00  0.00    +0.000 C 
ATOM      9  C   UNL     1       2.882   5.620  19.114  0.00  0.00    +0.000 C 
ENDROOT
BRANCH   5  10
ATOM     10  C   UNL     1       6.783   4.530  15.742  0.00  0.00    +0.000 A 
ATOM     11  C   UNL     1       6.002   3.695  14.898  0.00  0.00    +0.000 A 
ATOM     12  C   UNL     1       6.381   4.013  13.614  0.00  0.00    +0.000 A 
ATOM     13  N   UNL     1       7.354   4.955  13.740  0.00  0.00    +0.000 N 
ATOM     14  C   UNL     1       8.025   5.682  12.692  0.00  0.00    +0.000 C 
ATOM     15  N   UNL     1       7.679   5.222  15.009  0.00  0.00    +0.000 NA
ENDBRANCH   5  10
BRANCH   9  16
ATOM     16  C   UNL     1       2.599   7.178  19.212  0.00  0.00    +0.000 C 
ATOM     17  C   UNL     1       1.664   7.679  20.327  0.00  0.00    +0.000 C 
ATOM     18  C   UNL     1       1.271   9.149  20.214  0.00  0.00    +0.000 C 
ATOM     19  O   UNL     1       0.809   9.464  18.908  0.00  0.00    +0.000 OA
ATOM     20  C   UNL     1       1.827   9.242  17.939  0.00  0.00    +0.000 C 
ATOM     21  C   UNL     1       2.144   7.757  17.851  0.00  0.00    +0.000 C 
ENDBRANCH   9  16
BRANCH   9  22
ATOM     22  O   UNL     1       1.711   5.030  19.726  0.00  0.00    +0.000 OA
ATOM     23  H   UNL     1       1.979   4.532  20.518  0.00  0.00    +0.000 HD
ENDBRANCH   9  22
TORSDOF 3
ENDMDL
MODEL 2
REMARK VINA RESULT:      -7.6      0.962      1.254
REMARK  Name = 
REMARK  5 active torsions:
REMARK  status: ('A' for Active; 'I' for Inactive)
REMARK    1  A    between atoms: C_1  and  C_2
REMARK    2  A    between atoms: C_5  and  C_7
REMARK    3  A    between atoms: N_10  and  C_11
REMARK    4  A    between atoms: C_15  and  O_16
REMARK    5  A    between atoms: C_15  and  C_17
REMARK                            x       y       z     vdW  Elec       q    Type
REMARK                         _______ _______ _______ _____ _____    ______ ____
ROOT
ATOM      1  C   UNL     1       3.231   3.189  17.365  0.00  0.00    +0.000 C 
ATOM      2  C   UNL     1       3.309   4.728  17.526  0.00  0.00    +0.000 C 
ATOM      3  C   UNL     1       4.518   5.181  16.715  0.00  0.00    +0.000 C 
ATOM      4  N   UNL     1       5.798   4.844  17.342  0.00  0.00    +0.000 N 
ATOM      5  C   UNL     1       6.964   4.556  16.612  0.00  0.00    +0.000 C 
ATOM      6  O   UNL     1       8.026   4.274  17.178  0.00  0.00    +0.000 OA
ATOM      7  C   UNL     1       5.952   5.125  18.771  0.00  0.00    +0.000 C 
ATOM      8  C   UNL     1       4.728   4.755  19.601  0.00  0.00    +0.000 C 
ATOM      9  C   UNL     1       3.380   5.211  19.003  0.00  0.00    +0.000 C 
ENDROOT
BRANCH   5  10
ATOM     10  C   UNL     1       6.891   4.526  15.132  0.00  0.00    +0.000 A 
ATOM     11  C   UNL     1       7.600   5.373  14.238  0.00  0.00    +0.000 A 
ATOM     12  C   UNL     1       7.294   4.913  12.977  0.00  0.00    +0.000 A 
ATOM     13  N   UNL     1       6.428   3.882  13.162  0.00  0.00    +0.000 N 
ATOM     14  C   UNL     1       5.871   3.003  12.164  0.00  0.00    +0.000 C 
ATOM     15  N   UNL     1       6.099   3.682  14.442  0.00  0.00    +0.000 NA
ENDBRANCH   5  10
BRANCH   9  16
ATOM     16  C   UNL     1       3.018   6.741  19.213  0.00  0.00    +0.000 C 
ATOM     17  C   UNL     1       1.984   7.102  20.295  0.00  0.00    +0.000 C 
ATOM     18  C   UNL     1       1.531   8.559  20.279  0.00  0.00    +0.000 C 
ATOM     19  O   UNL     1       1.147   8.970  18.974  0.00  0.00    +0.000 OA
ATOM     20  C   UNL     1       2.240   8.877  18.068  0.00  0.00    +0.000 C 
ATOM     21  C   UNL     1       2.632   7.420  17.877  0.00  0.00    +0.000 C 
ENDBRANCH   9  16
BRANCH   9  22
ATOM     22  O   UNL     1       2.332   4.519  19.722  0.00  0.00    +0.000 OA
ATOM     23  H   UNL     1       1.660   4.210  19.091  0.00  0.00    +0.000 HD
ENDBRANCH   9  22
TORSDOF 3
ENDMDL
MODEL 3
REMARK VINA RESULT:      -7.4      0.909      1.470
REMARK  Name = 
REMARK  5 active torsions:
REMARK  status: ('A' for Active; 'I' for Inactive)
REMARK    1  A    between atoms: C_1  and  C_2
REMARK    2  A    between atoms: C_5  and  C_7
REMARK    3  A    between atoms: N_10  and  C_11
REMARK    4  A    between atoms: C_15  and  O_16
REMARK    5  A    between atoms: C_15  and  C_17
REMARK                            x       y       z     vdW  Elec       q    Type
REMARK                         _______ _______ _______ _____ _____    ______ ____
ROOT
ATOM      1  C   UNL     1       3.308   2.299  17.484  0.00  0.00    +0.000 C 
ATOM      2  C   UNL     1       3.006   3.814  17.604  0.00  0.00    +0.000 C 
ATOM      3  C   UNL     1       4.168   4.536  16.930  0.00  0.00    +0.000 C 
ATOM      4  N   UNL     1       5.403   4.509  17.716  0.00  0.00    +0.000 N 
ATOM      5  C   UNL     1       6.685   4.502  17.141  0.00  0.00    +0.000 C 
ATOM      6  O   UNL     1       7.704   4.477  17.839  0.00  0.00    +0.000 OA
ATOM      7  C   UNL     1       5.308   4.823  19.144  0.00  0.00    +0.000 C 
ATOM      8  C   UNL     1       4.111   4.178  19.833  0.00  0.00    +0.000 C 
ATOM      9  C   UNL     1       2.779   4.304  19.063  0.00  0.00    +0.000 C 
ENDROOT
BRANCH   5  10
ATOM     10  C   UNL     1       6.805   4.451  15.664  0.00  0.00    +0.000 A 
ATOM     11  C   UNL     1       6.045   3.632  14.787  0.00  0.00    +0.000 A 
ATOM     12  C   UNL     1       6.431   3.998  13.517  0.00  0.00    +0.000 A 
ATOM     13  N   UNL     1       7.386   4.951  13.684  0.00  0.00    +0.000 N 
ATOM     14  C   UNL     1       8.055   5.723  12.665  0.00  0.00    +0.000 C 
ATOM     15  N   UNL     1       7.695   5.182  14.963  0.00  0.00    +0.000 NA
ENDBRANCH   5  10
BRANCH   9  16
ATOM     16  C   UNL     1       2.047   5.707  19.179  0.00  0.00    +0.000 C 
ATOM     17  C   UNL     1       2.603   6.888  18.364  0.00  0.00    +0.000 C 
ATOM     18  C   UNL     1       1.984   8.241  18.703  0.00  0.00    +0.000 C 
ATOM     19  O   UNL     1       1.983   8.476  20.104  0.00  0.00    +0.000 OA
ATOM     20  C   UNL     1       1.209   7.496  20.784  0.00  0.00    +0.000 C 
ATOM     21  C   UNL     1       1.870   6.132  20.657  0.00  0.00    +0.000 C 
ENDBRANCH   9  16
BRANCH   9  22
ATOM     22  O   UNL     1       1.839   3.388  19.673  0.00  0.00    +0.000 OA
ATOM     23  H   UNL     1       0.970   3.493  19.250  0.00  0.00    +0.000 HD
ENDBRANCH   9  22
TORSDOF 3
ENDMDL
MODEL 4
REMARK VINA RESULT:      -7.4      2.316      7.005
REMARK  Name = 
REMARK  5 active torsions:
REMARK  status: ('A' for Active; 'I' for Inactive)
REMARK    1  A    between atoms: C_1  and  C_2
REMARK    2  A    between atoms: C_5  and  C_7
REMARK    3  A    between atoms: N_10  and  C_11
REMARK    4  A    between atoms: C_15  and  O_16
REMARK    5  A    between atoms: C_15  and  C_17
REMARK                            x       y       z     vdW  Elec       q    Type
REMARK                         _______ _______ _______ _____ _____    ______ ____
ROOT
ATOM      1  C   UNL     1       6.781   6.286  18.252  0.00  0.00    +0.000 C 
ATOM      2  C   UNL     1       6.240   6.194  16.802  0.00  0.00    +0.000 C 
ATOM      3  C   UNL     1       4.759   6.551  16.876  0.00  0.00    +0.000 C 
ATOM      4  N   UNL     1       3.936   5.495  17.470  0.00  0.00    +0.000 N 
ATOM      5  C   UNL     1       2.770   5.749  18.212  0.00  0.00    +0.000 C 
ATOM      6  O   UNL     1       2.103   4.830  18.699  0.00  0.00    +0.000 OA
ATOM      7  C   UNL     1       4.154   4.121  17.009  0.00  0.00    +0.000 C 
ATOM      8  C   UNL     1       5.626   3.757  16.850  0.00  0.00    +0.000 C 
ATOM      9  C   UNL     1       6.478   4.817  16.121  0.00  0.00    +0.000 C 
ENDROOT
BRANCH   5  10
ATOM     10  C   UNL     1       2.380   7.155  18.469  0.00  0.00    +0.000 A 
ATOM     11  C   UNL     1       2.346   8.207  17.513  0.00  0.00    +0.000 A 
ATOM     12  C   UNL     1       1.831   9.294  18.182  0.00  0.00    +0.000 A 
ATOM     13  N   UNL     1       1.623   8.875  19.459  0.00  0.00    +0.000 N 
ATOM     14  C   UNL     1       1.016   9.607  20.544  0.00  0.00    +0.000 C 
ATOM     15  N   UNL     1       2.024   7.620  19.684  0.00  0.00    +0.000 NA
ENDBRANCH   5  10
BRANCH   9  16
ATOM     16  C   UNL     1       6.347   4.834  14.539  0.00  0.00    +0.000 C 
ATOM     17  C   UNL     1       5.769   3.590  13.843  0.00  0.00    +0.000 C 
ATOM     18  C   UNL     1       5.885   3.602  12.321  0.00  0.00    +0.000 C 
ATOM     19  O   UNL     1       7.205   3.919  11.903  0.00  0.00    +0.000 OA
ATOM     20  C   UNL     1       7.583   5.216  12.347  0.00  0.00    +0.000 C 
ATOM     21  C   UNL     1       7.681   5.237  13.865  0.00  0.00    +0.000 C 
ENDBRANCH   9  16
BRANCH   9  22
ATOM     22  O   UNL     1       7.868   4.476  16.334  0.00  0.00    +0.000 OA
ATOM     23  H   UNL     1       7.943   3.918  17.128  0.00  0.00    +0.000 HD
ENDBRANCH   9  22
TORSDOF 3
ENDMDL
MODEL 5
REMARK VINA RESULT:      -7.1      2.700      4.527
REMARK  Name = 
REMARK  5 active torsions:
REMARK  status: ('A' for Active; 'I' for Inactive)
REMARK    1  A    between atoms: C_1  and  C_2
REMARK    2  A    between atoms: C_5  and  C_7
REMARK    3  A    between atoms: N_10  and  C_11
REMARK    4  A    between atoms: C_15  and  O_16
REMARK    5  A    between atoms: C_15  and  C_17
REMARK                            x       y       z     vdW  Elec       q    Type
REMARK                         _______ _______ _______ _____ _____    ______ ____
ROOT
ATOM      1  C   UNL     1       2.823   6.888  17.424  0.00  0.00    +0.000 C 
ATOM      2  C   UNL     1       3.136   5.739  18.415  0.00  0.00    +0.000 C 
ATOM      3  C   UNL     1       4.655   5.677  18.531  0.00  0.00    +0.000 C 
ATOM      4  N   UNL     1       5.305   5.110  17.348  0.00  0.00    +0.000 N 
ATOM      5  C   UNL     1       6.586   5.491  16.912  0.00  0.00    +0.000 C 
ATOM      6  O   UNL     1       7.100   4.990  15.906  0.00  0.00    +0.000 OA
ATOM      7  C   UNL     1       4.741   3.881  16.783  0.00  0.00    +0.000 C 
ATOM      8  C   UNL     1       3.218   3.880  16.725  0.00  0.00    +0.000 C 
ATOM      9  C   UNL     1       2.523   4.368  18.014  0.00  0.00    +0.000 C 
ENDROOT
BRANCH   5  10
ATOM     10  C   UNL     1       7.297   6.568  17.642  0.00  0.00    +0.000 A 
ATOM     11  C   UNL     1       8.048   6.418  18.839  0.00  0.00    +0.000 A 
ATOM     12  C   UNL     1       8.601   7.655  19.082  0.00  0.00    +0.000 A 
ATOM     13  N   UNL     1       8.148   8.462  18.087  0.00  0.00    +0.000 N 
ATOM     14  C   UNL     1       8.500   9.837  17.832  0.00  0.00    +0.000 C 
ATOM     15  N   UNL     1       7.293   7.859  17.255  0.00  0.00    +0.000 NA
ENDBRANCH   5  10
BRANCH   9  16
ATOM     16  C   UNL     1       2.445   3.311  19.195  0.00  0.00    +0.000 C 
ATOM     17  C   UNL     1       1.367   3.505  20.276  0.00  0.00    +0.000 C 
ATOM     18  C   UNL     1       1.504   2.581  21.483  0.00  0.00    +0.000 C 
ATOM     19  O   UNL     1       2.827   2.595  22.000  0.00  0.00    +0.000 OA
ATOM     20  C   UNL     1       3.758   2.131  21.029  0.00  0.00    +0.000 C 
ATOM     21  C   UNL     1       3.825   3.110  19.867  0.00  0.00    +0.000 C 
ENDBRANCH   9  16
BRANCH   9  22
ATOM     22  O   UNL     1       1.132   4.607  17.691  0.00  0.00    +0.000 OA
ATOM     23  H   UNL     1       0.916   5.537  17.873  0.00  0.00    +0.000 HD
ENDBRANCH   9  22
TORSDOF 3
ENDMDL
MODEL 6
REMARK VINA RESULT:      -7.0      1.340      1.981
REMARK  Name = 
REMARK  5 active torsions:
REMARK  status: ('A' for Active; 'I' for Inactive)
REMARK    1  A    between atoms: C_1  and  C_2
REMARK    2  A    between atoms: C_5  and  C_7
REMARK    3  A    between atoms: N_10  and  C_11
REMARK    4  A    between atoms: C_15  and  O_16
REMARK    5  A    between atoms: C_15  and  C_17
REMARK                            x       y       z     vdW  Elec       q    Type
REMARK                         _______ _______ _______ _____ _____    ______ ____
ROOT
ATOM      1  C   UNL     1       3.526   2.125  17.261  0.00  0.00    +0.000 C 
ATOM      2  C   UNL     1       3.164   3.623  17.429  0.00  0.00    +0.000 C 
ATOM      3  C   UNL     1       4.232   4.407  16.673  0.00  0.00    +0.000 C 
ATOM      4  N   UNL     1       5.527   4.431  17.356  0.00  0.00    +0.000 N 
ATOM      5  C   UNL     1       6.757   4.491  16.678  0.00  0.00    +0.000 C 
ATOM      6  O   UNL     1       7.830   4.507  17.291  0.00  0.00    +0.000 OA
ATOM      7  C   UNL     1       5.536   4.723  18.792  0.00  0.00    +0.000 C 
ATOM      8  C   UNL     1       4.430   4.014  19.566  0.00  0.00    +0.000 C 
ATOM      9  C   UNL     1       3.035   4.084  18.909  0.00  0.00    +0.000 C 
ENDROOT
BRANCH   5  10
ATOM     10  C   UNL     1       6.757   4.463  15.196  0.00  0.00    +0.000 A 
ATOM     11  C   UNL     1       7.479   5.337  14.339  0.00  0.00    +0.000 A 
ATOM     12  C   UNL     1       7.252   4.871  13.064  0.00  0.00    +0.000 A 
ATOM     13  N   UNL     1       6.414   3.810  13.205  0.00  0.00    +0.000 N 
ATOM     14  C   UNL     1       5.938   2.915  12.179  0.00  0.00    +0.000 C 
ATOM     15  N   UNL     1       6.030   3.594  14.467  0.00  0.00    +0.000 NA
ENDBRANCH   5  10
BRANCH   9  16
ATOM     16  C   UNL     1       2.251   5.450  19.106  0.00  0.00    +0.000 C 
ATOM     17  C   UNL     1       2.815   6.716  18.437  0.00  0.00    +0.000 C 
ATOM     18  C   UNL     1       2.131   8.014  18.858  0.00  0.00    +0.000 C 
ATOM     19  O   UNL     1       2.038   8.118  20.272  0.00  0.00    +0.000 OA
ATOM     20  C   UNL     1       1.258   7.058  20.811  0.00  0.00    +0.000 C 
ATOM     21  C   UNL     1       1.972   5.731  20.602  0.00  0.00    +0.000 C 
ENDBRANCH   9  16
BRANCH   9  22
ATOM     22  O   UNL     1       2.193   3.118  19.579  0.00  0.00    +0.000 OA
ATOM     23  H   UNL     1       2.752   2.482  20.057  0.00  0.00    +0.000 HD
ENDBRANCH   9  22
TORSDOF 3
ENDMDL
MODEL 7
REMARK VINA RESULT:      -6.8      2.229      6.830
REMARK  Name = 
REMARK  5 active torsions:
REMARK  status: ('A' for Active; 'I' for Inactive)
REMARK    1  A    between atoms: C_1  and  C_2
REMARK    2  A    between atoms: C_5  and  C_7
REMARK    3  A    between atoms: N_10  and  C_11
REMARK    4  A    between atoms: C_15  and  O_16
REMARK    5  A    between atoms: C_15  and  C_17
REMARK                            x       y       z     vdW  Elec       q    Type
REMARK                         _______ _______ _______ _____ _____    ______ ____
ROOT
ATOM      1  C   UNL     1       6.746   5.947  18.422  0.00  0.00    +0.000 C 
ATOM      2  C   UNL     1       6.218   5.973  16.965  0.00  0.00    +0.000 C 
ATOM      3  C   UNL     1       4.730   6.294  17.057  0.00  0.00    +0.000 C 
ATOM      4  N   UNL     1       3.923   5.175  17.548  0.00  0.00    +0.000 N 
ATOM      5  C   UNL     1       2.747   5.342  18.299  0.00  0.00    +0.000 C 
ATOM      6  O   UNL     1       2.094   4.371  18.697  0.00  0.00    +0.000 OA
ATOM      7  C   UNL     1       4.171   3.852  16.970  0.00  0.00    +0.000 C 
ATOM      8  C   UNL     1       5.650   3.530  16.794  0.00  0.00    +0.000 C 
ATOM      9  C   UNL     1       6.487   4.666  16.168  0.00  0.00    +0.000 C 
ENDROOT
BRANCH   5  10
ATOM     10  C   UNL     1       2.327   6.713  18.675  0.00  0.00    +0.000 A 
ATOM     11  C   UNL     1       2.072   7.182  19.991  0.00  0.00    +0.000 A 
ATOM     12  C   UNL     1       1.814   8.528  19.857  0.00  0.00    +0.000 A 
ATOM     13  N   UNL     1       1.888   8.785  18.524  0.00  0.00    +0.000 N 
ATOM     14  C   UNL     1       1.782  10.061  17.861  0.00  0.00    +0.000 C 
ATOM     15  N   UNL     1       2.109   7.697  17.780  0.00  0.00    +0.000 NA
ENDBRANCH   5  10
BRANCH   9  16
ATOM     16  C   UNL     1       6.367   4.820  14.593  0.00  0.00    +0.000 C 
ATOM     17  C   UNL     1       5.722   3.672  13.796  0.00  0.00    +0.000 C 
ATOM     18  C   UNL     1       5.848   3.801  12.281  0.00  0.00    +0.000 C 
ATOM     19  O   UNL     1       7.188   4.073  11.892  0.00  0.00    +0.000 OA
ATOM     20  C   UNL     1       7.638   5.305  12.441  0.00  0.00    +0.000 C 
ATOM     21  C   UNL     1       7.727   5.196  13.956  0.00  0.00    +0.000 C 
ENDBRANCH   9  16
BRANCH   9  22
ATOM     22  O   UNL     1       7.882   4.333  16.363  0.00  0.00    +0.000 OA
ATOM     23  H   UNL     1       8.416   4.780  15.685  0.00  0.00    +0.000 HD
ENDBRANCH   9  22
TORSDOF 3
ENDMDL
MODEL 8
REMARK VINA RESULT:      -6.2      2.987      4.269
REMARK  Name = 
REMARK  5 active torsions:
REMARK  status: ('A' for Active; 'I' for Inactive)
REMARK    1  A    between atoms: C_1  and  C_2
REMARK    2  A    between atoms: C_5  and  C_7
REMARK    3  A    between atoms: N_10  and  C_11
REMARK    4  A    between atoms: C_15  and  O_16
REMARK    5  A    between atoms: C_15  and  C_17
REMARK                            x       y       z     vdW  Elec       q    Type
REMARK                         _______ _______ _______ _____ _____    ______ ____
ROOT
ATOM      1  C   UNL     1       5.254   5.129  15.615  0.00  0.00    +0.000 C 
ATOM      2  C   UNL     1       4.396   5.463  16.861  0.00  0.00    +0.000 C 
ATOM      3  C   UNL     1       5.300   6.249  17.804  0.00  0.00    +0.000 C 
ATOM      4  N   UNL     1       6.310   5.420  18.466  0.00  0.00    +0.000 N 
ATOM      5  C   UNL     1       7.579   5.896  18.837  0.00  0.00    +0.000 C 
ATOM      6  O   UNL     1       8.405   5.164  19.393  0.00  0.00    +0.000 OA
ATOM      7  C   UNL     1       5.872   4.149  19.049  0.00  0.00    +0.000 C 
ATOM      8  C   UNL     1       4.904   3.373  18.162  0.00  0.00    +0.000 C 
ATOM      9  C   UNL     1       3.767   4.220  17.553  0.00  0.00    +0.000 C 
ENDROOT
BRANCH   5  10
ATOM     10  C   UNL     1       7.950   7.288  18.486  0.00  0.00    +0.000 A 
ATOM     11  C   UNL     1       7.555   7.994  17.318  0.00  0.00    +0.000 A 
ATOM     12  C   UNL     1       8.051   9.268  17.474  0.00  0.00    +0.000 A 
ATOM     13  N   UNL     1       8.720   9.260  18.657  0.00  0.00    +0.000 N 
ATOM     14  C   UNL     1       9.352  10.370  19.326  0.00  0.00    +0.000 C 
ATOM     15  N   UNL     1       8.751   8.060  19.247  0.00  0.00    +0.000 NA
ENDBRANCH   5  10
BRANCH   9  16
ATOM     16  C   UNL     1       2.558   4.551  18.526  0.00  0.00    +0.000 C 
ATOM     17  C   UNL     1       2.791   5.570  19.656  0.00  0.00    +0.000 C 
ATOM     18  C   UNL     1       1.656   5.661  20.673  0.00  0.00    +0.000 C 
ATOM     19  O   UNL     1       1.276   4.375  21.144  0.00  0.00    +0.000 OA
ATOM     20  C   UNL     1       0.799   3.563  20.078  0.00  0.00    +0.000 C 
ATOM     21  C   UNL     1       1.932   3.261  19.109  0.00  0.00    +0.000 C 
ENDBRANCH   9  16
BRANCH   9  22
ATOM     22  O   UNL     1       3.148   3.428  16.512  0.00  0.00    +0.000 OA
ATOM     23  H   UNL     1       3.602   3.595  15.669  0.00  0.00    +0.000 HD
ENDBRANCH   9  22
TORSDOF 3
ENDMDL
MODEL 9
REMARK VINA RESULT:      -5.8      3.035      5.568
REMARK  Name = 
REMARK  5 active torsions:
REMARK  status: ('A' for Active; 'I' for Inactive)
REMARK    1  A    between atoms: C_1  and  C_2
REMARK    2  A    between atoms: C_5  and  C_7
REMARK    3  A    between atoms: N_10  and  C_11
REMARK    4  A    between atoms: C_15  and  O_16
REMARK    5  A    between atoms: C_15  and  C_17
REMARK                            x       y       z     vdW  Elec       q    Type
REMARK                         _______ _______ _______ _____ _____    ______ ____
ROOT
ATOM      1  C   UNL     1       0.136   8.994  17.274  0.00  0.00    +0.000 C 
ATOM      2  C   UNL     1       1.297   9.779  17.935  0.00  0.00    +0.000 C 
ATOM      3  C   UNL     1       2.229   8.734  18.539  0.00  0.00    +0.000 C 
ATOM      4  N   UNL     1       1.691   8.107  19.748  0.00  0.00    +0.000 N 
ATOM      5  C   UNL     1       1.972   6.781  20.121  0.00  0.00    +0.000 C 
ATOM      6  O   UNL     1       1.497   6.286  21.149  0.00  0.00    +0.000 OA
ATOM      7  C   UNL     1       1.103   8.981  20.766  0.00  0.00    +0.000 C 
ATOM      8  C   UNL     1       0.226  10.086  20.188  0.00  0.00    +0.000 C 
ATOM      9  C   UNL     1       0.838  10.832  18.983  0.00  0.00    +0.000 C 
ENDROOT
BRANCH   5  10
ATOM     10  C   UNL     1       2.800   5.945  19.218  0.00  0.00    +0.000 A 
ATOM     11  C   UNL     1       2.351   5.269  18.052  0.00  0.00    +0.000 A 
ATOM     12  C   UNL     1       3.480   4.714  17.493  0.00  0.00    +0.000 A 
ATOM     13  N   UNL     1       4.502   5.038  18.329  0.00  0.00    +0.000 N 
ATOM     14  C   UNL     1       5.908   4.770  18.155  0.00  0.00    +0.000 C 
ATOM     15  N   UNL     1       4.111   5.703  19.420  0.00  0.00    +0.000 NA
ENDBRANCH   5  10
BRANCH   9  16
ATOM     16  C   UNL     1       1.930  11.928  19.335  0.00  0.00    +0.000 C 
ATOM     17  C   UNL     1       1.692  12.822  20.565  0.00  0.00    +0.000 C 
ATOM     18  C   UNL     1       2.669  13.987  20.702  0.00  0.00    +0.000 C 
ATOM     19  O   UNL     1       2.779  14.718  19.488  0.00  0.00    +0.000 OA
ATOM     20  C   UNL     1       3.277  13.894  18.440  0.00  0.00    +0.000 C 
ATOM     21  C   UNL     1       2.263  12.810  18.107  0.00  0.00    +0.000 C 
ENDBRANCH   9  16
BRANCH   9  22
ATOM     22  O   UNL     1      -0.221  11.603  18.369  0.00  0.00    +0.000 OA
ATOM     23  H   UNL     1      -0.362  11.287  17.460  0.00  0.00    +0.000 HD
ENDBRANCH   9  22
TORSDOF 3
ENDMDL
