MODEL 1
REMARK VINA RESULT:      -7.4      0.000      0.000
REMARK  Name = 
REMARK  2 active torsions:
REMARK  status: ('A' for Active; 'I' for Inactive)
REMARK    1  A    between atoms: C_2  and  C_3
REMARK    2  A    between atoms: C_2  and  C_9
REMARK                            x       y       z     vdW  Elec       q    Type
REMARK                         _______ _______ _______ _____ _____    ______ ____
ROOT
ATOM      1  C   UNL     1       5.289   5.394  16.627  0.00  0.00    +0.000 A 
ATOM      2  C   UNL     1       4.898   6.712  16.483  0.00  0.00    +0.000 A 
ATOM      3  S   UNL     1       3.779   7.123  17.707  0.00  0.00    +0.000 S 
ATOM      4  C   UNL     1       3.285   5.480  17.827  0.00  0.00    +0.000 A 
ATOM      5  C   UNL     1       2.119   5.000  18.445  0.00  0.00    +0.000 A 
ATOM      6  C   UNL     1       1.764   3.672  18.225  0.00  0.00    +0.000 A 
ATOM      7  C   UNL     1       2.608   2.817  17.526  0.00  0.00    +0.000 A 
ATOM      8  C   UNL     1       3.845   3.266  17.050  0.00  0.00    +0.000 A 
ATOM      9  C   UNL     1       4.180   4.638  17.157  0.00  0.00    +0.000 A 
ENDROOT
BRANCH   1  11
ATOM     10  O   UNL     1       7.467   4.560  16.765  0.00  0.00    +0.000 OA
ATOM     11  C   UNL     1       6.531   4.903  16.050  0.00  0.00    +0.000 C 
BRANCH  11  12
ATOM     12  C   UNL     1       6.623   4.651  14.566  0.00  0.00    +0.000 A 
ATOM     13  C   UNL     1       5.849   3.686  13.903  0.00  0.00    +0.000 A 
ATOM     14  C   UNL     1       6.052   3.428  12.542  0.00  0.00    +0.000 A 
ATOM     15  C   UNL     1       7.034   4.116  11.825  0.00  0.00    +0.000 A 
ATOM     16  C   UNL     1       7.805   5.081  12.464  0.00  0.00    +0.000 A 
ATOM     17  C   UNL     1       7.608   5.346  13.821  0.00  0.00    +0.000 A 
ENDBRANCH  11  12
ENDBRANCH   1  11
TORSDOF 2
ENDMDL
MODEL 2
REMARK VINA RESULT:      -7.4      2.196      6.008
REMARK  Name = 
REMARK  2 active torsions:
REMARK  status: ('A' for Active; 'I' for Inactive)
REMARK    1  A    between atoms: C_2  and  C_3
REMARK    2  A    between atoms: C_2  and  C_9
REMARK                            x       y       z     vdW  Elec       q    Type
REMARK                         _______ _______ _______ _____ _____    ______ ____
ROOT
ATOM      1  C   UNL     1       4.748   5.675  18.150  0.00  0.00    +0.000 A 
ATOM      2  C   UNL     1       5.649   5.380  19.157  0.00  0.00    +0.000 A 
ATOM      3  S   UNL     1       7.247   5.567  18.580  0.00  0.00    +0.000 S 
ATOM      4  C   UNL     1       6.721   5.236  16.976  0.00  0.00    +0.000 A 
ATOM      5  C   UNL     1       7.534   4.893  15.885  0.00  0.00    +0.000 A 
ATOM      6  C   UNL     1       6.912   4.419  14.732  0.00  0.00    +0.000 A 
ATOM      7  C   UNL     1       5.526   4.415  14.623  0.00  0.00    +0.000 A 
ATOM      8  C   UNL     1       4.727   4.910  15.659  0.00  0.00    +0.000 A 
ATOM      9  C   UNL     1       5.325   5.288  16.886  0.00  0.00    +0.000 A 
ENDROOT
BRANCH   1  11
ATOM     10  O   UNL     1       2.949   7.165  18.175  0.00  0.00    +0.000 OA
ATOM     11  C   UNL     1       3.374   6.046  18.447  0.00  0.00    +0.000 C 
BRANCH  11  12
ATOM     12  C   UNL     1       2.402   5.003  18.941  0.00  0.00    +0.000 A 
ATOM     13  C   UNL     1       1.982   4.919  20.277  0.00  0.00    +0.000 A 
ATOM     14  C   UNL     1       1.159   3.867  20.696  0.00  0.00    +0.000 A 
ATOM     15  C   UNL     1       0.753   2.879  19.797  0.00  0.00    +0.000 A 
ATOM     16  C   UNL     1       1.155   2.950  18.467  0.00  0.00    +0.000 A 
ATOM     17  C   UNL     1       1.974   3.997  18.040  0.00  0.00    +0.000 A 
ENDBRANCH  11  12
ENDBRANCH   1  11
TORSDOF 2
ENDMDL
MODEL 3
REMARK VINA RESULT:      -7.4      0.129      1.178
REMARK  Name = 
REMARK  2 active torsions:
REMARK  status: ('A' for Active; 'I' for Inactive)
REMARK    1  A    between atoms: C_2  and  C_3
REMARK    2  A    between atoms: C_2  and  C_9
REMARK                            x       y       z     vdW  Elec       q    Type
REMARK                         _______ _______ _______ _____ _____    ______ ____
ROOT
ATOM      1  C   UNL     1       5.380   5.376  16.631  0.00  0.00    +0.000 A 
ATOM      2  C   UNL     1       4.994   6.685  16.412  0.00  0.00    +0.000 A 
ATOM      3  S   UNL     1       3.820   7.146  17.565  0.00  0.00    +0.000 S 
ATOM      4  C   UNL     1       3.325   5.507  17.735  0.00  0.00    +0.000 A 
ATOM      5  C   UNL     1       2.134   5.051  18.321  0.00  0.00    +0.000 A 
ATOM      6  C   UNL     1       1.791   3.712  18.145  0.00  0.00    +0.000 A 
ATOM      7  C   UNL     1       2.667   2.831  17.523  0.00  0.00    +0.000 A 
ATOM      8  C   UNL     1       3.923   3.264  17.083  0.00  0.00    +0.000 A 
ATOM      9  C   UNL     1       4.251   4.640  17.144  0.00  0.00    +0.000 A 
ENDROOT
BRANCH   1  11
ATOM     10  O   UNL     1       7.532   4.508  16.903  0.00  0.00    +0.000 OA
ATOM     11  C   UNL     1       6.648   4.865  16.132  0.00  0.00    +0.000 C 
BRANCH  11  12
ATOM     12  C   UNL     1       6.828   4.612  14.656  0.00  0.00    +0.000 A 
ATOM     13  C   UNL     1       7.717   5.346  13.856  0.00  0.00    +0.000 A 
ATOM     14  C   UNL     1       7.766   5.133  12.473  0.00  0.00    +0.000 A 
ATOM     15  C   UNL     1       6.924   4.199  11.866  0.00  0.00    +0.000 A 
ATOM     16  C   UNL     1       6.042   3.458  12.644  0.00  0.00    +0.000 A 
ATOM     17  C   UNL     1       5.988   3.662  14.025  0.00  0.00    +0.000 A 
ENDBRANCH  11  12
ENDBRANCH   1  11
TORSDOF 2
ENDMDL
MODEL 4
REMARK VINA RESULT:      -7.3      2.147      5.979
REMARK  Name = 
REMARK  2 active torsions:
REMARK  status: ('A' for Active; 'I' for Inactive)
REMARK    1  A    between atoms: C_2  and  C_3
REMARK    2  A    between atoms: C_2  and  C_9
REMARK                            x       y       z     vdW  Elec       q    Type
REMARK                         _______ _______ _______ _____ _____    ______ ____
ROOT
ATOM      1  C   UNL     1       4.846   5.675  18.079  0.00  0.00    +0.000 A 
ATOM      2  C   UNL     1       5.818   5.468  19.041  0.00  0.00    +0.000 A 
ATOM      3  S   UNL     1       7.366   5.738  18.371  0.00  0.00    +0.000 S 
ATOM      4  C   UNL     1       6.776   5.327  16.808  0.00  0.00    +0.000 A 
ATOM      5  C   UNL     1       7.549   5.003  15.682  0.00  0.00    +0.000 A 
ATOM      6  C   UNL     1       6.898   4.457  14.579  0.00  0.00    +0.000 A 
ATOM      7  C   UNL     1       5.511   4.361  14.548  0.00  0.00    +0.000 A 
ATOM      8  C   UNL     1       4.739   4.836  15.615  0.00  0.00    +0.000 A 
ATOM      9  C   UNL     1       5.377   5.288  16.795  0.00  0.00    +0.000 A 
ENDROOT
BRANCH   1  11
ATOM     10  O   UNL     1       2.985   7.077  18.246  0.00  0.00    +0.000 OA
ATOM     11  C   UNL     1       3.468   5.967  18.443  0.00  0.00    +0.000 C 
BRANCH  11  12
ATOM     12  C   UNL     1       2.563   4.857  18.915  0.00  0.00    +0.000 A 
ATOM     13  C   UNL     1       2.014   3.896  18.051  0.00  0.00    +0.000 A 
ATOM     14  C   UNL     1       1.100   2.951  18.532  0.00  0.00    +0.000 A 
ATOM     15  C   UNL     1       0.709   2.956  19.873  0.00  0.00    +0.000 A 
ATOM     16  C   UNL     1       1.248   3.897  20.744  0.00  0.00    +0.000 A 
ATOM     17  C   UNL     1       2.162   4.841  20.274  0.00  0.00    +0.000 A 
ENDBRANCH  11  12
ENDBRANCH   1  11
TORSDOF 2
ENDMDL
MODEL 5
REMARK VINA RESULT:      -7.3      2.028      2.971
REMARK  Name = 
REMARK  2 active torsions:
REMARK  status: ('A' for Active; 'I' for Inactive)
REMARK    1  A    between atoms: C_2  and  C_3
REMARK    2  A    between atoms: C_2  and  C_9
REMARK                            x       y       z     vdW  Elec       q    Type
REMARK                         _______ _______ _______ _____ _____    ______ ____
ROOT
ATOM      1  C   UNL     1       3.972   5.136  19.297  0.00  0.00    +0.000 A 
ATOM      2  C   UNL     1       3.217   6.219  19.707  0.00  0.00    +0.000 A 
ATOM      3  S   UNL     1       1.876   5.681  20.619  0.00  0.00    +0.000 S 
ATOM      4  C   UNL     1       1.901   4.173  19.791  0.00  0.00    +0.000 A 
ATOM      5  C   UNL     1       0.870   3.222  19.756  0.00  0.00    +0.000 A 
ATOM      6  C   UNL     1       0.972   2.182  18.835  0.00  0.00    +0.000 A 
ATOM      7  C   UNL     1       2.122   2.021  18.070  0.00  0.00    +0.000 A 
ATOM      8  C   UNL     1       3.211   2.885  18.228  0.00  0.00    +0.000 A 
ATOM      9  C   UNL     1       3.091   4.017  19.070  0.00  0.00    +0.000 A 
ENDROOT
BRANCH   1  11
ATOM     10  O   UNL     1       6.257   5.273  19.763  0.00  0.00    +0.000 OA
ATOM     11  C   UNL     1       5.369   5.285  18.918  0.00  0.00    +0.000 C 
BRANCH  11  12
ATOM     12  C   UNL     1       5.756   5.289  17.460  0.00  0.00    +0.000 A 
ATOM     13  C   UNL     1       4.998   5.928  16.467  0.00  0.00    +0.000 A 
ATOM     14  C   UNL     1       5.354   5.810  15.118  0.00  0.00    +0.000 A 
ATOM     15  C   UNL     1       6.460   5.046  14.737  0.00  0.00    +0.000 A 
ATOM     16  C   UNL     1       7.226   4.412  15.708  0.00  0.00    +0.000 A 
ATOM     17  C   UNL     1       6.880   4.526  17.056  0.00  0.00    +0.000 A 
ENDBRANCH  11  12
ENDBRANCH   1  11
TORSDOF 2
ENDMDL
MODEL 6
REMARK VINA RESULT:      -7.3      2.960      4.171
REMARK  Name = 
REMARK  2 active torsions:
REMARK  status: ('A' for Active; 'I' for Inactive)
REMARK    1  A    between atoms: C_2  and  C_3
REMARK    2  A    between atoms: C_2  and  C_9
REMARK                            x       y       z     vdW  Elec       q    Type
REMARK                         _______ _______ _______ _____ _____    ______ ____
ROOT
ATOM      1  C   UNL     1       4.019   3.925  17.610  0.00  0.00    +0.000 A 
ATOM      2  C   UNL     1       3.962   2.556  17.798  0.00  0.00    +0.000 A 
ATOM      3  S   UNL     1       2.399   2.105  18.319  0.00  0.00    +0.000 S 
ATOM      4  C   UNL     1       2.164   3.665  19.007  0.00  0.00    +0.000 A 
ATOM      5  C   UNL     1       1.178   4.027  19.938  0.00  0.00    +0.000 A 
ATOM      6  C   UNL     1       1.298   5.263  20.568  0.00  0.00    +0.000 A 
ATOM      7  C   UNL     1       2.289   6.161  20.187  0.00  0.00    +0.000 A 
ATOM      8  C   UNL     1       3.171   5.852  19.144  0.00  0.00    +0.000 A 
ATOM      9  C   UNL     1       3.146   4.560  18.566  0.00  0.00    +0.000 A 
ENDROOT
BRANCH   1  11
ATOM     10  O   UNL     1       4.920   4.515  15.537  0.00  0.00    +0.000 OA
ATOM     11  C   UNL     1       5.030   4.533  16.758  0.00  0.00    +0.000 C 
BRANCH  11  12
ATOM     12  C   UNL     1       6.145   5.340  17.374  0.00  0.00    +0.000 A 
ATOM     13  C   UNL     1       6.857   4.924  18.510  0.00  0.00    +0.000 A 
ATOM     14  C   UNL     1       7.812   5.763  19.095  0.00  0.00    +0.000 A 
ATOM     15  C   UNL     1       8.064   7.032  18.567  0.00  0.00    +0.000 A 
ATOM     16  C   UNL     1       7.373   7.458  17.438  0.00  0.00    +0.000 A 
ATOM     17  C   UNL     1       6.420   6.626  16.847  0.00  0.00    +0.000 A 
ENDBRANCH  11  12
ENDBRANCH   1  11
TORSDOF 2
ENDMDL
MODEL 7
REMARK VINA RESULT:      -7.3      2.984      4.216
REMARK  Name = 
REMARK  2 active torsions:
REMARK  status: ('A' for Active; 'I' for Inactive)
REMARK    1  A    between atoms: C_2  and  C_3
REMARK    2  A    between atoms: C_2  and  C_9
REMARK                            x       y       z     vdW  Elec       q    Type
REMARK                         _______ _______ _______ _____ _____    ______ ____
ROOT
ATOM      1  C   UNL     1       3.979   3.922  17.577  0.00  0.00    +0.000 A 
ATOM      2  C   UNL     1       3.920   2.550  17.731  0.00  0.00    +0.000 A 
ATOM      3  S   UNL     1       2.354   2.087  18.234  0.00  0.00    +0.000 S 
ATOM      4  C   UNL     1       2.118   3.630  18.959  0.00  0.00    +0.000 A 
ATOM      5  C   UNL     1       1.128   3.970  19.894  0.00  0.00    +0.000 A 
ATOM      6  C   UNL     1       1.246   5.190  20.555  0.00  0.00    +0.000 A 
ATOM      7  C   UNL     1       2.239   6.096  20.200  0.00  0.00    +0.000 A 
ATOM      8  C   UNL     1       3.125   5.812  19.155  0.00  0.00    +0.000 A 
ATOM      9  C   UNL     1       3.102   4.534  18.545  0.00  0.00    +0.000 A 
ENDROOT
BRANCH   1  11
ATOM     10  O   UNL     1       4.970   4.435  15.524  0.00  0.00    +0.000 OA
ATOM     11  C   UNL     1       4.994   4.550  16.745  0.00  0.00    +0.000 C 
BRANCH  11  12
ATOM     12  C   UNL     1       5.997   5.492  17.364  0.00  0.00    +0.000 A 
ATOM     13  C   UNL     1       6.211   6.798  16.897  0.00  0.00    +0.000 A 
ATOM     14  C   UNL     1       7.227   7.589  17.447  0.00  0.00    +0.000 A 
ATOM     15  C   UNL     1       8.051   7.089  18.458  0.00  0.00    +0.000 A 
ATOM     16  C   UNL     1       7.848   5.800  18.937  0.00  0.00    +0.000 A 
ATOM     17  C   UNL     1       6.836   5.004  18.396  0.00  0.00    +0.000 A 
ENDBRANCH  11  12
ENDBRANCH   1  11
TORSDOF 2
ENDMDL
MODEL 8
REMARK VINA RESULT:      -7.2      3.488      4.505
REMARK  Name = 
REMARK  2 active torsions:
REMARK  status: ('A' for Active; 'I' for Inactive)
REMARK    1  A    between atoms: C_2  and  C_3
REMARK    2  A    between atoms: C_2  and  C_9
REMARK                            x       y       z     vdW  Elec       q    Type
REMARK                         _______ _______ _______ _____ _____    ______ ____
ROOT
ATOM      1  C   UNL     1       3.583   4.542  17.996  0.00  0.00    +0.000 A 
ATOM      2  C   UNL     1       3.904   3.398  17.289  0.00  0.00    +0.000 A 
ATOM      3  S   UNL     1       2.670   2.231  17.480  0.00  0.00    +0.000 S 
ATOM      4  C   UNL     1       2.242   2.912  19.001  0.00  0.00    +0.000 A 
ATOM      5  C   UNL     1       1.456   2.310  19.995  0.00  0.00    +0.000 A 
ATOM      6  C   UNL     1       1.426   2.905  21.253  0.00  0.00    +0.000 A 
ATOM      7  C   UNL     1       2.048   4.129  21.475  0.00  0.00    +0.000 A 
ATOM      8  C   UNL     1       2.697   4.799  20.432  0.00  0.00    +0.000 A 
ATOM      9  C   UNL     1       2.843   4.165  19.175  0.00  0.00    +0.000 A 
ENDROOT
BRANCH   1  11
ATOM     10  O   UNL     1       3.493   6.755  17.252  0.00  0.00    +0.000 OA
ATOM     11  C   UNL     1       4.179   5.828  17.669  0.00  0.00    +0.000 C 
BRANCH  11  12
ATOM     12  C   UNL     1       5.628   6.091  17.998  0.00  0.00    +0.000 A 
ATOM     13  C   UNL     1       6.308   5.438  19.038  0.00  0.00    +0.000 A 
ATOM     14  C   UNL     1       7.621   5.798  19.361  0.00  0.00    +0.000 A 
ATOM     15  C   UNL     1       8.272   6.819  18.664  0.00  0.00    +0.000 A 
ATOM     16  C   UNL     1       7.616   7.471  17.626  0.00  0.00    +0.000 A 
ATOM     17  C   UNL     1       6.306   7.117  17.296  0.00  0.00    +0.000 A 
ENDBRANCH  11  12
ENDBRANCH   1  11
TORSDOF 2
ENDMDL
MODEL 9
REMARK VINA RESULT:      -7.1      2.026      3.009
REMARK  Name = 
REMARK  2 active torsions:
REMARK  status: ('A' for Active; 'I' for Inactive)
REMARK    1  A    between atoms: C_2  and  C_3
REMARK    2  A    between atoms: C_2  and  C_9
REMARK                            x       y       z     vdW  Elec       q    Type
REMARK                         _______ _______ _______ _____ _____    ______ ____
ROOT
ATOM      1  C   UNL     1       3.984   5.106  19.286  0.00  0.00    +0.000 A 
ATOM      2  C   UNL     1       3.251   6.220  19.651  0.00  0.00    +0.000 A 
ATOM      3  S   UNL     1       1.891   5.745  20.571  0.00  0.00    +0.000 S 
ATOM      4  C   UNL     1       1.887   4.208  19.796  0.00  0.00    +0.000 A 
ATOM      5  C   UNL     1       0.834   3.281  19.787  0.00  0.00    +0.000 A 
ATOM      6  C   UNL     1       0.919   2.207  18.904  0.00  0.00    +0.000 A 
ATOM      7  C   UNL     1       2.070   1.992  18.155  0.00  0.00    +0.000 A 
ATOM      8  C   UNL     1       3.178   2.836  18.291  0.00  0.00    +0.000 A 
ATOM      9  C   UNL     1       3.079   4.000  19.092  0.00  0.00    +0.000 A 
ENDROOT
BRANCH   1  11
ATOM     10  O   UNL     1       6.265   5.257  19.768  0.00  0.00    +0.000 OA
ATOM     11  C   UNL     1       5.386   5.209  18.913  0.00  0.00    +0.000 C 
BRANCH  11  12
ATOM     12  C   UNL     1       5.790   5.090  17.465  0.00  0.00    +0.000 A 
ATOM     13  C   UNL     1       7.006   4.521  17.053  0.00  0.00    +0.000 A 
ATOM     14  C   UNL     1       7.370   4.531  15.702  0.00  0.00    +0.000 A 
ATOM     15  C   UNL     1       6.539   5.116  14.744  0.00  0.00    +0.000 A 
ATOM     16  C   UNL     1       5.328   5.678  15.133  0.00  0.00    +0.000 A 
ATOM     17  C   UNL     1       4.955   5.670  16.479  0.00  0.00    +0.000 A 
ENDBRANCH  11  12
ENDBRANCH   1  11
TORSDOF 2
ENDMDL
