MODEL 1
REMARK VINA RESULT:      -6.7      0.000      0.000
REMARK  Name = 
REMARK  13 active torsions:
REMARK  status: ('A' for Active; 'I' for Inactive)
REMARK    1  A    between atoms: C_1  and  O_2
REMARK    2  A    between atoms: O_2  and  C_3
REMARK    3  A    between atoms: C_5  and  C_6
REMARK    4  A    between atoms: N_8  and  C_9
REMARK    5  A    between atoms: C_9  and  C_10
REMARK    6  A    between atoms: C_10  and  C_11
REMARK    7  A    between atoms: N_13  and  C_14
REMARK    8  A    between atoms: C_14  and  C_15
REMARK    9  A    between atoms: C_14  and  C_16
REMARK   10  A    between atoms: C_18  and  O_19
REMARK   11  A    between atoms: O_19  and  C_20
REMARK   12  A    between atoms: C_21  and  O_22
REMARK   13  A    between atoms: O_22  and  C_23
REMARK                            x       y       z     vdW  Elec       q    Type
REMARK                         _______ _______ _______ _____ _____    ______ ____
ROOT
ATOM      1  C   UNL     1       1.994   8.554  18.303  0.00  0.00    +0.000 C 
ATOM      2  O   UNL     1       2.133   9.111  17.220  0.00  0.00    +0.000 OA
ATOM      3  N   UNL     1       1.282   9.086  19.351  0.00  0.00    +0.000 N 
ATOM      4  H   UNL     1       1.193   8.576  20.223  0.00  0.00    +0.000 HD
ENDROOT
BRANCH   1   7
ATOM      5  C   UNL     1       2.831   5.265  19.953  0.00  0.00    +0.000 A 
ATOM      6  C   UNL     1       2.343   6.561  19.729  0.00  0.00    +0.000 A 
ATOM      7  C   UNL     1       2.689   7.265  18.575  0.00  0.00    +0.000 A 
ATOM      8  C   UNL     1       3.622   6.718  17.700  0.00  0.00    +0.000 A 
ATOM      9  C   UNL     1       4.200   5.464  17.956  0.00  0.00    +0.000 A 
ATOM     10  C   UNL     1       3.807   4.714  19.092  0.00  0.00    +0.000 A 
BRANCH   5  12
ATOM     11  C   UNL     1       1.207   3.752  20.788  0.00  0.00    +0.000 C 
ATOM     12  O   UNL     1       2.377   4.541  21.027  0.00  0.00    +0.000 OA
ENDBRANCH   5  12
BRANCH   9  13
ATOM     13  O   UNL     1       5.105   5.131  16.979  0.00  0.00    +0.000 OA
ATOM     14  C   UNL     1       5.328   6.014  15.890  0.00  0.00    +0.000 C 
ENDBRANCH   9  13
BRANCH  10  15
ATOM     15  O   UNL     1       4.439   3.512  19.259  0.00  0.00    +0.000 OA
ATOM     16  C   UNL     1       3.884   2.306  18.764  0.00  0.00    +0.000 C 
ENDBRANCH  10  15
ENDBRANCH   1   7
BRANCH   3  17
ATOM     17  C   UNL     1       0.616  10.371  19.281  0.00  0.00    +0.000 C 
BRANCH  17  18
ATOM     18  C   UNL     1      -0.904  10.269  19.222  0.00  0.00    +0.000 C 
BRANCH  18  19
ATOM     19  C   UNL     1      -1.481  11.089  18.084  0.00  0.00    +0.000 C 
ATOM     20  O   UNL     1      -1.321  12.298  17.978  0.00  0.00    +0.000 OA
ATOM     21  N   UNL     1      -2.195  10.342  17.165  0.00  0.00    +0.000 N 
ATOM     22  H   UNL     1      -2.413   9.380  17.390  0.00  0.00    +0.000 HD
BRANCH  21  23
ATOM     23  C   UNL     1      -2.910  10.980  16.067  0.00  0.00    +0.000 C 
ATOM     24  C   UNL     1      -2.911  10.085  14.832  0.00  0.00    +0.000 C 
ATOM     25  C   UNL     1      -4.340  11.328  16.479  0.00  0.00    +0.000 C 
ENDBRANCH  21  23
ENDBRANCH  18  19
ENDBRANCH  17  18
ENDBRANCH   3  17
TORSDOF 8
ENDMDL
MODEL 2
REMARK VINA RESULT:      -6.5      4.391      7.596
REMARK  Name = 
REMARK  13 active torsions:
REMARK  status: ('A' for Active; 'I' for Inactive)
REMARK    1  A    between atoms: C_1  and  O_2
REMARK    2  A    between atoms: O_2  and  C_3
REMARK    3  A    between atoms: C_5  and  C_6
REMARK    4  A    between atoms: N_8  and  C_9
REMARK    5  A    between atoms: C_9  and  C_10
REMARK    6  A    between atoms: C_10  and  C_11
REMARK    7  A    between atoms: N_13  and  C_14
REMARK    8  A    between atoms: C_14  and  C_15
REMARK    9  A    between atoms: C_14  and  C_16
REMARK   10  A    between atoms: C_18  and  O_19
REMARK   11  A    between atoms: O_19  and  C_20
REMARK   12  A    between atoms: C_21  and  O_22
REMARK   13  A    between atoms: O_22  and  C_23
REMARK                            x       y       z     vdW  Elec       q    Type
REMARK                         _______ _______ _______ _____ _____    ______ ____
ROOT
ATOM      1  C   UNL     1       5.406   6.420  16.882  0.00  0.00    +0.000 C 
ATOM      2  O   UNL     1       5.611   6.231  15.689  0.00  0.00    +0.000 OA
ATOM      3  N   UNL     1       6.253   7.129  17.701  0.00  0.00    +0.000 N 
ATOM      4  H   UNL     1       6.028   7.261  18.680  0.00  0.00    +0.000 HD
ENDROOT
BRANCH   1   7
ATOM      5  C   UNL     1       2.897   3.787  17.888  0.00  0.00    +0.000 A 
ATOM      6  C   UNL     1       3.882   4.494  17.181  0.00  0.00    +0.000 A 
ATOM      7  C   UNL     1       4.230   5.793  17.547  0.00  0.00    +0.000 A 
ATOM      8  C   UNL     1       3.508   6.434  18.549  0.00  0.00    +0.000 A 
ATOM      9  C   UNL     1       2.451   5.781  19.203  0.00  0.00    +0.000 A 
ATOM     10  C   UNL     1       2.131   4.438  18.882  0.00  0.00    +0.000 A 
BRANCH   5  12
ATOM     11  C   UNL     1       3.450   1.524  18.326  0.00  0.00    +0.000 C 
ATOM     12  O   UNL     1       2.661   2.467  17.596  0.00  0.00    +0.000 OA
ENDBRANCH   5  12
BRANCH   9  13
ATOM     13  O   UNL     1       1.867   6.602  20.136  0.00  0.00    +0.000 OA
ATOM     14  C   UNL     1       1.843   8.006  19.927  0.00  0.00    +0.000 C 
ENDBRANCH   9  13
BRANCH  10  15
ATOM     15  O   UNL     1       1.078   3.897  19.566  0.00  0.00    +0.000 OA
ATOM     16  C   UNL     1       1.255   3.248  20.813  0.00  0.00    +0.000 C 
ENDBRANCH  10  15
ENDBRANCH   1   7
BRANCH   3  17
ATOM     17  C   UNL     1       7.485   7.731  17.231  0.00  0.00    +0.000 C 
BRANCH  17  18
ATOM     18  C   UNL     1       8.452   8.094  18.353  0.00  0.00    +0.000 C 
BRANCH  18  19
ATOM     19  C   UNL     1       8.623   9.595  18.486  0.00  0.00    +0.000 C 
ATOM     20  O   UNL     1       8.101  10.402  17.728  0.00  0.00    +0.000 OA
ATOM     21  N   UNL     1       9.413   9.972  19.556  0.00  0.00    +0.000 N 
ATOM     22  H   UNL     1       9.932   9.257  20.049  0.00  0.00    +0.000 HD
BRANCH  21  23
ATOM     23  C   UNL     1       9.775  11.368  19.772  0.00  0.00    +0.000 C 
ATOM     24  C   UNL     1       9.348  11.826  21.163  0.00  0.00    +0.000 C 
ATOM     25  C   UNL     1      11.275  11.577  19.575  0.00  0.00    +0.000 C 
ENDBRANCH  21  23
ENDBRANCH  18  19
ENDBRANCH  17  18
ENDBRANCH   3  17
TORSDOF 8
ENDMDL
MODEL 3
REMARK VINA RESULT:      -6.5      2.069      4.009
REMARK  Name = 
REMARK  13 active torsions:
REMARK  status: ('A' for Active; 'I' for Inactive)
REMARK    1  A    between atoms: C_1  and  O_2
REMARK    2  A    between atoms: O_2  and  C_3
REMARK    3  A    between atoms: C_5  and  C_6
REMARK    4  A    between atoms: N_8  and  C_9
REMARK    5  A    between atoms: C_9  and  C_10
REMARK    6  A    between atoms: C_10  and  C_11
REMARK    7  A    between atoms: N_13  and  C_14
REMARK    8  A    between atoms: C_14  and  C_15
REMARK    9  A    between atoms: C_14  and  C_16
REMARK   10  A    between atoms: C_18  and  O_19
REMARK   11  A    between atoms: O_19  and  C_20
REMARK   12  A    between atoms: C_21  and  O_22
REMARK   13  A    between atoms: O_22  and  C_23
REMARK                            x       y       z     vdW  Elec       q    Type
REMARK                         _______ _______ _______ _____ _____    ______ ____
ROOT
ATOM      1  C   UNL     1       1.974   7.839  19.589  0.00  0.00    +0.000 C 
ATOM      2  O   UNL     1       1.578   8.183  20.696  0.00  0.00    +0.000 OA
ATOM      3  N   UNL     1       1.897   8.631  18.468  0.00  0.00    +0.000 N 
ATOM      4  H   UNL     1       2.249   8.298  17.578  0.00  0.00    +0.000 HD
ENDROOT
BRANCH   1   7
ATOM      5  C   UNL     1       3.894   4.982  18.040  0.00  0.00    +0.000 A 
ATOM      6  C   UNL     1       3.228   6.206  18.216  0.00  0.00    +0.000 A 
ATOM      7  C   UNL     1       2.499   6.461  19.377  0.00  0.00    +0.000 A 
ATOM      8  C   UNL     1       2.334   5.446  20.314  0.00  0.00    +0.000 A 
ATOM      9  C   UNL     1       2.908   4.180  20.110  0.00  0.00    +0.000 A 
ATOM     10  C   UNL     1       3.704   3.931  18.966  0.00  0.00    +0.000 A 
BRANCH   5  12
ATOM     11  C   UNL     1       5.046   5.987  16.228  0.00  0.00    +0.000 C 
ATOM     12  O   UNL     1       4.711   4.800  16.953  0.00  0.00    +0.000 OA
ENDBRANCH   5  12
BRANCH   9  13
ATOM     13  O   UNL     1       2.601   3.329  21.144  0.00  0.00    +0.000 OA
ATOM     14  C   UNL     1       1.277   2.839  21.289  0.00  0.00    +0.000 C 
ENDBRANCH   9  13
BRANCH  10  15
ATOM     15  O   UNL     1       4.206   2.663  18.854  0.00  0.00    +0.000 OA
ATOM     16  C   UNL     1       3.452   1.613  18.273  0.00  0.00    +0.000 C 
ENDBRANCH  10  15
ENDBRANCH   1   7
BRANCH   3  17
ATOM     17  C   UNL     1       1.334   9.967  18.484  0.00  0.00    +0.000 C 
BRANCH  17  18
ATOM     18  C   UNL     1      -0.161  10.001  18.182  0.00  0.00    +0.000 C 
BRANCH  18  19
ATOM     19  C   UNL     1      -0.950  10.630  19.313  0.00  0.00    +0.000 C 
ATOM     20  O   UNL     1      -2.024  11.197  19.151  0.00  0.00    +0.000 OA
ATOM     21  N   UNL     1      -0.354  10.492  20.553  0.00  0.00    +0.000 N 
ATOM     22  H   UNL     1       0.596  10.147  20.595  0.00  0.00    +0.000 HD
BRANCH  21  23
ATOM     23  C   UNL     1      -0.917  11.129  21.737  0.00  0.00    +0.000 C 
ATOM     24  C   UNL     1      -0.693  10.263  22.973  0.00  0.00    +0.000 C 
ATOM     25  C   UNL     1      -0.322  12.521  21.941  0.00  0.00    +0.000 C 
ENDBRANCH  21  23
ENDBRANCH  18  19
ENDBRANCH  17  18
ENDBRANCH   3  17
TORSDOF 8
ENDMDL
MODEL 4
REMARK VINA RESULT:      -6.5      1.715      3.251
REMARK  Name = 
REMARK  13 active torsions:
REMARK  status: ('A' for Active; 'I' for Inactive)
REMARK    1  A    between atoms: C_1  and  O_2
REMARK    2  A    between atoms: O_2  and  C_3
REMARK    3  A    between atoms: C_5  and  C_6
REMARK    4  A    between atoms: N_8  and  C_9
REMARK    5  A    between atoms: C_9  and  C_10
REMARK    6  A    between atoms: C_10  and  C_11
REMARK    7  A    between atoms: N_13  and  C_14
REMARK    8  A    between atoms: C_14  and  C_15
REMARK    9  A    between atoms: C_14  and  C_16
REMARK   10  A    between atoms: C_18  and  O_19
REMARK   11  A    between atoms: O_19  and  C_20
REMARK   12  A    between atoms: C_21  and  O_22
REMARK   13  A    between atoms: O_22  and  C_23
REMARK                            x       y       z     vdW  Elec       q    Type
REMARK                         _______ _______ _______ _____ _____    ______ ____
ROOT
ATOM      1  C   UNL     1       2.295   7.417  19.131  0.00  0.00    +0.000 C 
ATOM      2  O   UNL     1       1.988   7.004  20.244  0.00  0.00    +0.000 OA
ATOM      3  N   UNL     1       1.868   8.617  18.616  0.00  0.00    +0.000 N 
ATOM      4  H   UNL     1       2.160   8.912  17.691  0.00  0.00    +0.000 HD
ENDROOT
BRANCH   1   7
ATOM      5  C   UNL     1       5.127   6.337  16.883  0.00  0.00    +0.000 A 
ATOM      6  C   UNL     1       4.230   7.130  17.616  0.00  0.00    +0.000 A 
ATOM      7  C   UNL     1       3.104   6.566  18.216  0.00  0.00    +0.000 A 
ATOM      8  C   UNL     1       2.810   5.226  17.984  0.00  0.00    +0.000 A 
ATOM      9  C   UNL     1       3.641   4.437  17.171  0.00  0.00    +0.000 A 
ATOM     10  C   UNL     1       4.820   4.985  16.609  0.00  0.00    +0.000 A 
BRANCH   5  12
ATOM     11  C   UNL     1       7.339   7.034  17.378  0.00  0.00    +0.000 C 
ATOM     12  O   UNL     1       6.294   6.885  16.412  0.00  0.00    +0.000 OA
ENDBRANCH   5  12
BRANCH   9  13
ATOM     13  O   UNL     1       3.152   3.159  17.062  0.00  0.00    +0.000 OA
ATOM     14  C   UNL     1       2.666   2.486  18.213  0.00  0.00    +0.000 C 
ENDBRANCH   9  13
BRANCH  10  15
ATOM     15  O   UNL     1       5.554   4.139  15.823  0.00  0.00    +0.000 OA
ATOM     16  C   UNL     1       5.571   4.263  14.412  0.00  0.00    +0.000 C 
ENDBRANCH  10  15
ENDBRANCH   1   7
BRANCH   3  17
ATOM     17  C   UNL     1       1.004   9.526  19.343  0.00  0.00    +0.000 C 
BRANCH  17  18
ATOM     18  C   UNL     1       0.878  10.899  18.692  0.00  0.00    +0.000 C 
BRANCH  18  19
ATOM     19  C   UNL     1      -0.568  11.256  18.403  0.00  0.00    +0.000 C 
ATOM     20  O   UNL     1      -1.193  12.096  19.038  0.00  0.00    +0.000 OA
ATOM     21  N   UNL     1      -1.113  10.555  17.344  0.00  0.00    +0.000 N 
ATOM     22  H   UNL     1      -0.593   9.776  16.962  0.00  0.00    +0.000 HD
BRANCH  21  23
ATOM     23  C   UNL     1      -2.522  10.690  16.995  0.00  0.00    +0.000 C 
ATOM     24  C   UNL     1      -2.711  10.638  15.483  0.00  0.00    +0.000 C 
ATOM     25  C   UNL     1      -3.357   9.608  17.679  0.00  0.00    +0.000 C 
ENDBRANCH  21  23
ENDBRANCH  18  19
ENDBRANCH  17  18
ENDBRANCH   3  17
TORSDOF 8
ENDMDL
MODEL 5
REMARK VINA RESULT:      -6.4      2.041      2.967
REMARK  Name = 
REMARK  13 active torsions:
REMARK  status: ('A' for Active; 'I' for Inactive)
REMARK    1  A    between atoms: C_1  and  O_2
REMARK    2  A    between atoms: O_2  and  C_3
REMARK    3  A    between atoms: C_5  and  C_6
REMARK    4  A    between atoms: N_8  and  C_9
REMARK    5  A    between atoms: C_9  and  C_10
REMARK    6  A    between atoms: C_10  and  C_11
REMARK    7  A    between atoms: N_13  and  C_14
REMARK    8  A    between atoms: C_14  and  C_15
REMARK    9  A    between atoms: C_14  and  C_16
REMARK   10  A    between atoms: C_18  and  O_19
REMARK   11  A    between atoms: O_19  and  C_20
REMARK   12  A    between atoms: C_21  and  O_22
REMARK   13  A    between atoms: O_22  and  C_23
REMARK                            x       y       z     vdW  Elec       q    Type
REMARK                         _______ _______ _______ _____ _____    ______ ____
ROOT
ATOM      1  C   UNL     1       2.008   8.004  19.608  0.00  0.00    +0.000 C 
ATOM      2  O   UNL     1       1.586   8.333  20.711  0.00  0.00    +0.000 OA
ATOM      3  N   UNL     1       1.880   8.775  18.478  0.00  0.00    +0.000 N 
ATOM      4  H   UNL     1       2.256   8.456  17.593  0.00  0.00    +0.000 HD
ENDROOT
BRANCH   1   7
ATOM      5  C   UNL     1       2.828   4.367  20.194  0.00  0.00    +0.000 A 
ATOM      6  C   UNL     1       2.420   5.695  20.397  0.00  0.00    +0.000 A 
ATOM      7  C   UNL     1       2.627   6.663  19.415  0.00  0.00    +0.000 A 
ATOM      8  C   UNL     1       3.352   6.331  18.275  0.00  0.00    +0.000 A 
ATOM      9  C   UNL     1       3.857   5.032  18.097  0.00  0.00    +0.000 A 
ATOM     10  C   UNL     1       3.597   4.025  19.059  0.00  0.00    +0.000 A 
BRANCH   5  12
ATOM     11  C   UNL     1       1.175   2.873  21.006  0.00  0.00    +0.000 C 
ATOM     12  O   UNL     1       2.499   3.405  21.116  0.00  0.00    +0.000 OA
ENDBRANCH   5  12
BRANCH   9  13
ATOM     13  O   UNL     1       4.555   4.933  16.919  0.00  0.00    +0.000 OA
ATOM     14  C   UNL     1       4.995   6.109  16.255  0.00  0.00    +0.000 C 
ENDBRANCH   9  13
BRANCH  10  15
ATOM     15  O   UNL     1       4.143   2.798  18.800  0.00  0.00    +0.000 OA
ATOM     16  C   UNL     1       3.388   1.759  18.202  0.00  0.00    +0.000 C 
ENDBRANCH  10  15
ENDBRANCH   1   7
BRANCH   3  17
ATOM     17  C   UNL     1       1.226  10.069  18.475  0.00  0.00    +0.000 C 
BRANCH  17  18
ATOM     18  C   UNL     1      -0.282   9.989  18.262  0.00  0.00    +0.000 C 
BRANCH  18  19
ATOM     19  C   UNL     1      -1.045  10.715  19.354  0.00  0.00    +0.000 C 
ATOM     20  O   UNL     1      -2.071  11.350  19.149  0.00  0.00    +0.000 OA
ATOM     21  N   UNL     1      -0.483  10.579  20.610  0.00  0.00    +0.000 N 
ATOM     22  H   UNL     1       0.439  10.169  20.685  0.00  0.00    +0.000 HD
BRANCH  21  23
ATOM     23  C   UNL     1      -1.020  11.298  21.759  0.00  0.00    +0.000 C 
ATOM     24  C   UNL     1      -0.902  10.457  23.025  0.00  0.00    +0.000 C 
ATOM     25  C   UNL     1      -0.314  12.641  21.938  0.00  0.00    +0.000 C 
ENDBRANCH  21  23
ENDBRANCH  18  19
ENDBRANCH  17  18
ENDBRANCH   3  17
TORSDOF 8
ENDMDL
MODEL 6
REMARK VINA RESULT:      -6.4      4.215      6.863
REMARK  Name = 
REMARK  13 active torsions:
REMARK  status: ('A' for Active; 'I' for Inactive)
REMARK    1  A    between atoms: C_1  and  O_2
REMARK    2  A    between atoms: O_2  and  C_3
REMARK    3  A    between atoms: C_5  and  C_6
REMARK    4  A    between atoms: N_8  and  C_9
REMARK    5  A    between atoms: C_9  and  C_10
REMARK    6  A    between atoms: C_10  and  C_11
REMARK    7  A    between atoms: N_13  and  C_14
REMARK    8  A    between atoms: C_14  and  C_15
REMARK    9  A    between atoms: C_14  and  C_16
REMARK   10  A    between atoms: C_18  and  O_19
REMARK   11  A    between atoms: O_19  and  C_20
REMARK   12  A    between atoms: C_21  and  O_22
REMARK   13  A    between atoms: O_22  and  C_23
REMARK                            x       y       z     vdW  Elec       q    Type
REMARK                         _______ _______ _______ _____ _____    ______ ____
ROOT
ATOM      1  C   UNL     1       3.961   3.509  17.021  0.00  0.00    +0.000 C 
ATOM      2  O   UNL     1       2.820   3.663  16.603  0.00  0.00    +0.000 OA
ATOM      3  N   UNL     1       4.260   2.963  18.247  0.00  0.00    +0.000 N 
ATOM      4  H   UNL     1       5.224   2.852  18.538  0.00  0.00    +0.000 HD
ENDROOT
BRANCH   1   7
ATOM      5  C   UNL     1       6.323   3.970  14.114  0.00  0.00    +0.000 A 
ATOM      6  C   UNL     1       5.357   3.433  14.980  0.00  0.00    +0.000 A 
ATOM      7  C   UNL     1       5.121   4.005  16.229  0.00  0.00    +0.000 A 
ATOM      8  C   UNL     1       5.935   5.045  16.666  0.00  0.00    +0.000 A 
ATOM      9  C   UNL     1       6.974   5.533  15.856  0.00  0.00    +0.000 A 
ATOM     10  C   UNL     1       7.180   5.002  14.559  0.00  0.00    +0.000 A 
BRANCH   5  12
ATOM     11  C   UNL     1       5.222   3.275  12.132  0.00  0.00    +0.000 C 
ATOM     12  O   UNL     1       6.449   3.475  12.841  0.00  0.00    +0.000 OA
ENDBRANCH   5  12
BRANCH   9  13
ATOM     13  O   UNL     1       7.660   6.540  16.489  0.00  0.00    +0.000 OA
ATOM     14  C   UNL     1       7.284   6.937  17.800  0.00  0.00    +0.000 C 
ENDBRANCH   9  13
BRANCH  10  15
ATOM     15  O   UNL     1       8.225   5.536  13.856  0.00  0.00    +0.000 OA
ATOM     16  C   UNL     1       8.119   5.828  12.473  0.00  0.00    +0.000 C 
ENDBRANCH  10  15
ENDBRANCH   1   7
BRANCH   3  17
ATOM     17  C   UNL     1       3.246   2.509  19.177  0.00  0.00    +0.000 C 
BRANCH  17  18
ATOM     18  C   UNL     1       3.029   3.456  20.352  0.00  0.00    +0.000 C 
BRANCH  18  19
ATOM     19  C   UNL     1       3.418   4.881  20.008  0.00  0.00    +0.000 C 
ATOM     20  O   UNL     1       4.579   5.252  19.893  0.00  0.00    +0.000 OA
ATOM     21  N   UNL     1       2.338   5.723  19.820  0.00  0.00    +0.000 N 
ATOM     22  H   UNL     1       1.417   5.391  20.075  0.00  0.00    +0.000 HD
BRANCH  21  23
ATOM     23  C   UNL     1       2.525   7.150  19.591  0.00  0.00    +0.000 C 
ATOM     24  C   UNL     1       2.353   7.486  18.113  0.00  0.00    +0.000 C 
ATOM     25  C   UNL     1       1.558   7.969  20.444  0.00  0.00    +0.000 C 
ENDBRANCH  21  23
ENDBRANCH  18  19
ENDBRANCH  17  18
ENDBRANCH   3  17
TORSDOF 8
ENDMDL
MODEL 7
REMARK VINA RESULT:      -6.3      2.814      3.148
REMARK  Name = 
REMARK  13 active torsions:
REMARK  status: ('A' for Active; 'I' for Inactive)
REMARK    1  A    between atoms: C_1  and  O_2
REMARK    2  A    between atoms: O_2  and  C_3
REMARK    3  A    between atoms: C_5  and  C_6
REMARK    4  A    between atoms: N_8  and  C_9
REMARK    5  A    between atoms: C_9  and  C_10
REMARK    6  A    between atoms: C_10  and  C_11
REMARK    7  A    between atoms: N_13  and  C_14
REMARK    8  A    between atoms: C_14  and  C_15
REMARK    9  A    between atoms: C_14  and  C_16
REMARK   10  A    between atoms: C_18  and  O_19
REMARK   11  A    between atoms: O_19  and  C_20
REMARK   12  A    between atoms: C_21  and  O_22
REMARK   13  A    between atoms: O_22  and  C_23
REMARK                            x       y       z     vdW  Elec       q    Type
REMARK                         _______ _______ _______ _____ _____    ______ ____
ROOT
ATOM      1  C   UNL     1       1.977   7.521  19.806  0.00  0.00    +0.000 C 
ATOM      2  O   UNL     1       2.194   8.444  19.028  0.00  0.00    +0.000 OA
ATOM      3  N   UNL     1       1.576   7.697  21.108  0.00  0.00    +0.000 N 
ATOM      4  H   UNL     1       1.403   6.896  21.705  0.00  0.00    +0.000 HD
ENDROOT
BRANCH   1   7
ATOM      5  C   UNL     1       1.724   3.757  19.707  0.00  0.00    +0.000 A 
ATOM      6  C   UNL     1       1.667   5.090  20.145  0.00  0.00    +0.000 A 
ATOM      7  C   UNL     1       2.231   6.115  19.386  0.00  0.00    +0.000 A 
ATOM      8  C   UNL     1       2.959   5.795  18.245  0.00  0.00    +0.000 A 
ATOM      9  C   UNL     1       3.114   4.458  17.843  0.00  0.00    +0.000 A 
ATOM     10  C   UNL     1       2.491   3.414  18.571  0.00  0.00    +0.000 A 
BRANCH   5  12
ATOM     11  C   UNL     1       1.534   2.521  21.722  0.00  0.00    +0.000 C 
ATOM     12  O   UNL     1       1.051   2.783  20.401  0.00  0.00    +0.000 OA
ENDBRANCH   5  12
BRANCH   9  13
ATOM     13  O   UNL     1       3.884   4.371  16.709  0.00  0.00    +0.000 OA
ATOM     14  C   UNL     1       5.298   4.451  16.805  0.00  0.00    +0.000 C 
ENDBRANCH   9  13
BRANCH  10  15
ATOM     15  O   UNL     1       2.714   2.148  18.106  0.00  0.00    +0.000 OA
ATOM     16  C   UNL     1       3.775   1.350  18.600  0.00  0.00    +0.000 C 
ENDBRANCH  10  15
ENDBRANCH   1   7
BRANCH   3  17
ATOM     17  C   UNL     1       1.367   9.003  21.700  0.00  0.00    +0.000 C 
BRANCH  17  18
ATOM     18  C   UNL     1      -0.066   9.510  21.567  0.00  0.00    +0.000 C 
BRANCH  18  19
ATOM     19  C   UNL     1      -0.171  10.650  20.572  0.00  0.00    +0.000 C 
ATOM     20  O   UNL     1      -1.238  11.074  20.146  0.00  0.00    +0.000 OA
ATOM     21  N   UNL     1       1.050  11.178  20.199  0.00  0.00    +0.000 N 
ATOM     22  H   UNL     1       1.892  10.687  20.472  0.00  0.00    +0.000 HD
BRANCH  21  23
ATOM     23  C   UNL     1       1.146  12.206  19.169  0.00  0.00    +0.000 C 
ATOM     24  C   UNL     1       1.306  13.586  19.798  0.00  0.00    +0.000 C 
ATOM     25  C   UNL     1       2.302  11.912  18.215  0.00  0.00    +0.000 C 
ENDBRANCH  21  23
ENDBRANCH  18  19
ENDBRANCH  17  18
ENDBRANCH   3  17
TORSDOF 8
ENDMDL
MODEL 8
REMARK VINA RESULT:      -6.3      1.477      2.930
REMARK  Name = 
REMARK  13 active torsions:
REMARK  status: ('A' for Active; 'I' for Inactive)
REMARK    1  A    between atoms: C_1  and  O_2
REMARK    2  A    between atoms: O_2  and  C_3
REMARK    3  A    between atoms: C_5  and  C_6
REMARK    4  A    between atoms: N_8  and  C_9
REMARK    5  A    between atoms: C_9  and  C_10
REMARK    6  A    between atoms: C_10  and  C_11
REMARK    7  A    between atoms: N_13  and  C_14
REMARK    8  A    between atoms: C_14  and  C_15
REMARK    9  A    between atoms: C_14  and  C_16
REMARK   10  A    between atoms: C_18  and  O_19
REMARK   11  A    between atoms: O_19  and  C_20
REMARK   12  A    between atoms: C_21  and  O_22
REMARK   13  A    between atoms: O_22  and  C_23
REMARK                            x       y       z     vdW  Elec       q    Type
REMARK                         _______ _______ _______ _____ _____    ______ ____
ROOT
ATOM      1  C   UNL     1       1.959   7.749  19.848  0.00  0.00    +0.000 C 
ATOM      2  O   UNL     1       1.667   8.128  20.977  0.00  0.00    +0.000 OA
ATOM      3  N   UNL     1       1.802   8.517  18.719  0.00  0.00    +0.000 N 
ATOM      4  H   UNL     1       2.068   8.154  17.811  0.00  0.00    +0.000 HD
ENDROOT
BRANCH   1   7
ATOM      5  C   UNL     1       4.235   4.896  18.889  0.00  0.00    +0.000 A 
ATOM      6  C   UNL     1       3.651   6.170  18.974  0.00  0.00    +0.000 A 
ATOM      7  C   UNL     1       2.433   6.355  19.627  0.00  0.00    +0.000 A 
ATOM      8  C   UNL     1       1.736   5.244  20.094  0.00  0.00    +0.000 A 
ATOM      9  C   UNL     1       2.255   3.949  19.930  0.00  0.00    +0.000 A 
ATOM     10  C   UNL     1       3.521   3.757  19.325  0.00  0.00    +0.000 A 
BRANCH   5  12
ATOM     11  C   UNL     1       6.539   5.425  19.068  0.00  0.00    +0.000 C 
ATOM     12  O   UNL     1       5.493   4.756  18.358  0.00  0.00    +0.000 OA
ENDBRANCH   5  12
BRANCH   9  13
ATOM     13  O   UNL     1       1.397   3.007  20.442  0.00  0.00    +0.000 OA
ATOM     14  C   UNL     1       1.540   2.577  21.787  0.00  0.00    +0.000 C 
ENDBRANCH   9  13
BRANCH  10  15
ATOM     15  O   UNL     1       3.931   2.457  19.200  0.00  0.00    +0.000 OA
ATOM     16  C   UNL     1       3.461   1.627  18.152  0.00  0.00    +0.000 C 
ENDBRANCH  10  15
ENDBRANCH   1   7
BRANCH   3  17
ATOM     17  C   UNL     1       1.271   9.865  18.749  0.00  0.00    +0.000 C 
BRANCH  17  18
ATOM     18  C   UNL     1      -0.201   9.932  19.143  0.00  0.00    +0.000 C 
BRANCH  18  19
ATOM     19  C   UNL     1      -1.002  10.793  18.187  0.00  0.00    +0.000 C 
ATOM     20  O   UNL     1      -0.922  12.015  18.152  0.00  0.00    +0.000 OA
ATOM     21  N   UNL     1      -1.825  10.071  17.342  0.00  0.00    +0.000 N 
ATOM     22  H   UNL     1      -1.954   9.084  17.523  0.00  0.00    +0.000 HD
BRANCH  21  23
ATOM     23  C   UNL     1      -2.747  10.739  16.433  0.00  0.00    +0.000 C 
ATOM     24  C   UNL     1      -2.835   9.990  15.107  0.00  0.00    +0.000 C 
ATOM     25  C   UNL     1      -4.131  10.875  17.066  0.00  0.00    +0.000 C 
ENDBRANCH  21  23
ENDBRANCH  18  19
ENDBRANCH  17  18
ENDBRANCH   3  17
TORSDOF 8
ENDMDL
MODEL 9
REMARK VINA RESULT:      -6.3      4.883      7.935
REMARK  Name = 
REMARK  13 active torsions:
REMARK  status: ('A' for Active; 'I' for Inactive)
REMARK    1  A    between atoms: C_1  and  O_2
REMARK    2  A    between atoms: O_2  and  C_3
REMARK    3  A    between atoms: C_5  and  C_6
REMARK    4  A    between atoms: N_8  and  C_9
REMARK    5  A    between atoms: C_9  and  C_10
REMARK    6  A    between atoms: C_10  and  C_11
REMARK    7  A    between atoms: N_13  and  C_14
REMARK    8  A    between atoms: C_14  and  C_15
REMARK    9  A    between atoms: C_14  and  C_16
REMARK   10  A    between atoms: C_18  and  O_19
REMARK   11  A    between atoms: O_19  and  C_20
REMARK   12  A    between atoms: C_21  and  O_22
REMARK   13  A    between atoms: O_22  and  C_23
REMARK                            x       y       z     vdW  Elec       q    Type
REMARK                         _______ _______ _______ _____ _____    ______ ____
ROOT
ATOM      1  C   UNL     1       6.545   6.531  17.022  0.00  0.00    +0.000 C 
ATOM      2  O   UNL     1       7.335   5.942  16.293  0.00  0.00    +0.000 OA
ATOM      3  N   UNL     1       6.810   7.742  17.616  0.00  0.00    +0.000 N 
ATOM      4  H   UNL     1       6.116   8.188  18.204  0.00  0.00    +0.000 HD
ENDROOT
BRANCH   1   7
ATOM      5  C   UNL     1       2.897   6.216  17.935  0.00  0.00    +0.000 A 
ATOM      6  C   UNL     1       4.190   6.733  17.753  0.00  0.00    +0.000 A 
ATOM      7  C   UNL     1       5.245   5.900  17.381  0.00  0.00    +0.000 A 
ATOM      8  C   UNL     1       5.034   4.527  17.306  0.00  0.00    +0.000 A 
ATOM      9  C   UNL     1       3.771   3.978  17.582  0.00  0.00    +0.000 A 
ATOM     10  C   UNL     1       2.677   4.820  17.898  0.00  0.00    +0.000 A 
BRANCH   5  12
ATOM     11  C   UNL     1       2.121   8.457  17.952  0.00  0.00    +0.000 C 
ATOM     12  O   UNL     1       1.849   7.070  18.172  0.00  0.00    +0.000 OA
ENDBRANCH   5  12
BRANCH   9  13
ATOM     13  O   UNL     1       3.795   2.609  17.470  0.00  0.00    +0.000 OA
ATOM     14  C   UNL     1       3.888   1.805  18.636  0.00  0.00    +0.000 C 
ENDBRANCH   9  13
BRANCH  10  15
ATOM     15  O   UNL     1       1.494   4.187  18.163  0.00  0.00    +0.000 OA
ATOM     16  C   UNL     1       1.110   3.851  19.485  0.00  0.00    +0.000 C 
ENDBRANCH  10  15
ENDBRANCH   1   7
BRANCH   3  17
ATOM     17  C   UNL     1       8.063   8.450  17.441  0.00  0.00    +0.000 C 
BRANCH  17  18
ATOM     18  C   UNL     1       8.723   8.856  18.754  0.00  0.00    +0.000 C 
BRANCH  18  19
ATOM     19  C   UNL     1       9.101  10.325  18.765  0.00  0.00    +0.000 C 
ATOM     20  O   UNL     1       8.731  11.121  17.912  0.00  0.00    +0.000 OA
ATOM     21  N   UNL     1       9.892  10.688  19.840  0.00  0.00    +0.000 N 
ATOM     22  H   UNL     1      10.281   9.957  20.421  0.00  0.00    +0.000 HD
BRANCH  21  23
ATOM     23  C   UNL     1      10.439  12.034  19.952  0.00  0.00    +0.000 C 
ATOM     24  C   UNL     1       9.938  12.715  21.222  0.00  0.00    +0.000 C 
ATOM     25  C   UNL     1      11.966  12.004  19.926  0.00  0.00    +0.000 C 
ENDBRANCH  21  23
ENDBRANCH  18  19
ENDBRANCH  17  18
ENDBRANCH   3  17
TORSDOF 8
ENDMDL
