MODEL 1
REMARK VINA RESULT:      -7.2      0.000      0.000
REMARK  Name = 
REMARK  3 active torsions:
REMARK  status: ('A' for Active; 'I' for Inactive)
REMARK    1  A    between atoms: N_2  and  C_4
REMARK    2  A    between atoms: C_7  and  C_8
REMARK    3  A    between atoms: C_8  and  O_9
REMARK                            x       y       z     vdW  Elec       q    Type
REMARK                         _______ _______ _______ _____ _____    ______ ____
ROOT
ATOM      1  C   UNL     1       3.236   4.342  17.870  0.00  0.00    +0.000 C 
ATOM      2  C   UNL     1       4.245   4.899  16.833  0.00  0.00    +0.000 C 
ATOM      3  N   UNL     1       5.304   5.615  17.562  0.00  0.00    +0.000 NA
ATOM      4  C   UNL     1       6.216   6.327  16.650  0.00  0.00    +0.000 C 
ATOM      5  C   UNL     1       7.185   7.184  17.471  0.00  0.00    +0.000 C 
ATOM      6  C   UNL     1       7.983   6.288  18.422  0.00  0.00    +0.000 C 
ATOM      7  C   UNL     1       7.024   5.506  19.325  0.00  0.00    +0.000 C 
ATOM      8  C   UNL     1       6.017   4.702  18.475  0.00  0.00    +0.000 C 
ATOM      9  C   UNL     1       5.001   4.010  19.409  0.00  0.00    +0.000 C 
ATOM     10  O   UNL     1       3.936   3.403  18.689  0.00  0.00    +0.000 OA
ENDROOT
BRANCH   1  14
ATOM     11  C   UNL     1       1.516   7.427  20.461  0.00  0.00    +0.000 A 
ATOM     12  C   UNL     1       1.458   6.065  20.815  0.00  0.00    +0.000 A 
ATOM     13  C   UNL     1       1.980   5.083  19.963  0.00  0.00    +0.000 A 
ATOM     14  C   UNL     1       2.575   5.437  18.739  0.00  0.00    +0.000 A 
ATOM     15  C   UNL     1       2.583   6.805  18.376  0.00  0.00    +0.000 A 
ATOM     16  C   UNL     1       2.068   7.779  19.225  0.00  0.00    +0.000 A 
BRANCH  11  18
ATOM     17  O   UNL     1       1.762   8.895  22.186  0.00  0.00    +0.000 OA
ATOM     18  N   UNL     1       1.045   8.444  21.345  0.00  0.00    +0.000 N 
ATOM     19  O   UNL     1      -0.165   8.944  21.201  0.00  0.00    +0.000 OA
ENDBRANCH  11  18
ENDBRANCH   1  14
BRANCH   1  20
ATOM     20  O   UNL     1       2.230   3.631  17.191  0.00  0.00    +0.000 OA
ATOM     21  H   UNL     1       1.411   4.192  17.182  0.00  0.00    +0.000 HD
ENDBRANCH   1  20
TORSDOF 3
ENDMDL
MODEL 2
REMARK VINA RESULT:      -7.1      0.737      1.475
REMARK  Name = 
REMARK  3 active torsions:
REMARK  status: ('A' for Active; 'I' for Inactive)
REMARK    1  A    between atoms: N_2  and  C_4
REMARK    2  A    between atoms: C_7  and  C_8
REMARK    3  A    between atoms: C_8  and  O_9
REMARK                            x       y       z     vdW  Elec       q    Type
REMARK                         _______ _______ _______ _____ _____    ______ ____
ROOT
ATOM      1  C   UNL     1       2.958   4.877  18.106  0.00  0.00    +0.000 C 
ATOM      2  C   UNL     1       4.034   5.184  17.033  0.00  0.00    +0.000 C 
ATOM      3  N   UNL     1       5.195   5.787  17.706  0.00  0.00    +0.000 NA
ATOM      4  C   UNL     1       6.199   6.273  16.744  0.00  0.00    +0.000 C 
ATOM      5  C   UNL     1       7.294   7.035  17.497  0.00  0.00    +0.000 C 
ATOM      6  C   UNL     1       7.951   6.108  18.523  0.00  0.00    +0.000 C 
ATOM      7  C   UNL     1       6.890   5.560  19.482  0.00  0.00    +0.000 C 
ATOM      8  C   UNL     1       5.766   4.853  18.695  0.00  0.00    +0.000 C 
ATOM      9  C   UNL     1       4.661   4.405  19.677  0.00  0.00    +0.000 C 
ATOM     10  O   UNL     1       3.511   3.912  19.004  0.00  0.00    +0.000 OA
ENDROOT
BRANCH   1  14
ATOM     11  C   UNL     1       1.432   8.416  20.188  0.00  0.00    +0.000 A 
ATOM     12  C   UNL     1       1.923   8.503  18.870  0.00  0.00    +0.000 A 
ATOM     13  C   UNL     1       2.441   7.372  18.225  0.00  0.00    +0.000 A 
ATOM     14  C   UNL     1       2.479   6.127  18.878  0.00  0.00    +0.000 A 
ATOM     15  C   UNL     1       2.027   6.068  20.219  0.00  0.00    +0.000 A 
ATOM     16  C   UNL     1       1.509   7.190  20.855  0.00  0.00    +0.000 A 
BRANCH  11  18
ATOM     17  O   UNL     1      -0.089  10.104  20.347  0.00  0.00    +0.000 OA
ATOM     18  N   UNL     1       0.845   9.544  20.836  0.00  0.00    +0.000 N 
ATOM     19  O   UNL     1       1.285   9.941  22.012  0.00  0.00    +0.000 OA
ENDBRANCH  11  18
ENDBRANCH   1  14
BRANCH   1  20
ATOM     20  O   UNL     1       1.850   4.275  17.483  0.00  0.00    +0.000 OA
ATOM     21  H   UNL     1       1.310   3.824  18.184  0.00  0.00    +0.000 HD
ENDBRANCH   1  20
TORSDOF 3
ENDMDL
MODEL 3
REMARK VINA RESULT:      -7.0      3.231      6.528
REMARK  Name = 
REMARK  3 active torsions:
REMARK  status: ('A' for Active; 'I' for Inactive)
REMARK    1  A    between atoms: N_2  and  C_4
REMARK    2  A    between atoms: C_7  and  C_8
REMARK    3  A    between atoms: C_8  and  O_9
REMARK                            x       y       z     vdW  Elec       q    Type
REMARK                         _______ _______ _______ _____ _____    ______ ____
ROOT
ATOM      1  C   UNL     1       5.465   4.777  19.187  0.00  0.00    +0.000 C 
ATOM      2  C   UNL     1       4.015   5.276  19.411  0.00  0.00    +0.000 C 
ATOM      3  N   UNL     1       3.095   4.298  18.810  0.00  0.00    +0.000 NA
ATOM      4  C   UNL     1       1.700   4.773  18.821  0.00  0.00    +0.000 C 
ATOM      5  C   UNL     1       0.826   3.792  18.034  0.00  0.00    +0.000 C 
ATOM      6  C   UNL     1       0.914   2.402  18.670  0.00  0.00    +0.000 C 
ATOM      7  C   UNL     1       2.374   1.942  18.710  0.00  0.00    +0.000 C 
ATOM      8  C   UNL     1       3.246   2.978  19.450  0.00  0.00    +0.000 C 
ATOM      9  C   UNL     1       4.726   2.540  19.383  0.00  0.00    +0.000 C 
ATOM     10  O   UNL     1       5.606   3.538  19.883  0.00  0.00    +0.000 OA
ENDROOT
BRANCH   1  14
ATOM     11  C   UNL     1       6.478   4.495  14.934  0.00  0.00    +0.000 A 
ATOM     12  C   UNL     1       5.136   4.550  15.360  0.00  0.00    +0.000 A 
ATOM     13  C   UNL     1       4.822   4.604  16.724  0.00  0.00    +0.000 A 
ATOM     14  C   UNL     1       5.838   4.610  17.696  0.00  0.00    +0.000 A 
ATOM     15  C   UNL     1       7.179   4.506  17.254  0.00  0.00    +0.000 A 
ATOM     16  C   UNL     1       7.490   4.457  15.899  0.00  0.00    +0.000 A 
BRANCH  11  18
ATOM     17  O   UNL     1       6.286   3.743  12.793  0.00  0.00    +0.000 OA
ATOM     18  N   UNL     1       6.817   4.501  13.548  0.00  0.00    +0.000 N 
ATOM     19  O   UNL     1       7.669   5.386  13.073  0.00  0.00    +0.000 OA
ENDBRANCH  11  18
ENDBRANCH   1  14
BRANCH   1  20
ATOM     20  O   UNL     1       6.358   5.689  19.779  0.00  0.00    +0.000 OA
ATOM     21  H   UNL     1       5.932   6.046  20.602  0.00  0.00    +0.000 HD
ENDBRANCH   1  20
TORSDOF 3
ENDMDL
MODEL 4
REMARK VINA RESULT:      -7.0      3.184      6.498
REMARK  Name = 
REMARK  3 active torsions:
REMARK  status: ('A' for Active; 'I' for Inactive)
REMARK    1  A    between atoms: N_2  and  C_4
REMARK    2  A    between atoms: C_7  and  C_8
REMARK    3  A    between atoms: C_8  and  O_9
REMARK                            x       y       z     vdW  Elec       q    Type
REMARK                         _______ _______ _______ _____ _____    ______ ____
ROOT
ATOM      1  C   UNL     1       5.558   4.919  19.173  0.00  0.00    +0.000 C 
ATOM      2  C   UNL     1       4.105   5.367  19.476  0.00  0.00    +0.000 C 
ATOM      3  N   UNL     1       3.187   4.443  18.790  0.00  0.00    +0.000 NA
ATOM      4  C   UNL     1       1.787   4.891  18.878  0.00  0.00    +0.000 C 
ATOM      5  C   UNL     1       0.911   3.986  18.006  0.00  0.00    +0.000 C 
ATOM      6  C   UNL     1       1.032   2.537  18.488  0.00  0.00    +0.000 C 
ATOM      7  C   UNL     1       2.500   2.100  18.450  0.00  0.00    +0.000 C 
ATOM      8  C   UNL     1       3.371   3.065  19.282  0.00  0.00    +0.000 C 
ATOM      9  C   UNL     1       4.856   2.662  19.140  0.00  0.00    +0.000 C 
ATOM     10  O   UNL     1       5.730   3.615  19.729  0.00  0.00    +0.000 OA
ENDROOT
BRANCH   1  14
ATOM     11  C   UNL     1       6.543   4.718  14.909  0.00  0.00    +0.000 A 
ATOM     12  C   UNL     1       7.527   4.499  15.894  0.00  0.00    +0.000 A 
ATOM     13  C   UNL     1       7.209   4.600  17.255  0.00  0.00    +0.000 A 
ATOM     14  C   UNL     1       5.903   4.919  17.666  0.00  0.00    +0.000 A 
ATOM     15  C   UNL     1       4.938   5.184  16.664  0.00  0.00    +0.000 A 
ATOM     16  C   UNL     1       5.254   5.079  15.314  0.00  0.00    +0.000 A 
BRANCH  11  18
ATOM     17  O   UNL     1       6.263   3.737  12.872  0.00  0.00    +0.000 OA
ATOM     18  N   UNL     1       6.836   4.559  13.521  0.00  0.00    +0.000 N 
ATOM     19  O   UNL     1       7.693   5.362  12.924  0.00  0.00    +0.000 OA
ENDBRANCH  11  18
ENDBRANCH   1  14
BRANCH   1  20
ATOM     20  O   UNL     1       6.449   5.777  19.843  0.00  0.00    +0.000 OA
ATOM     21  H   UNL     1       5.988   6.130  20.649  0.00  0.00    +0.000 HD
ENDBRANCH   1  20
TORSDOF 3
ENDMDL
MODEL 5
REMARK VINA RESULT:      -6.7      3.295      6.772
REMARK  Name = 
REMARK  3 active torsions:
REMARK  status: ('A' for Active; 'I' for Inactive)
REMARK    1  A    between atoms: N_2  and  C_4
REMARK    2  A    between atoms: C_7  and  C_8
REMARK    3  A    between atoms: C_8  and  O_9
REMARK                            x       y       z     vdW  Elec       q    Type
REMARK                         _______ _______ _______ _____ _____    ______ ____
ROOT
ATOM      1  C   UNL     1       5.480   6.089  17.632  0.00  0.00    +0.000 C 
ATOM      2  C   UNL     1       3.971   6.155  17.976  0.00  0.00    +0.000 C 
ATOM      3  N   UNL     1       3.463   4.778  18.081  0.00  0.00    +0.000 NA
ATOM      4  C   UNL     1       1.998   4.741  18.234  0.00  0.00    +0.000 C 
ATOM      5  C   UNL     1       1.520   3.287  18.167  0.00  0.00    +0.000 C 
ATOM      6  C   UNL     1       2.188   2.476  19.281  0.00  0.00    +0.000 C 
ATOM      7  C   UNL     1       3.711   2.570  19.150  0.00  0.00    +0.000 C 
ATOM      8  C   UNL     1       4.162   4.046  19.154  0.00  0.00    +0.000 C 
ATOM      9  C   UNL     1       5.686   4.114  18.915  0.00  0.00    +0.000 C 
ATOM     10  O   UNL     1       6.142   5.447  18.723  0.00  0.00    +0.000 OA
ENDROOT
BRANCH   1  14
ATOM     11  C   UNL     1       6.242   4.160  13.773  0.00  0.00    +0.000 A 
ATOM     12  C   UNL     1       4.958   4.142  14.354  0.00  0.00    +0.000 A 
ATOM     13  C   UNL     1       4.733   4.732  15.605  0.00  0.00    +0.000 A 
ATOM     14  C   UNL     1       5.781   5.356  16.304  0.00  0.00    +0.000 A 
ATOM     15  C   UNL     1       7.074   5.322  15.729  0.00  0.00    +0.000 A 
ATOM     16  C   UNL     1       7.296   4.741  14.486  0.00  0.00    +0.000 A 
BRANCH  11  18
ATOM     17  O   UNL     1       7.398   3.995  11.817  0.00  0.00    +0.000 OA
ATOM     18  N   UNL     1       6.475   3.618  12.473  0.00  0.00    +0.000 N 
ATOM     19  O   UNL     1       5.714   2.647  12.010  0.00  0.00    +0.000 OA
ENDBRANCH  11  18
ENDBRANCH   1  14
BRANCH   1  20
ATOM     20  O   UNL     1       5.989   7.399  17.553  0.00  0.00    +0.000 OA
ATOM     21  H   UNL     1       6.272   7.562  16.615  0.00  0.00    +0.000 HD
ENDBRANCH   1  20
TORSDOF 3
ENDMDL
MODEL 6
REMARK VINA RESULT:      -6.7      2.275      4.093
REMARK  Name = 
REMARK  3 active torsions:
REMARK  status: ('A' for Active; 'I' for Inactive)
REMARK    1  A    between atoms: N_2  and  C_4
REMARK    2  A    between atoms: C_7  and  C_8
REMARK    3  A    between atoms: C_8  and  O_9
REMARK                            x       y       z     vdW  Elec       q    Type
REMARK                         _______ _______ _______ _____ _____    ______ ____
ROOT
ATOM      1  C   UNL     1       4.223   5.646  18.323  0.00  0.00    +0.000 C 
ATOM      2  C   UNL     1       4.275   4.646  19.506  0.00  0.00    +0.000 C 
ATOM      3  N   UNL     1       2.934   4.063  19.674  0.00  0.00    +0.000 NA
ATOM      4  C   UNL     1       2.842   3.229  20.885  0.00  0.00    +0.000 C 
ATOM      5  C   UNL     1       1.387   2.795  21.090  0.00  0.00    +0.000 C 
ATOM      6  C   UNL     1       0.911   2.004  19.868  0.00  0.00    +0.000 C 
ATOM      7  C   UNL     1       1.067   2.857  18.606  0.00  0.00    +0.000 C 
ATOM      8  C   UNL     1       2.526   3.337  18.456  0.00  0.00    +0.000 C 
ATOM      9  C   UNL     1       2.631   4.278  17.236  0.00  0.00    +0.000 C 
ATOM     10  O   UNL     1       3.904   4.903  17.146  0.00  0.00    +0.000 OA
ENDROOT
BRANCH   1  14
ATOM     11  C   UNL     1       1.491   8.996  19.036  0.00  0.00    +0.000 A 
ATOM     12  C   UNL     1       1.670   7.985  20.001  0.00  0.00    +0.000 A 
ATOM     13  C   UNL     1       2.519   6.899  19.749  0.00  0.00    +0.000 A 
ATOM     14  C   UNL     1       3.213   6.798  18.531  0.00  0.00    +0.000 A 
ATOM     15  C   UNL     1       2.986   7.796  17.553  0.00  0.00    +0.000 A 
ATOM     16  C   UNL     1       2.146   8.875  17.806  0.00  0.00    +0.000 A 
BRANCH  11  18
ATOM     17  O   UNL     1       0.962  11.203  18.842  0.00  0.00    +0.000 OA
ATOM     18  N   UNL     1       0.678  10.138  19.301  0.00  0.00    +0.000 N 
ATOM     19  O   UNL     1      -0.432  10.019  20.000  0.00  0.00    +0.000 OA
ENDBRANCH  11  18
ENDBRANCH   1  14
BRANCH   1  20
ATOM     20  O   UNL     1       5.505   6.194  18.133  0.00  0.00    +0.000 OA
ATOM     21  H   UNL     1       5.925   6.310  19.024  0.00  0.00    +0.000 HD
ENDBRANCH   1  20
TORSDOF 3
ENDMDL
MODEL 7
REMARK VINA RESULT:      -6.6      0.920      1.119
REMARK  Name = 
REMARK  3 active torsions:
REMARK  status: ('A' for Active; 'I' for Inactive)
REMARK    1  A    between atoms: N_2  and  C_4
REMARK    2  A    between atoms: C_7  and  C_8
REMARK    3  A    between atoms: C_8  and  O_9
REMARK                            x       y       z     vdW  Elec       q    Type
REMARK                         _______ _______ _______ _____ _____    ______ ____
ROOT
ATOM      1  C   UNL     1       2.627   3.818  18.228  0.00  0.00    +0.000 C 
ATOM      2  C   UNL     1       3.451   3.994  16.927  0.00  0.00    +0.000 C 
ATOM      3  N   UNL     1       4.678   4.735  17.258  0.00  0.00    +0.000 NA
ATOM      4  C   UNL     1       5.442   5.102  16.054  0.00  0.00    +0.000 C 
ATOM      5  C   UNL     1       6.610   6.011  16.453  0.00  0.00    +0.000 C 
ATOM      6  C   UNL     1       7.513   5.277  17.448  0.00  0.00    +0.000 C 
ATOM      7  C   UNL     1       6.697   4.846  18.669  0.00  0.00    +0.000 C 
ATOM      8  C   UNL     1       5.490   3.986  18.236  0.00  0.00    +0.000 C 
ATOM      9  C   UNL     1       4.629   3.655  19.474  0.00  0.00    +0.000 C 
ATOM     10  O   UNL     1       3.405   3.024  19.125  0.00  0.00    +0.000 OA
ENDROOT
BRANCH   1  14
ATOM     11  C   UNL     1       1.646   7.587  20.234  0.00  0.00    +0.000 A 
ATOM     12  C   UNL     1       1.382   6.346  20.847  0.00  0.00    +0.000 A 
ATOM     13  C   UNL     1       1.667   5.146  20.183  0.00  0.00    +0.000 A 
ATOM     14  C   UNL     1       2.225   5.155  18.893  0.00  0.00    +0.000 A 
ATOM     15  C   UNL     1       2.440   6.408  18.271  0.00  0.00    +0.000 A 
ATOM     16  C   UNL     1       2.161   7.598  18.934  0.00  0.00    +0.000 A 
BRANCH  11  18
ATOM     17  O   UNL     1       1.067   9.788  20.323  0.00  0.00    +0.000 OA
ATOM     18  N   UNL     1       1.418   8.817  20.921  0.00  0.00    +0.000 N 
ATOM     19  O   UNL     1       1.528   8.878  22.232  0.00  0.00    +0.000 OA
ENDBRANCH  11  18
ENDBRANCH   1  14
BRANCH   1  20
ATOM     20  O   UNL     1       1.460   3.088  17.934  0.00  0.00    +0.000 OA
ATOM     21  H   UNL     1       0.702   3.514  18.413  0.00  0.00    +0.000 HD
ENDBRANCH   1  20
TORSDOF 3
ENDMDL
MODEL 8
REMARK VINA RESULT:      -6.6      1.556      2.157
REMARK  Name = 
REMARK  3 active torsions:
REMARK  status: ('A' for Active; 'I' for Inactive)
REMARK    1  A    between atoms: N_2  and  C_4
REMARK    2  A    between atoms: C_7  and  C_8
REMARK    3  A    between atoms: C_8  and  O_9
REMARK                            x       y       z     vdW  Elec       q    Type
REMARK                         _______ _______ _______ _____ _____    ______ ____
ROOT
ATOM      1  C   UNL     1       2.764   4.222  18.848  0.00  0.00    +0.000 C 
ATOM      2  C   UNL     1       3.252   3.801  17.438  0.00  0.00    +0.000 C 
ATOM      3  N   UNL     1       4.496   4.530  17.146  0.00  0.00    +0.000 NA
ATOM      4  C   UNL     1       4.942   4.326  15.757  0.00  0.00    +0.000 C 
ATOM      5  C   UNL     1       6.138   5.239  15.470  0.00  0.00    +0.000 C 
ATOM      6  C   UNL     1       7.276   4.915  16.442  0.00  0.00    +0.000 C 
ATOM      7  C   UNL     1       6.786   5.071  17.885  0.00  0.00    +0.000 C 
ATOM      8  C   UNL     1       5.541   4.191  18.130  0.00  0.00    +0.000 C 
ATOM      9  C   UNL     1       5.008   4.448  19.557  0.00  0.00    +0.000 C 
ATOM     10  O   UNL     1       3.759   3.811  19.787  0.00  0.00    +0.000 OA
ENDROOT
BRANCH   1  14
ATOM     11  C   UNL     1       1.796   8.486  19.127  0.00  0.00    +0.000 A 
ATOM     12  C   UNL     1       2.201   7.910  17.907  0.00  0.00    +0.000 A 
ATOM     13  C   UNL     1       2.543   6.553  17.835  0.00  0.00    +0.000 A 
ATOM     14  C   UNL     1       2.484   5.737  18.979  0.00  0.00    +0.000 A 
ATOM     15  C   UNL     1       2.121   6.341  20.207  0.00  0.00    +0.000 A 
ATOM     16  C   UNL     1       1.778   7.687  20.275  0.00  0.00    +0.000 A 
BRANCH  11  18
ATOM     17  O   UNL     1       0.707  10.229  20.109  0.00  0.00    +0.000 OA
ATOM     18  N   UNL     1       1.387   9.851  19.204  0.00  0.00    +0.000 N 
ATOM     19  O   UNL     1       1.809  10.724  18.313  0.00  0.00    +0.000 OA
ENDBRANCH  11  18
ENDBRANCH   1  14
BRANCH   1  20
ATOM     20  O   UNL     1       1.588   3.515  19.154  0.00  0.00    +0.000 OA
ATOM     21  H   UNL     1       0.828   3.976  18.712  0.00  0.00    +0.000 HD
ENDBRANCH   1  20
TORSDOF 3
ENDMDL
MODEL 9
REMARK VINA RESULT:      -6.6      1.188      1.772
REMARK  Name = 
REMARK  3 active torsions:
REMARK  status: ('A' for Active; 'I' for Inactive)
REMARK    1  A    between atoms: N_2  and  C_4
REMARK    2  A    between atoms: C_7  and  C_8
REMARK    3  A    between atoms: C_8  and  O_9
REMARK                            x       y       z     vdW  Elec       q    Type
REMARK                         _______ _______ _______ _____ _____    ______ ____
ROOT
ATOM      1  C   UNL     1       2.546   3.925  18.517  0.00  0.00    +0.000 C 
ATOM      2  C   UNL     1       3.214   3.877  17.119  0.00  0.00    +0.000 C 
ATOM      3  N   UNL     1       4.512   4.565  17.206  0.00  0.00    +0.000 NA
ATOM      4  C   UNL     1       5.142   4.722  15.884  0.00  0.00    +0.000 C 
ATOM      5  C   UNL     1       6.398   5.588  16.023  0.00  0.00    +0.000 C 
ATOM      6  C   UNL     1       7.375   4.923  16.997  0.00  0.00    +0.000 C 
ATOM      7  C   UNL     1       6.691   4.708  18.351  0.00  0.00    +0.000 C 
ATOM      8  C   UNL     1       5.394   3.889  18.176  0.00  0.00    +0.000 C 
ATOM      9  C   UNL     1       4.674   3.778  19.538  0.00  0.00    +0.000 C 
ATOM     10  O   UNL     1       3.383   3.197  19.418  0.00  0.00    +0.000 OA
ENDROOT
BRANCH   1  14
ATOM     11  C   UNL     1       1.693   7.997  19.887  0.00  0.00    +0.000 A 
ATOM     12  C   UNL     1       2.184   7.755  18.589  0.00  0.00    +0.000 A 
ATOM     13  C   UNL     1       2.487   6.452  18.172  0.00  0.00    +0.000 A 
ATOM     14  C   UNL     1       2.304   5.360  19.039  0.00  0.00    +0.000 A 
ATOM     15  C   UNL     1       1.856   5.626  20.355  0.00  0.00    +0.000 A 
ATOM     16  C   UNL     1       1.552   6.919  20.766  0.00  0.00    +0.000 A 
BRANCH  11  18
ATOM     17  O   UNL     1       1.056  10.150  19.499  0.00  0.00    +0.000 OA
ATOM     18  N   UNL     1       1.322   9.311  20.305  0.00  0.00    +0.000 N 
ATOM     19  O   UNL     1       1.204   9.594  21.586  0.00  0.00    +0.000 OA
ENDBRANCH  11  18
ENDBRANCH   1  14
BRANCH   1  20
ATOM     20  O   UNL     1       1.314   3.249  18.458  0.00  0.00    +0.000 OA
ATOM     21  H   UNL     1       1.270   2.766  17.592  0.00  0.00    +0.000 HD
ENDBRANCH   1  20
TORSDOF 3
ENDMDL
