MODEL 1
REMARK VINA RESULT:      -6.3      0.000      0.000
REMARK  Name = 
REMARK  12 active torsions:
REMARK  status: ('A' for Active; 'I' for Inactive)
REMARK    1  A    between atoms: C_1  and  C_2
REMARK    2  A    between atoms: C_2  and  N_3
REMARK    3  A    between atoms: C_4  and  C_6
REMARK    4  A    between atoms: C_8  and  N_9
REMARK    5  A    between atoms: N_14  and  C_15
REMARK    6  A    between atoms: C_15  and  C_16
REMARK    7  A    between atoms: C_18  and  C_19
REMARK    8  A    between atoms: C_20  and  C_21
REMARK    9  A    between atoms: C_21  and  C_22
REMARK   10  A    between atoms: C_21  and  O_23
REMARK   11  A    between atoms: C_26  and  O_27
REMARK   12  A    between atoms: C_28  and  O_29
REMARK                            x       y       z     vdW  Elec       q    Type
REMARK                         _______ _______ _______ _____ _____    ______ ____
ROOT
ATOM      1  N   UNL     1       1.398   8.817  20.206  0.00  0.00    +0.000 N 
ATOM      2  C   UNL     1       0.628   8.413  21.271  0.00  0.00    +0.000 A 
ATOM      3  N   UNL     1       0.706   7.120  21.482  0.00  0.00    +0.000 NA
ATOM      4  C   UNL     1       1.566   6.660  20.508  0.00  0.00    +0.000 A 
ATOM      5  C   UNL     1       2.017   5.355  20.226  0.00  0.00    +0.000 A 
ATOM      6  N   UNL     1       1.521   4.269  20.959  0.00  0.00    +0.000 N 
ATOM      7  N   UNL     1       2.890   5.197  19.206  0.00  0.00    +0.000 NA
ATOM      8  C   UNL     1       3.262   6.287  18.498  0.00  0.00    +0.000 A 
ATOM      9  N   UNL     1       2.877   7.586  18.663  0.00  0.00    +0.000 NA
ATOM     10  C   UNL     1       2.025   7.699  19.706  0.00  0.00    +0.000 A 
ATOM     11  H   UNL     1       1.051   4.608  21.800  0.00  0.00    +0.000 HD
ENDROOT
BRANCH   1  14
ATOM     12  C   UNL     1       0.201  12.153  19.973  0.00  0.00    +0.000 C 
ATOM     13  O   UNL     1       0.751  11.032  20.696  0.00  0.00    +0.000 OA
ATOM     14  C   UNL     1       1.429  10.192  19.752  0.00  0.00    +0.000 C 
ATOM     15  C   UNL     1       0.835  10.463  18.376  0.00  0.00    +0.000 C 
ATOM     16  C   UNL     1       0.462  11.939  18.482  0.00  0.00    +0.000 C 
BRANCH  12  18
ATOM     17  N   UNL     1      -1.618  12.344  21.560  0.00  0.00    +0.000 N 
ATOM     18  C   UNL     1      -1.294  12.277  20.227  0.00  0.00    +0.000 C 
ATOM     19  O   UNL     1      -2.117  12.248  19.318  0.00  0.00    +0.000 OA
ATOM     20  H   UNL     1      -0.869  12.569  22.215  0.00  0.00    +0.000 HD
BRANCH  17  22
ATOM     21  C   UNL     1      -3.130  12.281  23.453  0.00  0.00    +0.000 C 
ATOM     22  C   UNL     1      -2.956  12.644  21.992  0.00  0.00    +0.000 C 
ENDBRANCH  17  22
ENDBRANCH  12  18
BRANCH  15  23
ATOM     23  O   UNL     1       1.792  10.254  17.334  0.00  0.00    +0.000 OA
ATOM     24  H   UNL     1       2.616  10.698  17.637  0.00  0.00    +0.000 HD
ENDBRANCH  15  23
BRANCH  16  25
ATOM     25  O   UNL     1       1.585  12.703  17.990  0.00  0.00    +0.000 OA
ATOM     26  H   UNL     1       2.335  12.627  18.606  0.00  0.00    +0.000 HD
ENDBRANCH  16  25
ENDBRANCH   1  14
BRANCH   6  27
ATOM     27  C   UNL     1       2.424   3.151  21.152  0.00  0.00    +0.000 C 
ATOM     28  C   UNL     1       2.137   2.079  20.109  0.00  0.00    +0.000 C 
ENDBRANCH   6  27
BRANCH   8  29
ATOM     29  C   UNL     1       4.125   6.018  17.382  0.00  0.00    +0.000 C 
ATOM     30  C   UNL     1       4.839   5.776  16.436  0.00  0.00    +0.000 C 
BRANCH  30  31
ATOM     31  C   UNL     1       5.690   5.496  15.273  0.00  0.00    +0.000 C 
ATOM     32  C   UNL     1       7.107   5.097  15.665  0.00  0.00    +0.000 C 
BRANCH  31  33
ATOM     33  O   UNL     1       5.121   4.429  14.518  0.00  0.00    +0.000 OA
ATOM     34  H   UNL     1       4.837   4.802  13.666  0.00  0.00    +0.000 HD
ENDBRANCH  31  33
ENDBRANCH  30  31
ENDBRANCH   8  29
TORSDOF 9
ENDMDL
MODEL 2
REMARK VINA RESULT:      -6.3      2.188      2.794
REMARK  Name = 
REMARK  12 active torsions:
REMARK  status: ('A' for Active; 'I' for Inactive)
REMARK    1  A    between atoms: C_1  and  C_2
REMARK    2  A    between atoms: C_2  and  N_3
REMARK    3  A    between atoms: C_4  and  C_6
REMARK    4  A    between atoms: C_8  and  N_9
REMARK    5  A    between atoms: N_14  and  C_15
REMARK    6  A    between atoms: C_15  and  C_16
REMARK    7  A    between atoms: C_18  and  C_19
REMARK    8  A    between atoms: C_20  and  C_21
REMARK    9  A    between atoms: C_21  and  C_22
REMARK   10  A    between atoms: C_21  and  O_23
REMARK   11  A    between atoms: C_26  and  O_27
REMARK   12  A    between atoms: C_28  and  O_29
REMARK                            x       y       z     vdW  Elec       q    Type
REMARK                         _______ _______ _______ _____ _____    ______ ____
ROOT
ATOM      1  N   UNL     1       2.381   6.887  19.476  0.00  0.00    +0.000 N 
ATOM      2  C   UNL     1       1.672   6.356  20.528  0.00  0.00    +0.000 A 
ATOM      3  N   UNL     1       1.810   5.054  20.617  0.00  0.00    +0.000 NA
ATOM      4  C   UNL     1       2.646   4.721  19.573  0.00  0.00    +0.000 A 
ATOM      5  C   UNL     1       3.135   3.466  19.156  0.00  0.00    +0.000 A 
ATOM      6  N   UNL     1       2.712   2.299  19.805  0.00  0.00    +0.000 N 
ATOM      7  N   UNL     1       3.971   3.438  18.094  0.00  0.00    +0.000 NA
ATOM      8  C   UNL     1       4.271   4.602  17.475  0.00  0.00    +0.000 A 
ATOM      9  N   UNL     1       3.842   5.863  17.773  0.00  0.00    +0.000 NA
ATOM     10  C   UNL     1       3.030   5.846  18.853  0.00  0.00    +0.000 A 
ATOM     11  H   UNL     1       2.265   2.540  20.691  0.00  0.00    +0.000 HD
ENDROOT
BRANCH   1  14
ATOM     12  C   UNL     1       0.936  10.131  19.413  0.00  0.00    +0.000 C 
ATOM     13  O   UNL     1       1.507   8.991  20.089  0.00  0.00    +0.000 OA
ATOM     14  C   UNL     1       2.339   8.297  19.149  0.00  0.00    +0.000 C 
ATOM     15  C   UNL     1       1.858   8.652  17.749  0.00  0.00    +0.000 C 
ATOM     16  C   UNL     1       1.354  10.079  17.944  0.00  0.00    +0.000 C 
BRANCH  12  18
ATOM     17  N   UNL     1      -1.214  10.631  18.418  0.00  0.00    +0.000 N 
ATOM     18  C   UNL     1      -0.581  10.117  19.523  0.00  0.00    +0.000 C 
ATOM     19  O   UNL     1      -1.161   9.743  20.538  0.00  0.00    +0.000 OA
ATOM     20  H   UNL     1      -0.667  10.717  17.561  0.00  0.00    +0.000 HD
BRANCH  17  22
ATOM     21  C   UNL     1      -2.978   9.793  16.983  0.00  0.00    +0.000 C 
ATOM     22  C   UNL     1      -2.640  10.537  18.259  0.00  0.00    +0.000 C 
ENDBRANCH  17  22
ENDBRANCH  12  18
BRANCH  15  23
ATOM     23  O   UNL     1       2.924   8.615  16.796  0.00  0.00    +0.000 OA
ATOM     24  H   UNL     1       3.740   8.441  17.317  0.00  0.00    +0.000 HD
ENDBRANCH  15  23
BRANCH  16  25
ATOM     25  O   UNL     1       2.451  10.968  17.638  0.00  0.00    +0.000 OA
ATOM     26  H   UNL     1       2.162  11.895  17.719  0.00  0.00    +0.000 HD
ENDBRANCH  16  25
ENDBRANCH   1  14
BRANCH   6  27
ATOM     27  C   UNL     1       3.666   1.207  19.861  0.00  0.00    +0.000 C 
ATOM     28  C   UNL     1       4.845   1.606  20.738  0.00  0.00    +0.000 C 
ENDBRANCH   6  27
BRANCH   8  29
ATOM     29  C   UNL     1       5.097   4.472  16.307  0.00  0.00    +0.000 C 
ATOM     30  C   UNL     1       5.807   4.374  15.333  0.00  0.00    +0.000 C 
BRANCH  30  31
ATOM     31  C   UNL     1       6.681   4.234  14.162  0.00  0.00    +0.000 C 
ATOM     32  C   UNL     1       5.933   3.748  12.927  0.00  0.00    +0.000 C 
BRANCH  31  33
ATOM     33  O   UNL     1       7.267   5.498  13.858  0.00  0.00    +0.000 OA
ATOM     34  H   UNL     1       7.426   5.516  12.900  0.00  0.00    +0.000 HD
ENDBRANCH  31  33
ENDBRANCH  30  31
ENDBRANCH   8  29
TORSDOF 9
ENDMDL
MODEL 3
REMARK VINA RESULT:      -6.3      1.059      1.223
REMARK  Name = 
REMARK  12 active torsions:
REMARK  status: ('A' for Active; 'I' for Inactive)
REMARK    1  A    between atoms: C_1  and  C_2
REMARK    2  A    between atoms: C_2  and  N_3
REMARK    3  A    between atoms: C_4  and  C_6
REMARK    4  A    between atoms: C_8  and  N_9
REMARK    5  A    between atoms: N_14  and  C_15
REMARK    6  A    between atoms: C_15  and  C_16
REMARK    7  A    between atoms: C_18  and  C_19
REMARK    8  A    between atoms: C_20  and  C_21
REMARK    9  A    between atoms: C_21  and  C_22
REMARK   10  A    between atoms: C_21  and  O_23
REMARK   11  A    between atoms: C_26  and  O_27
REMARK   12  A    between atoms: C_28  and  O_29
REMARK                            x       y       z     vdW  Elec       q    Type
REMARK                         _______ _______ _______ _____ _____    ______ ____
ROOT
ATOM      1  N   UNL     1       1.095   9.205  20.016  0.00  0.00    +0.000 N 
ATOM      2  C   UNL     1       0.357   8.843  21.117  0.00  0.00    +0.000 A 
ATOM      3  N   UNL     1       0.529   7.583  21.442  0.00  0.00    +0.000 NA
ATOM      4  C   UNL     1       1.420   7.102  20.507  0.00  0.00    +0.000 A 
ATOM      5  C   UNL     1       1.964   5.812  20.340  0.00  0.00    +0.000 A 
ATOM      6  N   UNL     1       1.548   4.763  21.170  0.00  0.00    +0.000 N 
ATOM      7  N   UNL     1       2.847   5.627  19.333  0.00  0.00    +0.000 NA
ATOM      8  C   UNL     1       3.140   6.674  18.529  0.00  0.00    +0.000 A 
ATOM      9  N   UNL     1       2.661   7.951  18.580  0.00  0.00    +0.000 NA
ATOM     10  C   UNL     1       1.803   8.095  19.613  0.00  0.00    +0.000 A 
ATOM     11  H   UNL     1       1.054   5.141  21.980  0.00  0.00    +0.000 HD
ENDROOT
BRANCH   1  14
ATOM     12  C   UNL     1       0.771  12.740  20.122  0.00  0.00    +0.000 C 
ATOM     13  O   UNL     1       1.458  11.503  20.405  0.00  0.00    +0.000 OA
ATOM     14  C   UNL     1       1.027  10.533  19.441  0.00  0.00    +0.000 C 
ATOM     15  C   UNL     1      -0.333  10.972  18.914  0.00  0.00    +0.000 C 
ATOM     16  C   UNL     1      -0.220  12.492  18.985  0.00  0.00    +0.000 C 
BRANCH  12  18
ATOM     17  N   UNL     1      -1.327  13.072  21.285  0.00  0.00    +0.000 N 
ATOM     18  C   UNL     1       0.035  13.242  21.354  0.00  0.00    +0.000 C 
ATOM     19  O   UNL     1       0.613  13.802  22.280  0.00  0.00    +0.000 OA
ATOM     20  H   UNL     1      -1.684  12.421  20.585  0.00  0.00    +0.000 HD
BRANCH  17  22
ATOM     21  C   UNL     1      -2.448  12.021  23.159  0.00  0.00    +0.000 C 
ATOM     22  C   UNL     1      -2.173  13.317  22.421  0.00  0.00    +0.000 C 
ENDBRANCH  17  22
ENDBRANCH  12  18
BRANCH  15  23
ATOM     23  O   UNL     1      -0.544  10.539  17.567  0.00  0.00    +0.000 OA
ATOM     24  H   UNL     1       0.076  11.070  17.017  0.00  0.00    +0.000 HD
ENDBRANCH  15  23
BRANCH  16  25
ATOM     25  O   UNL     1       0.265  12.947  17.703  0.00  0.00    +0.000 OA
ATOM     26  H   UNL     1       0.699  12.215  17.231  0.00  0.00    +0.000 HD
ENDBRANCH  16  25
ENDBRANCH   1  14
BRANCH   6  27
ATOM     27  C   UNL     1       2.530   3.735  21.456  0.00  0.00    +0.000 C 
ATOM     28  C   UNL     1       1.827   2.396  21.639  0.00  0.00    +0.000 C 
ENDBRANCH   6  27
BRANCH   8  29
ATOM     29  C   UNL     1       4.020   6.370  17.435  0.00  0.00    +0.000 C 
ATOM     30  C   UNL     1       4.778   6.116  16.528  0.00  0.00    +0.000 C 
BRANCH  30  31
ATOM     31  C   UNL     1       5.698   5.782  15.433  0.00  0.00    +0.000 C 
ATOM     32  C   UNL     1       7.054   5.303  15.933  0.00  0.00    +0.000 C 
BRANCH  31  33
ATOM     33  O   UNL     1       5.126   4.746  14.637  0.00  0.00    +0.000 OA
ATOM     34  H   UNL     1       4.167   4.766  14.790  0.00  0.00    +0.000 HD
ENDBRANCH  31  33
ENDBRANCH  30  31
ENDBRANCH   8  29
TORSDOF 9
ENDMDL
MODEL 4
REMARK VINA RESULT:      -6.3      5.651      9.594
REMARK  Name = 
REMARK  12 active torsions:
REMARK  status: ('A' for Active; 'I' for Inactive)
REMARK    1  A    between atoms: C_1  and  C_2
REMARK    2  A    between atoms: C_2  and  N_3
REMARK    3  A    between atoms: C_4  and  C_6
REMARK    4  A    between atoms: C_8  and  N_9
REMARK    5  A    between atoms: N_14  and  C_15
REMARK    6  A    between atoms: C_15  and  C_16
REMARK    7  A    between atoms: C_18  and  C_19
REMARK    8  A    between atoms: C_20  and  C_21
REMARK    9  A    between atoms: C_21  and  C_22
REMARK   10  A    between atoms: C_21  and  O_23
REMARK   11  A    between atoms: C_26  and  O_27
REMARK   12  A    between atoms: C_28  and  O_29
REMARK                            x       y       z     vdW  Elec       q    Type
REMARK                         _______ _______ _______ _____ _____    ______ ____
ROOT
ATOM      1  N   UNL     1      -0.436  12.971  20.764  0.00  0.00    +0.000 N 
ATOM      2  C   UNL     1       0.725  13.558  21.208  0.00  0.00    +0.000 A 
ATOM      3  N   UNL     1       0.544  14.258  22.304  0.00  0.00    +0.000 NA
ATOM      4  C   UNL     1      -0.797  14.120  22.586  0.00  0.00    +0.000 A 
ATOM      5  C   UNL     1      -1.573  14.659  23.632  0.00  0.00    +0.000 A 
ATOM      6  N   UNL     1      -0.991  15.541  24.552  0.00  0.00    +0.000 N 
ATOM      7  N   UNL     1      -2.885  14.334  23.676  0.00  0.00    +0.000 NA
ATOM      8  C   UNL     1      -3.386  13.536  22.706  0.00  0.00    +0.000 A 
ATOM      9  N   UNL     1      -2.742  12.979  21.640  0.00  0.00    +0.000 NA
ATOM     10  C   UNL     1      -1.432  13.310  21.651  0.00  0.00    +0.000 A 
ATOM     11  H   UNL     1       0.026  15.492  24.480  0.00  0.00    +0.000 HD
ENDROOT
BRANCH   1  14
ATOM     12  C   UNL     1      -2.028  11.574  17.913  0.00  0.00    +0.000 C 
ATOM     13  O   UNL     1      -1.547  12.681  18.703  0.00  0.00    +0.000 OA
ATOM     14  C   UNL     1      -0.492  12.194  19.543  0.00  0.00    +0.000 C 
ATOM     15  C   UNL     1      -0.681  10.692  19.707  0.00  0.00    +0.000 C 
ATOM     16  C   UNL     1      -1.301  10.307  18.366  0.00  0.00    +0.000 C 
BRANCH  12  18
ATOM     17  N   UNL     1      -4.068  12.219  19.048  0.00  0.00    +0.000 N 
ATOM     18  C   UNL     1      -3.529  11.401  18.085  0.00  0.00    +0.000 C 
ATOM     19  O   UNL     1      -4.167  10.559  17.461  0.00  0.00    +0.000 OA
ATOM     20  H   UNL     1      -3.507  13.015  19.355  0.00  0.00    +0.000 HD
BRANCH  17  22
ATOM     21  C   UNL     1      -5.912  13.786  19.183  0.00  0.00    +0.000 C 
ATOM     22  C   UNL     1      -5.489  12.331  19.229  0.00  0.00    +0.000 C 
ENDBRANCH  17  22
ENDBRANCH  12  18
BRANCH  15  23
ATOM     23  O   UNL     1       0.565  10.018  19.903  0.00  0.00    +0.000 OA
ATOM     24  H   UNL     1       0.366   9.261  20.499  0.00  0.00    +0.000 HD
ENDBRANCH  15  23
BRANCH  16  25
ATOM     25  O   UNL     1      -0.220   9.931  17.485  0.00  0.00    +0.000 OA
ATOM     26  H   UNL     1      -0.070   8.970  17.533  0.00  0.00    +0.000 HD
ENDBRANCH  16  25
ENDBRANCH   1  14
BRANCH   6  27
ATOM     27  C   UNL     1      -1.527  15.518  25.900  0.00  0.00    +0.000 C 
ATOM     28  C   UNL     1      -0.469  16.014  26.877  0.00  0.00    +0.000 C 
ENDBRANCH   6  27
BRANCH   8  29
ATOM     29  C   UNL     1      -4.802  13.310  22.781  0.00  0.00    +0.000 C 
ATOM     30  C   UNL     1      -5.996  13.134  22.859  0.00  0.00    +0.000 C 
BRANCH  30  31
ATOM     31  C   UNL     1      -7.450  12.940  22.935  0.00  0.00    +0.000 C 
ATOM     32  C   UNL     1      -7.914  11.692  22.196  0.00  0.00    +0.000 C 
BRANCH  31  33
ATOM     33  O   UNL     1      -7.837  12.818  24.302  0.00  0.00    +0.000 OA
ATOM     34  H   UNL     1      -8.108  11.895  24.440  0.00  0.00    +0.000 HD
ENDBRANCH  31  33
ENDBRANCH  30  31
ENDBRANCH   8  29
TORSDOF 9
ENDMDL
MODEL 5
REMARK VINA RESULT:      -6.2      1.228      1.572
REMARK  Name = 
REMARK  12 active torsions:
REMARK  status: ('A' for Active; 'I' for Inactive)
REMARK    1  A    between atoms: C_1  and  C_2
REMARK    2  A    between atoms: C_2  and  N_3
REMARK    3  A    between atoms: C_4  and  C_6
REMARK    4  A    between atoms: C_8  and  N_9
REMARK    5  A    between atoms: N_14  and  C_15
REMARK    6  A    between atoms: C_15  and  C_16
REMARK    7  A    between atoms: C_18  and  C_19
REMARK    8  A    between atoms: C_20  and  C_21
REMARK    9  A    between atoms: C_21  and  C_22
REMARK   10  A    between atoms: C_21  and  O_23
REMARK   11  A    between atoms: C_26  and  O_27
REMARK   12  A    between atoms: C_28  and  O_29
REMARK                            x       y       z     vdW  Elec       q    Type
REMARK                         _______ _______ _______ _____ _____    ______ ____
ROOT
ATOM      1  N   UNL     1       1.168   9.024  20.269  0.00  0.00    +0.000 N 
ATOM      2  C   UNL     1       0.410   8.624  21.344  0.00  0.00    +0.000 A 
ATOM      3  N   UNL     1       0.542   7.343  21.600  0.00  0.00    +0.000 NA
ATOM      4  C   UNL     1       1.426   6.888  20.648  0.00  0.00    +0.000 A 
ATOM      5  C   UNL     1       1.934   5.594  20.414  0.00  0.00    +0.000 A 
ATOM      6  N   UNL     1       1.480   4.514  21.182  0.00  0.00    +0.000 N 
ATOM      7  N   UNL     1       2.820   5.438  19.404  0.00  0.00    +0.000 NA
ATOM      8  C   UNL     1       3.151   6.518  18.661  0.00  0.00    +0.000 A 
ATOM      9  N   UNL     1       2.709   7.804  18.778  0.00  0.00    +0.000 NA
ATOM     10  C   UNL     1       1.846   7.917  19.812  0.00  0.00    +0.000 A 
ATOM     11  H   UNL     1       0.991   4.861  22.009  0.00  0.00    +0.000 HD
ENDROOT
BRANCH   1  14
ATOM     12  C   UNL     1      -0.259  12.235  19.756  0.00  0.00    +0.000 C 
ATOM     13  O   UNL     1       0.285  11.188  20.586  0.00  0.00    +0.000 OA
ATOM     14  C   UNL     1       1.143  10.382  19.768  0.00  0.00    +0.000 C 
ATOM     15  C   UNL     1       0.708  10.560  18.320  0.00  0.00    +0.000 C 
ATOM     16  C   UNL     1       0.205  12.000  18.319  0.00  0.00    +0.000 C 
BRANCH  12  18
ATOM     17  N   UNL     1      -2.377  12.025  18.600  0.00  0.00    +0.000 N 
ATOM     18  C   UNL     1      -1.779  12.236  19.818  0.00  0.00    +0.000 C 
ATOM     19  O   UNL     1      -2.392  12.473  20.855  0.00  0.00    +0.000 OA
ATOM     20  H   UNL     1      -1.799  11.637  17.854  0.00  0.00    +0.000 HD
BRANCH  17  22
ATOM     21  C   UNL     1      -4.166  11.511  17.048  0.00  0.00    +0.000 C 
ATOM     22  C   UNL     1      -3.794  11.813  18.486  0.00  0.00    +0.000 C 
ENDBRANCH  17  22
ENDBRANCH  12  18
BRANCH  15  23
ATOM     23  O   UNL     1       1.803  10.403  17.413  0.00  0.00    +0.000 OA
ATOM     24  H   UNL     1       1.775  11.190  16.824  0.00  0.00    +0.000 HD
ENDBRANCH  15  23
BRANCH  16  25
ATOM     25  O   UNL     1       1.314  12.843  17.939  0.00  0.00    +0.000 OA
ATOM     26  H   UNL     1       1.035  13.776  17.925  0.00  0.00    +0.000 HD
ENDBRANCH  16  25
ENDBRANCH   1  14
BRANCH   6  27
ATOM     27  C   UNL     1       2.429   3.443  21.419  0.00  0.00    +0.000 C 
ATOM     28  C   UNL     1       1.964   2.183  20.702  0.00  0.00    +0.000 C 
ENDBRANCH   6  27
BRANCH   8  29
ATOM     29  C   UNL     1       4.031   6.248  17.559  0.00  0.00    +0.000 C 
ATOM     30  C   UNL     1       4.756   6.022  16.618  0.00  0.00    +0.000 C 
BRANCH  30  31
ATOM     31  C   UNL     1       5.640   5.774  15.472  0.00  0.00    +0.000 C 
ATOM     32  C   UNL     1       7.058   5.411  15.893  0.00  0.00    +0.000 C 
BRANCH  31  33
ATOM     33  O   UNL     1       5.117   4.696  14.698  0.00  0.00    +0.000 OA
ATOM     34  H   UNL     1       4.857   3.997  15.321  0.00  0.00    +0.000 HD
ENDBRANCH  31  33
ENDBRANCH  30  31
ENDBRANCH   8  29
TORSDOF 9
ENDMDL
MODEL 6
REMARK VINA RESULT:      -6.2      4.362      7.141
REMARK  Name = 
REMARK  12 active torsions:
REMARK  status: ('A' for Active; 'I' for Inactive)
REMARK    1  A    between atoms: C_1  and  C_2
REMARK    2  A    between atoms: C_2  and  N_3
REMARK    3  A    between atoms: C_4  and  C_6
REMARK    4  A    between atoms: C_8  and  N_9
REMARK    5  A    between atoms: N_14  and  C_15
REMARK    6  A    between atoms: C_15  and  C_16
REMARK    7  A    between atoms: C_18  and  C_19
REMARK    8  A    between atoms: C_20  and  C_21
REMARK    9  A    between atoms: C_21  and  C_22
REMARK   10  A    between atoms: C_21  and  O_23
REMARK   11  A    between atoms: C_26  and  O_27
REMARK   12  A    between atoms: C_28  and  O_29
REMARK                            x       y       z     vdW  Elec       q    Type
REMARK                         _______ _______ _______ _____ _____    ______ ____
ROOT
ATOM      1  N   UNL     1      -3.204  12.395  19.896  0.00  0.00    +0.000 N 
ATOM      2  C   UNL     1      -2.327  12.398  20.955  0.00  0.00    +0.000 A 
ATOM      3  N   UNL     1      -1.229  11.728  20.696  0.00  0.00    +0.000 NA
ATOM      4  C   UNL     1      -1.399  11.265  19.409  0.00  0.00    +0.000 A 
ATOM      5  C   UNL     1      -0.557  10.473  18.602  0.00  0.00    +0.000 A 
ATOM      6  N   UNL     1       0.643   9.971  19.122  0.00  0.00    +0.000 N 
ATOM      7  N   UNL     1      -0.976  10.184  17.350  0.00  0.00    +0.000 NA
ATOM      8  C   UNL     1      -2.183  10.644  16.948  0.00  0.00    +0.000 A 
ATOM      9  N   UNL     1      -3.086  11.394  17.645  0.00  0.00    +0.000 NA
ATOM     10  C   UNL     1      -2.616  11.678  18.879  0.00  0.00    +0.000 A 
ATOM     11  H   UNL     1       0.876  10.464  19.986  0.00  0.00    +0.000 HD
ENDROOT
BRANCH   1  14
ATOM     12  C   UNL     1      -5.681  14.498  21.328  0.00  0.00    +0.000 C 
ATOM     13  O   UNL     1      -4.409  14.260  20.691  0.00  0.00    +0.000 OA
ATOM     14  C   UNL     1      -4.506  13.026  19.968  0.00  0.00    +0.000 C 
ATOM     15  C   UNL     1      -5.621  12.203  20.598  0.00  0.00    +0.000 C 
ATOM     16  C   UNL     1      -6.581  13.290  21.073  0.00  0.00    +0.000 C 
BRANCH  12  18
ATOM     17  N   UNL     1      -4.459  15.543  23.140  0.00  0.00    +0.000 N 
ATOM     18  C   UNL     1      -5.503  14.708  22.824  0.00  0.00    +0.000 C 
ATOM     19  O   UNL     1      -6.193  14.124  23.654  0.00  0.00    +0.000 OA
ATOM     20  H   UNL     1      -4.087  16.132  22.394  0.00  0.00    +0.000 HD
BRANCH  17  22
ATOM     21  C   UNL     1      -3.103  15.243  25.125  0.00  0.00    +0.000 C 
ATOM     22  C   UNL     1      -4.246  16.003  24.485  0.00  0.00    +0.000 C 
ENDBRANCH  17  22
ENDBRANCH  12  18
BRANCH  15  23
ATOM     23  O   UNL     1      -6.254  11.347  19.643  0.00  0.00    +0.000 OA
ATOM     24  H   UNL     1      -6.956  10.868  20.139  0.00  0.00    +0.000 HD
ENDBRANCH  15  23
BRANCH  16  25
ATOM     25  O   UNL     1      -7.538  13.512  20.013  0.00  0.00    +0.000 OA
ATOM     26  H   UNL     1      -7.810  14.447  20.000  0.00  0.00    +0.000 HD
ENDBRANCH  16  25
ENDBRANCH   1  14
BRANCH   6  27
ATOM     27  C   UNL     1       1.734   9.800  18.183  0.00  0.00    +0.000 C 
ATOM     28  C   UNL     1       2.236   8.363  18.243  0.00  0.00    +0.000 C 
ENDBRANCH   6  27
BRANCH   8  29
ATOM     29  C   UNL     1      -2.586  10.221  15.636  0.00  0.00    +0.000 C 
ATOM     30  C   UNL     1      -2.906   9.866  14.525  0.00  0.00    +0.000 C 
BRANCH  30  31
ATOM     31  C   UNL     1      -3.289   9.409  13.184  0.00  0.00    +0.000 C 
ATOM     32  C   UNL     1      -4.494  10.159  12.631  0.00  0.00    +0.000 C 
BRANCH  31  33
ATOM     33  O   UNL     1      -2.195   9.604  12.290  0.00  0.00    +0.000 OA
ATOM     34  H   UNL     1      -1.754  10.428  12.554  0.00  0.00    +0.000 HD
ENDBRANCH  31  33
ENDBRANCH  30  31
ENDBRANCH   8  29
TORSDOF 9
ENDMDL
MODEL 7
REMARK VINA RESULT:      -6.2      4.752      9.307
REMARK  Name = 
REMARK  12 active torsions:
REMARK  status: ('A' for Active; 'I' for Inactive)
REMARK    1  A    between atoms: C_1  and  C_2
REMARK    2  A    between atoms: C_2  and  N_3
REMARK    3  A    between atoms: C_4  and  C_6
REMARK    4  A    between atoms: C_8  and  N_9
REMARK    5  A    between atoms: N_14  and  C_15
REMARK    6  A    between atoms: C_15  and  C_16
REMARK    7  A    between atoms: C_18  and  C_19
REMARK    8  A    between atoms: C_20  and  C_21
REMARK    9  A    between atoms: C_21  and  C_22
REMARK   10  A    between atoms: C_21  and  O_23
REMARK   11  A    between atoms: C_26  and  O_27
REMARK   12  A    between atoms: C_28  and  O_29
REMARK                            x       y       z     vdW  Elec       q    Type
REMARK                         _______ _______ _______ _____ _____    ______ ____
ROOT
ATOM      1  N   UNL     1      -2.263  11.220  17.536  0.00  0.00    +0.000 N 
ATOM      2  C   UNL     1      -2.746  11.028  16.263  0.00  0.00    +0.000 A 
ATOM      3  N   UNL     1      -4.011  11.359  16.154  0.00  0.00    +0.000 NA
ATOM      4  C   UNL     1      -4.369  11.786  17.414  0.00  0.00    +0.000 A 
ATOM      5  C   UNL     1      -5.606  12.247  17.907  0.00  0.00    +0.000 A 
ATOM      6  N   UNL     1      -6.734  12.253  17.075  0.00  0.00    +0.000 N 
ATOM      7  N   UNL     1      -5.665  12.627  19.204  0.00  0.00    +0.000 NA
ATOM      8  C   UNL     1      -4.550  12.520  19.960  0.00  0.00    +0.000 A 
ATOM      9  N   UNL     1      -3.313  12.069  19.601  0.00  0.00    +0.000 NA
ATOM     10  C   UNL     1      -3.295  11.725  18.294  0.00  0.00    +0.000 A 
ATOM     11  H   UNL     1      -6.444  12.137  16.103  0.00  0.00    +0.000 HD
ENDROOT
BRANCH   1  14
ATOM     12  C   UNL     1       0.226   9.720  19.578  0.00  0.00    +0.000 C 
ATOM     13  O   UNL     1      -0.907   9.670  18.687  0.00  0.00    +0.000 OA
ATOM     14  C   UNL     1      -0.906  10.875  17.909  0.00  0.00    +0.000 C 
ATOM     15  C   UNL     1      -0.130  11.930  18.686  0.00  0.00    +0.000 C 
ATOM     16  C   UNL     1       0.904  11.080  19.418  0.00  0.00    +0.000 C 
BRANCH  12  18
ATOM     17  N   UNL     1      -0.198  10.683  21.760  0.00  0.00    +0.000 N 
ATOM     18  C   UNL     1      -0.215   9.525  21.021  0.00  0.00    +0.000 C 
ATOM     19  O   UNL     1      -0.489   8.420  21.478  0.00  0.00    +0.000 OA
ATOM     20  H   UNL     1      -0.161  11.565  21.249  0.00  0.00    +0.000 HD
BRANCH  17  22
ATOM     21  C   UNL     1      -1.553  12.007  23.271  0.00  0.00    +0.000 C 
ATOM     22  C   UNL     1      -0.751  10.735  23.086  0.00  0.00    +0.000 C 
ENDBRANCH  17  22
ENDBRANCH  12  18
BRANCH  15  23
ATOM     23  O   UNL     1       0.507  12.868  17.814  0.00  0.00    +0.000 OA
ATOM     24  H   UNL     1       0.880  13.564  18.401  0.00  0.00    +0.000 HD
ENDBRANCH  15  23
BRANCH  16  25
ATOM     25  O   UNL     1       2.085  11.029  18.587  0.00  0.00    +0.000 OA
ATOM     26  H   UNL     1       2.820  11.496  19.022  0.00  0.00    +0.000 HD
ENDBRANCH  16  25
ENDBRANCH   1  14
BRANCH   6  27
ATOM     27  C   UNL     1      -7.713  13.295  17.319  0.00  0.00    +0.000 C 
ATOM     28  C   UNL     1      -7.420  14.490  16.421  0.00  0.00    +0.000 C 
ENDBRANCH   6  27
BRANCH   8  29
ATOM     29  C   UNL     1      -4.722  12.864  21.344  0.00  0.00    +0.000 C 
ATOM     30  C   UNL     1      -4.846  13.157  22.511  0.00  0.00    +0.000 C 
BRANCH  30  31
ATOM     31  C   UNL     1      -4.998  13.539  23.921  0.00  0.00    +0.000 C 
ATOM     32  C   UNL     1      -4.821  12.360  24.869  0.00  0.00    +0.000 C 
BRANCH  31  33
ATOM     33  O   UNL     1      -4.021  14.524  24.250  0.00  0.00    +0.000 OA
ATOM     34  H   UNL     1      -3.152  14.150  24.029  0.00  0.00    +0.000 HD
ENDBRANCH  31  33
ENDBRANCH  30  31
ENDBRANCH   8  29
TORSDOF 9
ENDMDL
MODEL 8
REMARK VINA RESULT:      -6.2      6.958      9.003
REMARK  Name = 
REMARK  12 active torsions:
REMARK  status: ('A' for Active; 'I' for Inactive)
REMARK    1  A    between atoms: C_1  and  C_2
REMARK    2  A    between atoms: C_2  and  N_3
REMARK    3  A    between atoms: C_4  and  C_6
REMARK    4  A    between atoms: C_8  and  N_9
REMARK    5  A    between atoms: N_14  and  C_15
REMARK    6  A    between atoms: C_15  and  C_16
REMARK    7  A    between atoms: C_18  and  C_19
REMARK    8  A    between atoms: C_20  and  C_21
REMARK    9  A    between atoms: C_21  and  C_22
REMARK   10  A    between atoms: C_21  and  O_23
REMARK   11  A    between atoms: C_26  and  O_27
REMARK   12  A    between atoms: C_28  and  O_29
REMARK                            x       y       z     vdW  Elec       q    Type
REMARK                         _______ _______ _______ _____ _____    ______ ____
ROOT
ATOM      1  N   UNL     1      -6.475  12.499  20.294  0.00  0.00    +0.000 N 
ATOM      2  C   UNL     1      -7.358  12.066  19.333  0.00  0.00    +0.000 A 
ATOM      3  N   UNL     1      -6.749  11.609  18.264  0.00  0.00    +0.000 NA
ATOM      4  C   UNL     1      -5.407  11.751  18.541  0.00  0.00    +0.000 A 
ATOM      5  C   UNL     1      -4.274  11.446  17.761  0.00  0.00    +0.000 A 
ATOM      6  N   UNL     1      -4.431  10.973  16.452  0.00  0.00    +0.000 N 
ATOM      7  N   UNL     1      -3.056  11.673  18.303  0.00  0.00    +0.000 NA
ATOM      8  C   UNL     1      -2.990  12.201  19.546  0.00  0.00    +0.000 A 
ATOM      9  N   UNL     1      -4.011  12.557  20.379  0.00  0.00    +0.000 NA
ATOM     10  C   UNL     1      -5.205  12.290  19.807  0.00  0.00    +0.000 A 
ATOM     11  H   UNL     1      -5.397  10.674  16.308  0.00  0.00    +0.000 HD
ENDROOT
BRANCH   1  14
ATOM     12  C   UNL     1      -6.235  14.708  23.064  0.00  0.00    +0.000 C 
ATOM     13  O   UNL     1      -6.389  14.421  21.659  0.00  0.00    +0.000 OA
ATOM     14  C   UNL     1      -6.917  13.093  21.539  0.00  0.00    +0.000 C 
ATOM     15  C   UNL     1      -6.565  12.335  22.811  0.00  0.00    +0.000 C 
ATOM     16  C   UNL     1      -6.586  13.448  23.855  0.00  0.00    +0.000 C 
BRANCH  12  18
ATOM     17  N   UNL     1      -3.892  14.696  22.447  0.00  0.00    +0.000 N 
ATOM     18  C   UNL     1      -4.808  15.135  23.373  0.00  0.00    +0.000 C 
ATOM     19  O   UNL     1      -4.515  15.753  24.392  0.00  0.00    +0.000 OA
ATOM     20  H   UNL     1      -4.251  14.379  21.546  0.00  0.00    +0.000 HD
BRANCH  17  22
ATOM     21  C   UNL     1      -2.236  15.994  21.246  0.00  0.00    +0.000 C 
ATOM     22  C   UNL     1      -2.528  15.147  22.469  0.00  0.00    +0.000 C 
ENDBRANCH  17  22
ENDBRANCH  12  18
BRANCH  15  23
ATOM     23  O   UNL     1      -7.537  11.332  23.117  0.00  0.00    +0.000 OA
ATOM     24  H   UNL     1      -7.034  10.491  23.205  0.00  0.00    +0.000 HD
ENDBRANCH  15  23
BRANCH  16  25
ATOM     25  O   UNL     1      -7.917  13.486  24.416  0.00  0.00    +0.000 OA
ATOM     26  H   UNL     1      -7.958  14.145  25.132  0.00  0.00    +0.000 HD
ENDBRANCH  16  25
ENDBRANCH   1  14
BRANCH   6  27
ATOM     27  C   UNL     1      -3.413  10.063  15.964  0.00  0.00    +0.000 C 
ATOM     28  C   UNL     1      -3.143  10.342  14.492  0.00  0.00    +0.000 C 
ENDBRANCH   6  27
BRANCH   8  29
ATOM     29  C   UNL     1      -1.662  12.488  20.012  0.00  0.00    +0.000 C 
ATOM     30  C   UNL     1      -0.549  12.750  20.405  0.00  0.00    +0.000 C 
BRANCH  30  31
ATOM     31  C   UNL     1       0.794  13.067  20.908  0.00  0.00    +0.000 C 
ATOM     32  C   UNL     1       1.575  13.973  19.965  0.00  0.00    +0.000 C 
BRANCH  31  33
ATOM     33  O   UNL     1       0.682  13.727  22.167  0.00  0.00    +0.000 OA
ATOM     34  H   UNL     1       1.389  13.378  22.736  0.00  0.00    +0.000 HD
ENDBRANCH  31  33
ENDBRANCH  30  31
ENDBRANCH   8  29
TORSDOF 9
ENDMDL
MODEL 9
REMARK VINA RESULT:      -6.1      3.938      6.409
REMARK  Name = 
REMARK  12 active torsions:
REMARK  status: ('A' for Active; 'I' for Inactive)
REMARK    1  A    between atoms: C_1  and  C_2
REMARK    2  A    between atoms: C_2  and  N_3
REMARK    3  A    between atoms: C_4  and  C_6
REMARK    4  A    between atoms: C_8  and  N_9
REMARK    5  A    between atoms: N_14  and  C_15
REMARK    6  A    between atoms: C_15  and  C_16
REMARK    7  A    between atoms: C_18  and  C_19
REMARK    8  A    between atoms: C_20  and  C_21
REMARK    9  A    between atoms: C_21  and  C_22
REMARK   10  A    between atoms: C_21  and  O_23
REMARK   11  A    between atoms: C_26  and  O_27
REMARK   12  A    between atoms: C_28  and  O_29
REMARK                            x       y       z     vdW  Elec       q    Type
REMARK                         _______ _______ _______ _____ _____    ______ ____
ROOT
ATOM      1  N   UNL     1      -1.346  12.096  21.257  0.00  0.00    +0.000 N 
ATOM      2  C   UNL     1      -0.329  11.708  22.097  0.00  0.00    +0.000 A 
ATOM      3  N   UNL     1       0.480  10.841  21.535  0.00  0.00    +0.000 NA
ATOM      4  C   UNL     1      -0.034  10.654  20.270  0.00  0.00    +0.000 A 
ATOM      5  C   UNL     1       0.402   9.825  19.217  0.00  0.00    +0.000 A 
ATOM      6  N   UNL     1       1.491   8.965  19.409  0.00  0.00    +0.000 N 
ATOM      7  N   UNL     1      -0.295   9.859  18.059  0.00  0.00    +0.000 NA
ATOM      8  C   UNL     1      -1.380  10.662  17.980  0.00  0.00    +0.000 A 
ATOM      9  N   UNL     1      -1.906  11.484  18.934  0.00  0.00    +0.000 NA
ATOM     10  C   UNL     1      -1.166  11.436  20.063  0.00  0.00    +0.000 A 
ATOM     11  H   UNL     1       1.999   9.235  20.252  0.00  0.00    +0.000 HD
ENDROOT
BRANCH   1  14
ATOM     12  C   UNL     1      -4.695  13.254  21.495  0.00  0.00    +0.000 C 
ATOM     13  O   UNL     1      -3.641  12.307  21.764  0.00  0.00    +0.000 OA
ATOM     14  C   UNL     1      -2.392  13.006  21.677  0.00  0.00    +0.000 C 
ATOM     15  C   UNL     1      -2.606  14.236  20.806  0.00  0.00    +0.000 C 
ATOM     16  C   UNL     1      -4.057  14.591  21.116  0.00  0.00    +0.000 C 
BRANCH  12  18
ATOM     17  N   UNL     1      -4.899  12.098  19.377  0.00  0.00    +0.000 N 
ATOM     18  C   UNL     1      -5.585  12.763  20.364  0.00  0.00    +0.000 C 
ATOM     19  O   UNL     1      -6.787  13.008  20.323  0.00  0.00    +0.000 OA
ATOM     20  H   UNL     1      -3.959  11.768  19.599  0.00  0.00    +0.000 HD
BRANCH  17  22
ATOM     21  C   UNL     1      -5.641  12.270  17.076  0.00  0.00    +0.000 C 
ATOM     22  C   UNL     1      -5.586  11.406  18.321  0.00  0.00    +0.000 C 
ENDBRANCH  17  22
ENDBRANCH  12  18
BRANCH  15  23
ATOM     23  O   UNL     1      -1.731  15.306  21.175  0.00  0.00    +0.000 OA
ATOM     24  H   UNL     1      -1.971  15.539  22.100  0.00  0.00    +0.000 HD
ENDBRANCH  15  23
BRANCH  16  25
ATOM     25  O   UNL     1      -4.045  15.539  22.205  0.00  0.00    +0.000 OA
ATOM     26  H   UNL     1      -3.627  16.371  21.919  0.00  0.00    +0.000 HD
ENDBRANCH  16  25
ENDBRANCH   1  14
BRANCH   6  27
ATOM     27  C   UNL     1       2.310   8.688  18.244  0.00  0.00    +0.000 C 
ATOM     28  C   UNL     1       2.642   7.202  18.196  0.00  0.00    +0.000 C 
ENDBRANCH   6  27
BRANCH   8  29
ATOM     29  C   UNL     1      -2.109  10.574  16.745  0.00  0.00    +0.000 C 
ATOM     30  C   UNL     1      -2.707  10.511  15.696  0.00  0.00    +0.000 C 
BRANCH  30  31
ATOM     31  C   UNL     1      -3.420  10.411  14.417  0.00  0.00    +0.000 C 
ATOM     32  C   UNL     1      -2.675   9.560  13.396  0.00  0.00    +0.000 C 
BRANCH  31  33
ATOM     33  O   UNL     1      -4.700   9.822  14.636  0.00  0.00    +0.000 OA
ATOM     34  H   UNL     1      -5.365  10.469  14.346  0.00  0.00    +0.000 HD
ENDBRANCH  31  33
ENDBRANCH  30  31
ENDBRANCH   8  29
TORSDOF 9
ENDMDL
