MODEL 1
REMARK VINA RESULT:      -7.6      0.000      0.000
REMARK  Name = 
REMARK  11 active torsions:
REMARK  status: ('A' for Active; 'I' for Inactive)
REMARK    1  A    between atoms: C_1  and  C_2
REMARK    2  A    between atoms: C_2  and  C_3
REMARK    3  A    between atoms: C_3  and  C_4
REMARK    4  A    between atoms: C_4  and  O_5
REMARK    5  A    between atoms: O_5  and  C_6
REMARK    6  A    between atoms: C_10  and  C_11
REMARK    7  A    between atoms: N_13  and  C_14
REMARK    8  A    between atoms: N_13  and  C_20
REMARK    9  A    between atoms: C_14  and  C_15
REMARK   10  A    between atoms: C_23  and  O_24
REMARK   11  A    between atoms: O_24  and  C_25
REMARK                            x       y       z     vdW  Elec       q    Type
REMARK                         _______ _______ _______ _____ _____    ______ ____
ROOT
ATOM      1  C   UNL     1       2.592   8.114  17.823  0.00  0.00    +0.000 C 
ATOM      2  O   UNL     1       2.885   8.770  16.818  0.00  0.00    +0.000 OA
ATOM      3  N   UNL     1       3.268   6.902  18.114  0.00  0.00    +0.000 N 
ENDROOT
BRANCH   1   8
ATOM      4  C   UNL     1      -0.140  10.485  18.949  0.00  0.00    +0.000 A 
ATOM      5  C   UNL     1      -0.114  10.354  20.338  0.00  0.00    +0.000 A 
ATOM      6  C   UNL     1       0.743   9.442  20.948  0.00  0.00    +0.000 A 
ATOM      7  C   UNL     1       1.648   8.710  20.173  0.00  0.00    +0.000 A 
ATOM      8  C   UNL     1       1.583   8.750  18.776  0.00  0.00    +0.000 A 
ATOM      9  C   UNL     1       0.592   9.577  18.187  0.00  0.00    +0.000 A 
BRANCH   4  10
ATOM     10  O   UNL     1      -0.816  11.589  18.514  0.00  0.00    +0.000 OA
BRANCH  10  11
ATOM     11  C   UNL     1      -2.111  11.549  17.910  0.00  0.00    +0.000 C 
BRANCH  11  12
ATOM     12  C   UNL     1      -2.349  10.474  16.826  0.00  0.00    +0.000 C 
BRANCH  12  14
ATOM     13  C   UNL     1      -3.277  10.063  14.451  0.00  0.00    +0.000 C 
ATOM     14  C   UNL     1      -3.039  11.036  15.588  0.00  0.00    +0.000 C 
ENDBRANCH  12  14
ENDBRANCH  11  12
ENDBRANCH  10  11
ENDBRANCH   4  10
ENDBRANCH   1   8
BRANCH   3  15
ATOM     15  C   UNL     1       2.619   5.806  18.755  0.00  0.00    +0.000 A 
ATOM     16  C   UNL     1       2.685   5.632  20.144  0.00  0.00    +0.000 A 
ATOM     17  C   UNL     1       2.095   4.513  20.735  0.00  0.00    +0.000 A 
ATOM     18  C   UNL     1       1.421   3.576  19.953  0.00  0.00    +0.000 A 
ATOM     19  C   UNL     1       1.361   3.744  18.568  0.00  0.00    +0.000 A 
ATOM     20  C   UNL     1       1.955   4.868  17.972  0.00  0.00    +0.000 A 
BRANCH  18  21
ATOM     21  O   UNL     1       0.896   2.507  20.624  0.00  0.00    +0.000 OA
ATOM     22  C   UNL     1       1.470   2.273  21.907  0.00  0.00    +0.000 C 
ENDBRANCH  18  21
ENDBRANCH   3  15
BRANCH   3  23
ATOM     23  C   UNL     1       4.365   6.493  17.198  0.00  0.00    +0.000 C 
BRANCH  23  24
ATOM     24  C   UNL     1       5.756   6.567  17.795  0.00  0.00    +0.000 A 
ATOM     25  C   UNL     1       6.806   7.424  17.515  0.00  0.00    +0.000 A 
ATOM     26  C   UNL     1       8.002   7.087  18.225  0.00  0.00    +0.000 A 
ATOM     27  C   UNL     1       7.839   5.973  19.016  0.00  0.00    +0.000 A 
ATOM     28  S   UNL     1       6.254   5.345  18.907  0.00  0.00    +0.000 S 
ENDBRANCH  23  24
ENDBRANCH   3  23
TORSDOF 9
ENDMDL
MODEL 2
REMARK VINA RESULT:      -7.6      0.950      1.113
REMARK  Name = 
REMARK  11 active torsions:
REMARK  status: ('A' for Active; 'I' for Inactive)
REMARK    1  A    between atoms: C_1  and  C_2
REMARK    2  A    between atoms: C_2  and  C_3
REMARK    3  A    between atoms: C_3  and  C_4
REMARK    4  A    between atoms: C_4  and  O_5
REMARK    5  A    between atoms: O_5  and  C_6
REMARK    6  A    between atoms: C_10  and  C_11
REMARK    7  A    between atoms: N_13  and  C_14
REMARK    8  A    between atoms: N_13  and  C_20
REMARK    9  A    between atoms: C_14  and  C_15
REMARK   10  A    between atoms: C_23  and  O_24
REMARK   11  A    between atoms: O_24  and  C_25
REMARK                            x       y       z     vdW  Elec       q    Type
REMARK                         _______ _______ _______ _____ _____    ______ ____
ROOT
ATOM      1  C   UNL     1       2.360   8.340  18.073  0.00  0.00    +0.000 C 
ATOM      2  O   UNL     1       2.440   9.143  17.137  0.00  0.00    +0.000 OA
ATOM      3  N   UNL     1       3.172   7.179  18.095  0.00  0.00    +0.000 N 
ENDROOT
BRANCH   1   8
ATOM      4  C   UNL     1      -0.113  10.462  20.007  0.00  0.00    +0.000 A 
ATOM      5  C   UNL     1      -0.021   9.947  21.300  0.00  0.00    +0.000 A 
ATOM      6  C   UNL     1       0.796   8.852  21.571  0.00  0.00    +0.000 A 
ATOM      7  C   UNL     1       1.596   8.313  20.560  0.00  0.00    +0.000 A 
ATOM      8  C   UNL     1       1.458   8.745  19.236  0.00  0.00    +0.000 A 
ATOM      9  C   UNL     1       0.503   9.760  18.972  0.00  0.00    +0.000 A 
BRANCH   4  10
ATOM     10  O   UNL     1      -0.724  11.681  19.942  0.00  0.00    +0.000 OA
BRANCH  10  11
ATOM     11  C   UNL     1      -1.301  12.227  18.753  0.00  0.00    +0.000 C 
BRANCH  11  12
ATOM     12  C   UNL     1      -2.588  11.555  18.224  0.00  0.00    +0.000 C 
BRANCH  12  14
ATOM     13  C   UNL     1      -2.809   9.726  16.413  0.00  0.00    +0.000 C 
ATOM     14  C   UNL     1      -2.481  11.166  16.753  0.00  0.00    +0.000 C 
ENDBRANCH  12  14
ENDBRANCH  11  12
ENDBRANCH  10  11
ENDBRANCH   4  10
ENDBRANCH   1   8
BRANCH   3  15
ATOM     15  C   UNL     1       2.723   5.950  18.663  0.00  0.00    +0.000 A 
ATOM     16  C   UNL     1       3.133   5.545  19.940  0.00  0.00    +0.000 A 
ATOM     17  C   UNL     1       2.730   4.306  20.442  0.00  0.00    +0.000 A 
ATOM     18  C   UNL     1       1.903   3.475  19.687  0.00  0.00    +0.000 A 
ATOM     19  C   UNL     1       1.499   3.874  18.411  0.00  0.00    +0.000 A 
ATOM     20  C   UNL     1       1.905   5.119  17.905  0.00  0.00    +0.000 A 
BRANCH  18  21
ATOM     21  O   UNL     1       1.580   2.277  20.259  0.00  0.00    +0.000 OA
ATOM     22  C   UNL     1       1.601   2.275  21.683  0.00  0.00    +0.000 C 
ENDBRANCH  18  21
ENDBRANCH   3  15
BRANCH   3  23
ATOM     23  C   UNL     1       4.147   7.002  16.987  0.00  0.00    +0.000 C 
BRANCH  23  24
ATOM     24  C   UNL     1       5.409   6.250  17.361  0.00  0.00    +0.000 A 
ATOM     25  C   UNL     1       6.488   6.641  18.133  0.00  0.00    +0.000 A 
ATOM     26  C   UNL     1       7.539   5.669  18.149  0.00  0.00    +0.000 A 
ATOM     27  C   UNL     1       7.241   4.569  17.377  0.00  0.00    +0.000 A 
ATOM     28  S   UNL     1       5.704   4.707  16.646  0.00  0.00    +0.000 S 
ENDBRANCH  23  24
ENDBRANCH   3  23
TORSDOF 9
ENDMDL
MODEL 3
REMARK VINA RESULT:      -7.3      1.238      1.686
REMARK  Name = 
REMARK  11 active torsions:
REMARK  status: ('A' for Active; 'I' for Inactive)
REMARK    1  A    between atoms: C_1  and  C_2
REMARK    2  A    between atoms: C_2  and  C_3
REMARK    3  A    between atoms: C_3  and  C_4
REMARK    4  A    between atoms: C_4  and  O_5
REMARK    5  A    between atoms: O_5  and  C_6
REMARK    6  A    between atoms: C_10  and  C_11
REMARK    7  A    between atoms: N_13  and  C_14
REMARK    8  A    between atoms: N_13  and  C_20
REMARK    9  A    between atoms: C_14  and  C_15
REMARK   10  A    between atoms: C_23  and  O_24
REMARK   11  A    between atoms: O_24  and  C_25
REMARK                            x       y       z     vdW  Elec       q    Type
REMARK                         _______ _______ _______ _____ _____    ______ ____
ROOT
ATOM      1  C   UNL     1       2.407   8.482  18.065  0.00  0.00    +0.000 C 
ATOM      2  O   UNL     1       2.460   9.367  17.205  0.00  0.00    +0.000 OA
ATOM      3  N   UNL     1       3.295   7.378  18.017  0.00  0.00    +0.000 N 
ENDROOT
BRANCH   1   8
ATOM      4  C   UNL     1      -0.386  10.158  20.002  0.00  0.00    +0.000 A 
ATOM      5  C   UNL     1      -0.222   9.647  21.289  0.00  0.00    +0.000 A 
ATOM      6  C   UNL     1       0.756   8.691  21.555  0.00  0.00    +0.000 A 
ATOM      7  C   UNL     1       1.639   8.300  20.544  0.00  0.00    +0.000 A 
ATOM      8  C   UNL     1       1.443   8.722  19.224  0.00  0.00    +0.000 A 
ATOM      9  C   UNL     1       0.341   9.576  18.965  0.00  0.00    +0.000 A 
BRANCH   4  10
ATOM     10  O   UNL     1      -1.182  11.266  19.946  0.00  0.00    +0.000 OA
BRANCH  10  11
ATOM     11  C   UNL     1      -1.695  11.824  18.735  0.00  0.00    +0.000 C 
BRANCH  11  12
ATOM     12  C   UNL     1      -3.131  11.422  18.329  0.00  0.00    +0.000 C 
BRANCH  12  14
ATOM     13  C   UNL     1      -2.434   9.916  16.349  0.00  0.00    +0.000 C 
ATOM     14  C   UNL     1      -3.187  10.054  17.657  0.00  0.00    +0.000 C 
ENDBRANCH  12  14
ENDBRANCH  11  12
ENDBRANCH  10  11
ENDBRANCH   4  10
ENDBRANCH   1   8
BRANCH   3  15
ATOM     15  C   UNL     1       2.914   6.077  18.460  0.00  0.00    +0.000 A 
ATOM     16  C   UNL     1       2.008   5.296  17.730  0.00  0.00    +0.000 A 
ATOM     17  C   UNL     1       1.604   4.053  18.223  0.00  0.00    +0.000 A 
ATOM     18  C   UNL     1       2.114   3.574  19.430  0.00  0.00    +0.000 A 
ATOM     19  C   UNL     1       3.010   4.355  20.161  0.00  0.00    +0.000 A 
ATOM     20  C   UNL     1       3.416   5.605  19.668  0.00  0.00    +0.000 A 
BRANCH  18  21
ATOM     21  O   UNL     1       1.641   2.357  19.834  0.00  0.00    +0.000 OA
ATOM     22  C   UNL     1       0.551   1.859  19.063  0.00  0.00    +0.000 C 
ENDBRANCH  18  21
ENDBRANCH   3  15
BRANCH   3  23
ATOM     23  C   UNL     1       4.314   7.365  16.935  0.00  0.00    +0.000 C 
BRANCH  23  24
ATOM     24  C   UNL     1       5.465   6.404  17.154  0.00  0.00    +0.000 A 
ATOM     25  C   UNL     1       6.554   6.490  18.003  0.00  0.00    +0.000 A 
ATOM     26  C   UNL     1       7.483   5.416  17.824  0.00  0.00    +0.000 A 
ATOM     27  C   UNL     1       7.088   4.547  16.832  0.00  0.00    +0.000 A 
ATOM     28  S   UNL     1       5.604   5.020  16.131  0.00  0.00    +0.000 S 
ENDBRANCH  23  24
ENDBRANCH   3  23
TORSDOF 9
ENDMDL
MODEL 4
REMARK VINA RESULT:      -7.2      1.104      1.644
REMARK  Name = 
REMARK  11 active torsions:
REMARK  status: ('A' for Active; 'I' for Inactive)
REMARK    1  A    between atoms: C_1  and  C_2
REMARK    2  A    between atoms: C_2  and  C_3
REMARK    3  A    between atoms: C_3  and  C_4
REMARK    4  A    between atoms: C_4  and  O_5
REMARK    5  A    between atoms: O_5  and  C_6
REMARK    6  A    between atoms: C_10  and  C_11
REMARK    7  A    between atoms: N_13  and  C_14
REMARK    8  A    between atoms: N_13  and  C_20
REMARK    9  A    between atoms: C_14  and  C_15
REMARK   10  A    between atoms: C_23  and  O_24
REMARK   11  A    between atoms: O_24  and  C_25
REMARK                            x       y       z     vdW  Elec       q    Type
REMARK                         _______ _______ _______ _____ _____    ______ ____
ROOT
ATOM      1  C   UNL     1       2.398   8.366  17.976  0.00  0.00    +0.000 C 
ATOM      2  O   UNL     1       2.386   9.191  17.057  0.00  0.00    +0.000 OA
ATOM      3  N   UNL     1       3.271   7.251  17.931  0.00  0.00    +0.000 N 
ENDROOT
BRANCH   1   8
ATOM      4  C   UNL     1      -0.038  10.339  20.105  0.00  0.00    +0.000 A 
ATOM      5  C   UNL     1       0.121   9.769  21.369  0.00  0.00    +0.000 A 
ATOM      6  C   UNL     1       0.972   8.683  21.556  0.00  0.00    +0.000 A 
ATOM      7  C   UNL     1       1.741   8.209  20.489  0.00  0.00    +0.000 A 
ATOM      8  C   UNL     1       1.537   8.696  19.193  0.00  0.00    +0.000 A 
ATOM      9  C   UNL     1       0.550   9.699  19.016  0.00  0.00    +0.000 A 
BRANCH   4  10
ATOM     10  O   UNL     1      -0.678  11.544  20.122  0.00  0.00    +0.000 OA
BRANCH  10  11
ATOM     11  C   UNL     1      -2.001  11.756  19.626  0.00  0.00    +0.000 C 
BRANCH  11  12
ATOM     12  C   UNL     1      -2.208  11.639  18.099  0.00  0.00    +0.000 C 
BRANCH  12  14
ATOM     13  C   UNL     1      -3.088  10.106  16.215  0.00  0.00    +0.000 C 
ATOM     14  C   UNL     1      -2.823  10.303  17.694  0.00  0.00    +0.000 C 
ENDBRANCH  12  14
ENDBRANCH  11  12
ENDBRANCH  10  11
ENDBRANCH   4  10
ENDBRANCH   1   8
BRANCH   3  15
ATOM     15  C   UNL     1       2.920   5.987  18.491  0.00  0.00    +0.000 A 
ATOM     16  C   UNL     1       1.921   5.189  17.917  0.00  0.00    +0.000 A 
ATOM     17  C   UNL     1       1.554   3.987  18.526  0.00  0.00    +0.000 A 
ATOM     18  C   UNL     1       2.189   3.565  19.693  0.00  0.00    +0.000 A 
ATOM     19  C   UNL     1       3.179   4.363  20.269  0.00  0.00    +0.000 A 
ATOM     20  C   UNL     1       3.549   5.572  19.660  0.00  0.00    +0.000 A 
BRANCH  18  21
ATOM     21  O   UNL     1       1.744   2.386  20.221  0.00  0.00    +0.000 OA
ATOM     22  C   UNL     1       1.443   2.435  21.613  0.00  0.00    +0.000 C 
ENDBRANCH  18  21
ENDBRANCH   3  15
BRANCH   3  23
ATOM     23  C   UNL     1       4.196   7.151  16.771  0.00  0.00    +0.000 C 
BRANCH  23  24
ATOM     24  C   UNL     1       5.350   6.185  16.954  0.00  0.00    +0.000 A 
ATOM     25  C   UNL     1       5.464   4.851  16.608  0.00  0.00    +0.000 A 
ATOM     26  C   UNL     1       6.687   4.262  17.062  0.00  0.00    +0.000 A 
ATOM     27  C   UNL     1       7.467   5.159  17.756  0.00  0.00    +0.000 A 
ATOM     28  S   UNL     1       6.732   6.697  17.852  0.00  0.00    +0.000 S 
ENDBRANCH  23  24
ENDBRANCH   3  23
TORSDOF 9
ENDMDL
MODEL 5
REMARK VINA RESULT:      -7.1      1.657      2.404
REMARK  Name = 
REMARK  11 active torsions:
REMARK  status: ('A' for Active; 'I' for Inactive)
REMARK    1  A    between atoms: C_1  and  C_2
REMARK    2  A    between atoms: C_2  and  C_3
REMARK    3  A    between atoms: C_3  and  C_4
REMARK    4  A    between atoms: C_4  and  O_5
REMARK    5  A    between atoms: O_5  and  C_6
REMARK    6  A    between atoms: C_10  and  C_11
REMARK    7  A    between atoms: N_13  and  C_14
REMARK    8  A    between atoms: N_13  and  C_20
REMARK    9  A    between atoms: C_14  and  C_15
REMARK   10  A    between atoms: C_23  and  O_24
REMARK   11  A    between atoms: O_24  and  C_25
REMARK                            x       y       z     vdW  Elec       q    Type
REMARK                         _______ _______ _______ _____ _____    ______ ____
ROOT
ATOM      1  C   UNL     1       2.346   8.372  18.035  0.00  0.00    +0.000 C 
ATOM      2  O   UNL     1       2.530   9.123  17.072  0.00  0.00    +0.000 OA
ATOM      3  N   UNL     1       3.083   7.168  18.160  0.00  0.00    +0.000 N 
ENDROOT
BRANCH   1   8
ATOM      4  C   UNL     1      -0.332  10.550  19.599  0.00  0.00    +0.000 A 
ATOM      5  C   UNL     1      -0.199  10.277  20.961  0.00  0.00    +0.000 A 
ATOM      6  C   UNL     1       0.717   9.328  21.409  0.00  0.00    +0.000 A 
ATOM      7  C   UNL     1       1.572   8.702  20.498  0.00  0.00    +0.000 A 
ATOM      8  C   UNL     1       1.402   8.883  19.120  0.00  0.00    +0.000 A 
ATOM      9  C   UNL     1       0.355   9.742  18.695  0.00  0.00    +0.000 A 
BRANCH   4  10
ATOM     10  O   UNL     1      -1.056  11.676  19.332  0.00  0.00    +0.000 OA
BRANCH  10  11
ATOM     11  C   UNL     1      -1.391  12.664  20.308  0.00  0.00    +0.000 C 
BRANCH  11  12
ATOM     12  C   UNL     1      -2.875  12.765  20.725  0.00  0.00    +0.000 C 
BRANCH  12  14
ATOM     13  C   UNL     1      -2.790  12.089  23.217  0.00  0.00    +0.000 C 
ATOM     14  C   UNL     1      -3.045  13.170  22.186  0.00  0.00    +0.000 C 
ENDBRANCH  12  14
ENDBRANCH  11  12
ENDBRANCH  10  11
ENDBRANCH   4  10
ENDBRANCH   1   8
BRANCH   3  15
ATOM     15  C   UNL     1       2.527   5.996  18.752  0.00  0.00    +0.000 A 
ATOM     16  C   UNL     1       2.641   5.751  20.128  0.00  0.00    +0.000 A 
ATOM     17  C   UNL     1       2.144   4.562  20.668  0.00  0.00    +0.000 A 
ATOM     18  C   UNL     1       1.516   3.625  19.849  0.00  0.00    +0.000 A 
ATOM     19  C   UNL     1       1.409   3.865  18.478  0.00  0.00    +0.000 A 
ATOM     20  C   UNL     1       1.909   5.058  17.933  0.00  0.00    +0.000 A 
BRANCH  18  21
ATOM     21  O   UNL     1       1.083   2.487  20.470  0.00  0.00    +0.000 OA
ATOM     22  C   UNL     1       1.483   2.367  21.832  0.00  0.00    +0.000 C 
ENDBRANCH  18  21
ENDBRANCH   3  15
BRANCH   3  23
ATOM     23  C   UNL     1       4.111   6.883  17.125  0.00  0.00    +0.000 C 
BRANCH  23  24
ATOM     24  C   UNL     1       5.520   6.708  17.655  0.00  0.00    +0.000 A 
ATOM     25  C   UNL     1       6.641   7.503  17.497  0.00  0.00    +0.000 A 
ATOM     26  C   UNL     1       7.818   6.922  18.066  0.00  0.00    +0.000 A 
ATOM     27  C   UNL     1       7.568   5.691  18.631  0.00  0.00    +0.000 A 
ATOM     28  S   UNL     1       5.926   5.247  18.480  0.00  0.00    +0.000 S 
ENDBRANCH  23  24
ENDBRANCH   3  23
TORSDOF 9
ENDMDL
MODEL 6
REMARK VINA RESULT:      -7.0      2.081      2.912
REMARK  Name = 
REMARK  11 active torsions:
REMARK  status: ('A' for Active; 'I' for Inactive)
REMARK    1  A    between atoms: C_1  and  C_2
REMARK    2  A    between atoms: C_2  and  C_3
REMARK    3  A    between atoms: C_3  and  C_4
REMARK    4  A    between atoms: C_4  and  O_5
REMARK    5  A    between atoms: O_5  and  C_6
REMARK    6  A    between atoms: C_10  and  C_11
REMARK    7  A    between atoms: N_13  and  C_14
REMARK    8  A    between atoms: N_13  and  C_20
REMARK    9  A    between atoms: C_14  and  C_15
REMARK   10  A    between atoms: C_23  and  O_24
REMARK   11  A    between atoms: O_24  and  C_25
REMARK                            x       y       z     vdW  Elec       q    Type
REMARK                         _______ _______ _______ _____ _____    ______ ____
ROOT
ATOM      1  C   UNL     1       2.306   8.388  18.099  0.00  0.00    +0.000 C 
ATOM      2  O   UNL     1       2.274   9.241  17.205  0.00  0.00    +0.000 OA
ATOM      3  N   UNL     1       3.189   7.284  18.008  0.00  0.00    +0.000 N 
ENDROOT
BRANCH   1   8
ATOM      4  C   UNL     1      -0.027  10.328  20.369  0.00  0.00    +0.000 A 
ATOM      5  C   UNL     1       0.090   9.654  21.585  0.00  0.00    +0.000 A 
ATOM      6  C   UNL     1       0.877   8.510  21.689  0.00  0.00    +0.000 A 
ATOM      7  C   UNL     1       1.624   8.076  20.590  0.00  0.00    +0.000 A 
ATOM      8  C   UNL     1       1.457   8.673  19.335  0.00  0.00    +0.000 A 
ATOM      9  C   UNL     1       0.530   9.741  19.234  0.00  0.00    +0.000 A 
BRANCH   4  10
ATOM     10  O   UNL     1      -0.597  11.564  20.477  0.00  0.00    +0.000 OA
BRANCH  10  11
ATOM     11  C   UNL     1      -0.074  12.620  21.286  0.00  0.00    +0.000 C 
BRANCH  11  12
ATOM     12  C   UNL     1      -0.888  13.015  22.538  0.00  0.00    +0.000 C 
BRANCH  12  14
ATOM     13  C   UNL     1      -3.439  12.985  22.131  0.00  0.00    +0.000 C 
ATOM     14  C   UNL     1      -2.209  12.260  22.639  0.00  0.00    +0.000 C 
ENDBRANCH  12  14
ENDBRANCH  11  12
ENDBRANCH  10  11
ENDBRANCH   4  10
ENDBRANCH   1   8
BRANCH   3  15
ATOM     15  C   UNL     1       2.857   6.000  18.534  0.00  0.00    +0.000 A 
ATOM     16  C   UNL     1       1.848   5.217  17.959  0.00  0.00    +0.000 A 
ATOM     17  C   UNL     1       1.500   3.993  18.536  0.00  0.00    +0.000 A 
ATOM     18  C   UNL     1       2.167   3.536  19.672  0.00  0.00    +0.000 A 
ATOM     19  C   UNL     1       3.168   4.319  20.250  0.00  0.00    +0.000 A 
ATOM     20  C   UNL     1       3.517   5.549  19.672  0.00  0.00    +0.000 A 
BRANCH  18  21
ATOM     21  O   UNL     1       1.740   2.337  20.170  0.00  0.00    +0.000 OA
ATOM     22  C   UNL     1       1.460   2.342  21.567  0.00  0.00    +0.000 C 
ENDBRANCH  18  21
ENDBRANCH   3  15
BRANCH   3  23
ATOM     23  C   UNL     1       4.100   7.229  16.835  0.00  0.00    +0.000 C 
BRANCH  23  24
ATOM     24  C   UNL     1       5.325   6.355  17.017  0.00  0.00    +0.000 A 
ATOM     25  C   UNL     1       6.486   6.580  17.735  0.00  0.00    +0.000 A 
ATOM     26  C   UNL     1       7.458   5.545  17.557  0.00  0.00    +0.000 A 
ATOM     27  C   UNL     1       7.020   4.565  16.696  0.00  0.00    +0.000 A 
ATOM     28  S   UNL     1       5.447   4.889  16.115  0.00  0.00    +0.000 S 
ENDBRANCH  23  24
ENDBRANCH   3  23
TORSDOF 9
ENDMDL
MODEL 7
REMARK VINA RESULT:      -7.0      1.612      2.291
REMARK  Name = 
REMARK  11 active torsions:
REMARK  status: ('A' for Active; 'I' for Inactive)
REMARK    1  A    between atoms: C_1  and  C_2
REMARK    2  A    between atoms: C_2  and  C_3
REMARK    3  A    between atoms: C_3  and  C_4
REMARK    4  A    between atoms: C_4  and  O_5
REMARK    5  A    between atoms: O_5  and  C_6
REMARK    6  A    between atoms: C_10  and  C_11
REMARK    7  A    between atoms: N_13  and  C_14
REMARK    8  A    between atoms: N_13  and  C_20
REMARK    9  A    between atoms: C_14  and  C_15
REMARK   10  A    between atoms: C_23  and  O_24
REMARK   11  A    between atoms: O_24  and  C_25
REMARK                            x       y       z     vdW  Elec       q    Type
REMARK                         _______ _______ _______ _____ _____    ______ ____
ROOT
ATOM      1  C   UNL     1       2.300   8.415  18.012  0.00  0.00    +0.000 C 
ATOM      2  O   UNL     1       2.409   9.191  17.057  0.00  0.00    +0.000 OA
ATOM      3  N   UNL     1       3.093   7.243  18.081  0.00  0.00    +0.000 N 
ENDROOT
BRANCH   1   8
ATOM      4  C   UNL     1      -0.568  10.254  19.671  0.00  0.00    +0.000 A 
ATOM      5  C   UNL     1      -0.267  10.142  21.028  0.00  0.00    +0.000 A 
ATOM      6  C   UNL     1       0.839   9.408  21.451  0.00  0.00    +0.000 A 
ATOM      7  C   UNL     1       1.705   8.848  20.508  0.00  0.00    +0.000 A 
ATOM      8  C   UNL     1       1.382   8.864  19.146  0.00  0.00    +0.000 A 
ATOM      9  C   UNL     1       0.166   9.489  18.767  0.00  0.00    +0.000 A 
BRANCH   4  10
ATOM     10  O   UNL     1      -1.501  11.211  19.392  0.00  0.00    +0.000 OA
BRANCH  10  11
ATOM     11  C   UNL     1      -1.186  12.559  19.038  0.00  0.00    +0.000 C 
BRANCH  11  12
ATOM     12  C   UNL     1       0.292  12.875  18.716  0.00  0.00    +0.000 C 
BRANCH  12  14
ATOM     13  C   UNL     1       2.110  13.014  20.546  0.00  0.00    +0.000 C 
ATOM     14  C   UNL     1       0.968  13.689  19.814  0.00  0.00    +0.000 C 
ENDBRANCH  12  14
ENDBRANCH  11  12
ENDBRANCH  10  11
ENDBRANCH   4  10
ENDBRANCH   1   8
BRANCH   3  15
ATOM     15  C   UNL     1       2.616   6.036  18.673  0.00  0.00    +0.000 A 
ATOM     16  C   UNL     1       2.901   5.717  20.007  0.00  0.00    +0.000 A 
ATOM     17  C   UNL     1       2.475   4.498  20.539  0.00  0.00    +0.000 A 
ATOM     18  C   UNL     1       1.749   3.602  19.754  0.00  0.00    +0.000 A 
ATOM     19  C   UNL     1       1.471   3.916  18.423  0.00  0.00    +0.000 A 
ATOM     20  C   UNL     1       1.899   5.140  17.887  0.00  0.00    +0.000 A 
BRANCH  18  21
ATOM     21  O   UNL     1       1.396   2.430  20.361  0.00  0.00    +0.000 OA
ATOM     22  C   UNL     1       1.422   2.469  21.785  0.00  0.00    +0.000 C 
ENDBRANCH  18  21
ENDBRANCH   3  15
BRANCH   3  23
ATOM     23  C   UNL     1       4.087   7.023  16.997  0.00  0.00    +0.000 C 
BRANCH  23  24
ATOM     24  C   UNL     1       5.438   6.518  17.462  0.00  0.00    +0.000 A 
ATOM     25  C   UNL     1       6.604   7.208  17.742  0.00  0.00    +0.000 A 
ATOM     26  C   UNL     1       7.702   6.342  18.045  0.00  0.00    +0.000 A 
ATOM     27  C   UNL     1       7.350   5.013  17.975  0.00  0.00    +0.000 A 
ATOM     28  S   UNL     1       5.707   4.815  17.553  0.00  0.00    +0.000 S 
ENDBRANCH  23  24
ENDBRANCH   3  23
TORSDOF 9
ENDMDL
MODEL 8
REMARK VINA RESULT:      -7.0      1.970      2.666
REMARK  Name = 
REMARK  11 active torsions:
REMARK  status: ('A' for Active; 'I' for Inactive)
REMARK    1  A    between atoms: C_1  and  C_2
REMARK    2  A    between atoms: C_2  and  C_3
REMARK    3  A    between atoms: C_3  and  C_4
REMARK    4  A    between atoms: C_4  and  O_5
REMARK    5  A    between atoms: O_5  and  C_6
REMARK    6  A    between atoms: C_10  and  C_11
REMARK    7  A    between atoms: N_13  and  C_14
REMARK    8  A    between atoms: N_13  and  C_20
REMARK    9  A    between atoms: C_14  and  C_15
REMARK   10  A    between atoms: C_23  and  O_24
REMARK   11  A    between atoms: O_24  and  C_25
REMARK                            x       y       z     vdW  Elec       q    Type
REMARK                         _______ _______ _______ _____ _____    ______ ____
ROOT
ATOM      1  C   UNL     1       2.406   8.252  18.032  0.00  0.00    +0.000 C 
ATOM      2  O   UNL     1       2.435   9.060  17.098  0.00  0.00    +0.000 OA
ATOM      3  N   UNL     1       3.256   7.119  18.030  0.00  0.00    +0.000 N 
ENDROOT
BRANCH   1   8
ATOM      4  C   UNL     1      -0.015  10.332  20.075  0.00  0.00    +0.000 A 
ATOM      5  C   UNL     1       0.079   9.762  21.345  0.00  0.00    +0.000 A 
ATOM      6  C   UNL     1       0.880   8.643  21.563  0.00  0.00    +0.000 A 
ATOM      7  C   UNL     1       1.662   8.134  20.523  0.00  0.00    +0.000 A 
ATOM      8  C   UNL     1       1.520   8.623  19.219  0.00  0.00    +0.000 A 
ATOM      9  C   UNL     1       0.580   9.664  19.007  0.00  0.00    +0.000 A 
BRANCH   4  10
ATOM     10  O   UNL     1      -0.606  11.563  20.067  0.00  0.00    +0.000 OA
BRANCH  10  11
ATOM     11  C   UNL     1       0.113  12.797  20.024  0.00  0.00    +0.000 C 
BRANCH  11  12
ATOM     12  C   UNL     1       0.397  13.397  18.628  0.00  0.00    +0.000 C 
BRANCH  12  14
ATOM     13  C   UNL     1       2.718  13.796  19.691  0.00  0.00    +0.000 C 
ATOM     14  C   UNL     1       1.760  14.078  18.552  0.00  0.00    +0.000 C 
ENDBRANCH  12  14
ENDBRANCH  11  12
ENDBRANCH  10  11
ENDBRANCH   4  10
ENDBRANCH   1   8
BRANCH   3  15
ATOM     15  C   UNL     1       2.863   5.873  18.604  0.00  0.00    +0.000 A 
ATOM     16  C   UNL     1       1.898   5.063  17.992  0.00  0.00    +0.000 A 
ATOM     17  C   UNL     1       1.486   3.880  18.611  0.00  0.00    +0.000 A 
ATOM     18  C   UNL     1       2.047   3.490  19.828  0.00  0.00    +0.000 A 
ATOM     19  C   UNL     1       3.003   4.301  20.441  0.00  0.00    +0.000 A 
ATOM     20  C   UNL     1       3.417   5.490  19.820  0.00  0.00    +0.000 A 
BRANCH  18  21
ATOM     21  O   UNL     1       1.563   2.328  20.360  0.00  0.00    +0.000 OA
ATOM     22  C   UNL     1       1.436   2.335  21.779  0.00  0.00    +0.000 C 
ENDBRANCH  18  21
ENDBRANCH   3  15
BRANCH   3  23
ATOM     23  C   UNL     1       4.208   6.979  16.897  0.00  0.00    +0.000 C 
BRANCH  23  24
ATOM     24  C   UNL     1       5.465   6.192  17.213  0.00  0.00    +0.000 A 
ATOM     25  C   UNL     1       6.546   6.516  18.013  0.00  0.00    +0.000 A 
ATOM     26  C   UNL     1       7.591   5.540  17.956  0.00  0.00    +0.000 A 
ATOM     27  C   UNL     1       7.287   4.504  17.101  0.00  0.00    +0.000 A 
ATOM     28  S   UNL     1       5.752   4.707  16.381  0.00  0.00    +0.000 S 
ENDBRANCH  23  24
ENDBRANCH   3  23
TORSDOF 9
ENDMDL
MODEL 9
REMARK VINA RESULT:      -7.0      1.554      2.258
REMARK  Name = 
REMARK  11 active torsions:
REMARK  status: ('A' for Active; 'I' for Inactive)
REMARK    1  A    between atoms: C_1  and  C_2
REMARK    2  A    between atoms: C_2  and  C_3
REMARK    3  A    between atoms: C_3  and  C_4
REMARK    4  A    between atoms: C_4  and  O_5
REMARK    5  A    between atoms: O_5  and  C_6
REMARK    6  A    between atoms: C_10  and  C_11
REMARK    7  A    between atoms: N_13  and  C_14
REMARK    8  A    between atoms: N_13  and  C_20
REMARK    9  A    between atoms: C_14  and  C_15
REMARK   10  A    between atoms: C_23  and  O_24
REMARK   11  A    between atoms: O_24  and  C_25
REMARK                            x       y       z     vdW  Elec       q    Type
REMARK                         _______ _______ _______ _____ _____    ______ ____
ROOT
ATOM      1  C   UNL     1       2.364   8.385  18.009  0.00  0.00    +0.000 C 
ATOM      2  O   UNL     1       2.598   9.115  17.040  0.00  0.00    +0.000 OA
ATOM      3  N   UNL     1       3.092   7.183  18.197  0.00  0.00    +0.000 N 
ENDROOT
BRANCH   1   8
ATOM      4  C   UNL     1      -0.481  10.501  19.344  0.00  0.00    +0.000 A 
ATOM      5  C   UNL     1      -0.359  10.352  20.726  0.00  0.00    +0.000 A 
ATOM      6  C   UNL     1       0.608   9.506  21.265  0.00  0.00    +0.000 A 
ATOM      7  C   UNL     1       1.520   8.865  20.422  0.00  0.00    +0.000 A 
ATOM      8  C   UNL     1       1.366   8.920  19.032  0.00  0.00    +0.000 A 
ATOM      9  C   UNL     1       0.275   9.669  18.521  0.00  0.00    +0.000 A 
BRANCH   4  10
ATOM     10  O   UNL     1      -1.272  11.550  18.972  0.00  0.00    +0.000 OA
BRANCH  10  11
ATOM     11  C   UNL     1      -0.804  12.689  18.247  0.00  0.00    +0.000 C 
BRANCH  11  12
ATOM     12  C   UNL     1       0.588  13.241  18.627  0.00  0.00    +0.000 C 
BRANCH  12  14
ATOM     13  C   UNL     1      -0.873  14.873  19.997  0.00  0.00    +0.000 C 
ATOM     14  C   UNL     1       0.512  14.349  19.672  0.00  0.00    +0.000 C 
ENDBRANCH  12  14
ENDBRANCH  11  12
ENDBRANCH  10  11
ENDBRANCH   4  10
ENDBRANCH   1   8
BRANCH   3  15
ATOM     15  C   UNL     1       2.505   6.024  18.785  0.00  0.00    +0.000 A 
ATOM     16  C   UNL     1       2.514   5.829  20.173  0.00  0.00    +0.000 A 
ATOM     17  C   UNL     1       1.989   4.653  20.715  0.00  0.00    +0.000 A 
ATOM     18  C   UNL     1       1.438   3.679  19.883  0.00  0.00    +0.000 A 
ATOM     19  C   UNL     1       1.435   3.870  18.500  0.00  0.00    +0.000 A 
ATOM     20  C   UNL     1       1.963   5.050  17.954  0.00  0.00    +0.000 A 
BRANCH  18  21
ATOM     21  O   UNL     1       0.970   2.557  20.508  0.00  0.00    +0.000 OA
ATOM     22  C   UNL     1       1.443   2.381  21.841  0.00  0.00    +0.000 C 
ENDBRANCH  18  21
ENDBRANCH   3  15
BRANCH   3  23
ATOM     23  C   UNL     1       4.170   6.875  17.222  0.00  0.00    +0.000 C 
BRANCH  23  24
ATOM     24  C   UNL     1       5.495   6.475  17.840  0.00  0.00    +0.000 A 
ATOM     25  C   UNL     1       5.780   5.540  18.819  0.00  0.00    +0.000 A 
ATOM     26  C   UNL     1       7.158   5.546  19.208  0.00  0.00    +0.000 A 
ATOM     27  C   UNL     1       7.885   6.496  18.527  0.00  0.00    +0.000 A 
ATOM     28  S   UNL     1       6.914   7.366  17.424  0.00  0.00    +0.000 S 
ENDBRANCH  23  24
ENDBRANCH   3  23
TORSDOF 9
ENDMDL
