MODEL 1
REMARK VINA RESULT:      -8.0      0.000      0.000
REMARK  Name = 
REMARK  8 active torsions:
REMARK  status: ('A' for Active; 'I' for Inactive)
REMARK    1  A    between atoms: C_1  and  C_2
REMARK    2  A    between atoms: C_2  and  C_3
REMARK    3  A    between atoms: N_8  and  C_9
REMARK    4  A    between atoms: C_9  and  C_10
REMARK    5  A    between atoms: C_18  and  O_19
REMARK    6  A    between atoms: C_18  and  C_20
REMARK    7  A    between atoms: C_20  and  N_21
REMARK    8  A    between atoms: C_24  and  C_25
REMARK                            x       y       z     vdW  Elec       q    Type
REMARK                         _______ _______ _______ _____ _____    ______ ____
ROOT
ATOM      1  C   UNL     1      -0.980  13.135  19.012  0.00  0.00    +0.000 C 
ATOM      2  C   UNL     1       0.360  12.474  19.472  0.00  0.00    +0.000 C 
ATOM      3  C   UNL     1       1.453  13.199  18.661  0.00  0.00    +0.000 C 
ATOM      4  C   UNL     1       0.505  12.746  20.987  0.00  0.00    +0.000 C 
ATOM      5  N   UNL     1      -0.592  12.112  21.729  0.00  0.00    +0.000 N 
ATOM      6  C   UNL     1      -1.403  12.927  22.505  0.00  0.00    +0.000 C 
ATOM      7  O   UNL     1      -1.228  14.141  22.589  0.00  0.00    +0.000 OA
ATOM      8  N   UNL     1      -2.451  12.311  23.128  0.00  0.00    +0.000 N 
ATOM      9  C   UNL     1      -0.764  10.669  21.523  0.00  0.00    +0.000 C 
ATOM     10  C   UNL     1      -0.787  10.286  20.040  0.00  0.00    +0.000 C 
ATOM     11  C   UNL     1       0.391  10.906  19.259  0.00  0.00    +0.000 C 
ATOM     12  H   UNL     1      -2.305  11.365  23.438  0.00  0.00    +0.000 HD
ENDROOT
BRANCH  11  13
ATOM     13  O   UNL     1       0.226  10.628  17.857  0.00  0.00    +0.000 OA
ATOM     14  H   UNL     1       1.066  10.813  17.401  0.00  0.00    +0.000 HD
ENDBRANCH  11  13
BRANCH   8  15
ATOM     15  C   UNL     1      -3.382  13.082  23.921  0.00  0.00    +0.000 C 
BRANCH  15  16
ATOM     16  C   UNL     1      -4.793  12.897  23.428  0.00  0.00    +0.000 A 
ATOM     17  C   UNL     1      -5.093  12.931  22.059  0.00  0.00    +0.000 A 
ATOM     18  C   UNL     1      -6.408  12.753  21.621  0.00  0.00    +0.000 A 
ATOM     19  C   UNL     1      -7.433  12.548  22.544  0.00  0.00    +0.000 A 
ATOM     20  C   UNL     1      -7.148  12.525  23.907  0.00  0.00    +0.000 A 
ATOM     21  C   UNL     1      -5.835  12.704  24.347  0.00  0.00    +0.000 A 
ENDBRANCH  15  16
ENDBRANCH   8  15
BRANCH  11  22
ATOM     22  C   UNL     1       1.759  10.228  19.687  0.00  0.00    +0.000 C 
BRANCH  22  23
ATOM     23  N   UNL     1       1.828   8.791  19.412  0.00  0.00    +0.000 N 
ATOM     24  C   UNL     1       1.546   7.877  20.401  0.00  0.00    +0.000 A 
ATOM     25  N   UNL     1       1.733   6.601  20.316  0.00  0.00    +0.000 NA
ATOM     26  C   UNL     1       2.334   6.136  19.169  0.00  0.00    +0.000 A 
ATOM     27  C   UNL     1       2.482   6.893  18.073  0.00  0.00    +0.000 A 
ATOM     28  C   UNL     1       2.165   8.324  18.159  0.00  0.00    +0.000 A 
ATOM     29  O   UNL     1       2.269   9.027  17.157  0.00  0.00    +0.000 OA
BRANCH  26  30
ATOM     30  C   UNL     1       2.891   4.758  19.205  0.00  0.00    +0.000 A 
ATOM     31  C   UNL     1       2.045   3.636  19.121  0.00  0.00    +0.000 A 
ATOM     32  C   UNL     1       2.553   2.337  19.251  0.00  0.00    +0.000 A 
ATOM     33  C   UNL     1       3.915   2.130  19.463  0.00  0.00    +0.000 A 
ATOM     34  C   UNL     1       4.769   3.223  19.552  0.00  0.00    +0.000 A 
ATOM     35  C   UNL     1       4.257   4.514  19.428  0.00  0.00    +0.000 A 
ATOM     36  F   UNL     1       5.119   5.534  19.569  0.00  0.00    +0.000 F 
ENDBRANCH  26  30
ENDBRANCH  22  23
ENDBRANCH  11  22
TORSDOF 6
ENDMDL
MODEL 2
REMARK VINA RESULT:      -7.9      0.883      1.435
REMARK  Name = 
REMARK  8 active torsions:
REMARK  status: ('A' for Active; 'I' for Inactive)
REMARK    1  A    between atoms: C_1  and  C_2
REMARK    2  A    between atoms: C_2  and  C_3
REMARK    3  A    between atoms: N_8  and  C_9
REMARK    4  A    between atoms: C_9  and  C_10
REMARK    5  A    between atoms: C_18  and  O_19
REMARK    6  A    between atoms: C_18  and  C_20
REMARK    7  A    between atoms: C_20  and  N_21
REMARK    8  A    between atoms: C_24  and  C_25
REMARK                            x       y       z     vdW  Elec       q    Type
REMARK                         _______ _______ _______ _____ _____    ______ ____
ROOT
ATOM      1  C   UNL     1      -1.338  13.043  19.050  0.00  0.00    +0.000 C 
ATOM      2  C   UNL     1       0.056  12.482  19.479  0.00  0.00    +0.000 C 
ATOM      3  C   UNL     1       1.076  13.294  18.653  0.00  0.00    +0.000 C 
ATOM      4  C   UNL     1       0.211  12.754  20.992  0.00  0.00    +0.000 C 
ATOM      5  N   UNL     1      -0.821  12.033  21.750  0.00  0.00    +0.000 N 
ATOM      6  C   UNL     1      -1.676  12.779  22.549  0.00  0.00    +0.000 C 
ATOM      7  O   UNL     1      -1.591  14.003  22.639  0.00  0.00    +0.000 OA
ATOM      8  N   UNL     1      -2.661  12.081  23.186  0.00  0.00    +0.000 N 
ATOM      9  C   UNL     1      -0.887  10.583  21.536  0.00  0.00    +0.000 C 
ATOM     10  C   UNL     1      -0.910  10.209  20.050  0.00  0.00    +0.000 C 
ATOM     11  C   UNL     1       0.203  10.922  19.252  0.00  0.00    +0.000 C 
ATOM     12  H   UNL     1      -2.438  11.147  23.485  0.00  0.00    +0.000 HD
ENDROOT
BRANCH  11  13
ATOM     13  O   UNL     1       0.031  10.642  17.851  0.00  0.00    +0.000 OA
ATOM     14  H   UNL     1      -0.921  10.618  17.652  0.00  0.00    +0.000 HD
ENDBRANCH  11  13
BRANCH   8  15
ATOM     15  C   UNL     1      -3.632  12.774  24.004  0.00  0.00    +0.000 C 
BRANCH  15  16
ATOM     16  C   UNL     1      -4.956  12.880  23.295  0.00  0.00    +0.000 A 
ATOM     17  C   UNL     1      -6.137  13.148  24.001  0.00  0.00    +0.000 A 
ATOM     18  C   UNL     1      -7.356  13.248  23.325  0.00  0.00    +0.000 A 
ATOM     19  C   UNL     1      -7.407  13.071  21.942  0.00  0.00    +0.000 A 
ATOM     20  C   UNL     1      -6.242  12.790  21.233  0.00  0.00    +0.000 A 
ATOM     21  C   UNL     1      -5.023  12.689  21.906  0.00  0.00    +0.000 A 
ENDBRANCH  15  16
ENDBRANCH   8  15
BRANCH  11  22
ATOM     22  C   UNL     1       1.626  10.348  19.648  0.00  0.00    +0.000 C 
BRANCH  22  23
ATOM     23  N   UNL     1       1.752   8.897  19.486  0.00  0.00    +0.000 N 
ATOM     24  C   UNL     1       1.495   8.053  20.541  0.00  0.00    +0.000 A 
ATOM     25  N   UNL     1       1.732   6.782  20.557  0.00  0.00    +0.000 NA
ATOM     26  C   UNL     1       2.363   6.253  19.455  0.00  0.00    +0.000 A 
ATOM     27  C   UNL     1       2.494   6.928  18.304  0.00  0.00    +0.000 A 
ATOM     28  C   UNL     1       2.121   8.349  18.276  0.00  0.00    +0.000 A 
ATOM     29  O   UNL     1       2.209   8.975  17.223  0.00  0.00    +0.000 OA
BRANCH  26  30
ATOM     30  C   UNL     1       2.972   4.905  19.603  0.00  0.00    +0.000 A 
ATOM     31  C   UNL     1       4.338   4.698  19.329  0.00  0.00    +0.000 A 
ATOM     32  C   UNL     1       4.897   3.415  19.374  0.00  0.00    +0.000 A 
ATOM     33  C   UNL     1       4.107   2.312  19.695  0.00  0.00    +0.000 A 
ATOM     34  C   UNL     1       2.755   2.491  19.966  0.00  0.00    +0.000 A 
ATOM     35  C   UNL     1       2.203   3.772  19.914  0.00  0.00    +0.000 A 
ATOM     36  F   UNL     1       0.883   3.881  20.138  0.00  0.00    +0.000 F 
ENDBRANCH  26  30
ENDBRANCH  22  23
ENDBRANCH  11  22
TORSDOF 6
ENDMDL
MODEL 3
REMARK VINA RESULT:      -7.9      1.238      1.612
REMARK  Name = 
REMARK  8 active torsions:
REMARK  status: ('A' for Active; 'I' for Inactive)
REMARK    1  A    between atoms: C_1  and  C_2
REMARK    2  A    between atoms: C_2  and  C_3
REMARK    3  A    between atoms: N_8  and  C_9
REMARK    4  A    between atoms: C_9  and  C_10
REMARK    5  A    between atoms: C_18  and  O_19
REMARK    6  A    between atoms: C_18  and  C_20
REMARK    7  A    between atoms: C_20  and  N_21
REMARK    8  A    between atoms: C_24  and  C_25
REMARK                            x       y       z     vdW  Elec       q    Type
REMARK                         _______ _______ _______ _____ _____    ______ ____
ROOT
ATOM      1  C   UNL     1      -1.186  13.367  19.080  0.00  0.00    +0.000 C 
ATOM      2  C   UNL     1       0.223  12.764  19.387  0.00  0.00    +0.000 C 
ATOM      3  C   UNL     1       1.128  13.289  18.253  0.00  0.00    +0.000 C 
ATOM      4  C   UNL     1       0.664  13.313  20.763  0.00  0.00    +0.000 C 
ATOM      5  N   UNL     1      -0.260  12.864  21.813  0.00  0.00    +0.000 N 
ATOM      6  C   UNL     1      -0.907  13.836  22.563  0.00  0.00    +0.000 C 
ATOM      7  O   UNL     1      -0.728  15.038  22.377  0.00  0.00    +0.000 OA
ATOM      8  N   UNL     1      -1.806  13.381  23.485  0.00  0.00    +0.000 N 
ATOM      9  C   UNL     1      -0.459  11.414  21.925  0.00  0.00    +0.000 C 
ATOM     10  C   UNL     1      -0.773  10.759  20.576  0.00  0.00    +0.000 C 
ATOM     11  C   UNL     1       0.223  11.184  19.476  0.00  0.00    +0.000 C 
ATOM     12  H   UNL     1      -1.594  12.507  23.936  0.00  0.00    +0.000 HD
ENDROOT
BRANCH  11  13
ATOM     13  O   UNL     1      -0.214  10.651  18.213  0.00  0.00    +0.000 OA
ATOM     14  H   UNL     1       0.471  10.828  17.545  0.00  0.00    +0.000 HD
ENDBRANCH  11  13
BRANCH   8  15
ATOM     15  C   UNL     1      -2.567  14.316  24.283  0.00  0.00    +0.000 C 
BRANCH  15  16
ATOM     16  C   UNL     1      -4.046  14.075  24.132  0.00  0.00    +0.000 A 
ATOM     17  C   UNL     1      -4.585  12.786  24.242  0.00  0.00    +0.000 A 
ATOM     18  C   UNL     1      -5.961  12.583  24.104  0.00  0.00    +0.000 A 
ATOM     19  C   UNL     1      -6.806  13.663  23.845  0.00  0.00    +0.000 A 
ATOM     20  C   UNL     1      -6.279  14.945  23.720  0.00  0.00    +0.000 A 
ATOM     21  C   UNL     1      -4.905  15.150  23.858  0.00  0.00    +0.000 A 
ENDBRANCH  15  16
ENDBRANCH   8  15
BRANCH  11  22
ATOM     22  C   UNL     1       1.654  10.557  19.749  0.00  0.00    +0.000 C 
BRANCH  22  23
ATOM     23  N   UNL     1       1.711   9.102  19.592  0.00  0.00    +0.000 N 
ATOM     24  C   UNL     1       1.423   8.274  20.652  0.00  0.00    +0.000 A 
ATOM     25  N   UNL     1       1.600   6.994  20.672  0.00  0.00    +0.000 NA
ATOM     26  C   UNL     1       2.195   6.432  19.566  0.00  0.00    +0.000 A 
ATOM     27  C   UNL     1       2.348   7.096  18.412  0.00  0.00    +0.000 A 
ATOM     28  C   UNL     1       2.043   8.532  18.381  0.00  0.00    +0.000 A 
ATOM     29  O   UNL     1       2.150   9.150  17.325  0.00  0.00    +0.000 OA
BRANCH  26  30
ATOM     30  C   UNL     1       2.742   5.057  19.714  0.00  0.00    +0.000 A 
ATOM     31  C   UNL     1       4.078   4.772  19.371  0.00  0.00    +0.000 A 
ATOM     32  C   UNL     1       4.572   3.463  19.417  0.00  0.00    +0.000 A 
ATOM     33  C   UNL     1       3.745   2.410  19.809  0.00  0.00    +0.000 A 
ATOM     34  C   UNL     1       2.422   2.667  20.149  0.00  0.00    +0.000 A 
ATOM     35  C   UNL     1       1.934   3.973  20.096  0.00  0.00    +0.000 A 
ATOM     36  F   UNL     1       0.637   4.157  20.389  0.00  0.00    +0.000 F 
ENDBRANCH  26  30
ENDBRANCH  22  23
ENDBRANCH  11  22
TORSDOF 6
ENDMDL
MODEL 4
REMARK VINA RESULT:      -7.8      3.382     10.411
REMARK  Name = 
REMARK  8 active torsions:
REMARK  status: ('A' for Active; 'I' for Inactive)
REMARK    1  A    between atoms: C_1  and  C_2
REMARK    2  A    between atoms: C_2  and  C_3
REMARK    3  A    between atoms: N_8  and  C_9
REMARK    4  A    between atoms: C_9  and  C_10
REMARK    5  A    between atoms: C_18  and  O_19
REMARK    6  A    between atoms: C_18  and  C_20
REMARK    7  A    between atoms: C_20  and  N_21
REMARK    8  A    between atoms: C_24  and  C_25
REMARK                            x       y       z     vdW  Elec       q    Type
REMARK                         _______ _______ _______ _____ _____    ______ ____
ROOT
ATOM      1  C   UNL     1       1.752  12.351  19.192  0.00  0.00    +0.000 C 
ATOM      2  C   UNL     1       0.195  12.217  19.186  0.00  0.00    +0.000 C 
ATOM      3  C   UNL     1      -0.290  13.332  18.236  0.00  0.00    +0.000 C 
ATOM      4  C   UNL     1      -0.139  10.815  18.628  0.00  0.00    +0.000 C 
ATOM      5  N   UNL     1       0.403   9.771  19.508  0.00  0.00    +0.000 N 
ATOM      6  C   UNL     1       1.297   8.863  18.961  0.00  0.00    +0.000 C 
ATOM      7  O   UNL     1       1.638   8.907  17.779  0.00  0.00    +0.000 OA
ATOM      8  N   UNL     1       1.828   7.949  19.825  0.00  0.00    +0.000 N 
ATOM      9  C   UNL     1      -0.012   9.830  20.915  0.00  0.00    +0.000 C 
ATOM     10  C   UNL     1       0.161  11.228  21.520  0.00  0.00    +0.000 C 
ATOM     11  C   UNL     1      -0.450  12.329  20.627  0.00  0.00    +0.000 C 
ATOM     12  H   UNL     1       1.234   7.628  20.570  0.00  0.00    +0.000 HD
ENDROOT
BRANCH  11  13
ATOM     13  O   UNL     1      -0.126  13.618  21.178  0.00  0.00    +0.000 OA
ATOM     14  H   UNL     1       0.342  13.487  22.022  0.00  0.00    +0.000 HD
ENDBRANCH  11  13
BRANCH   8  15
ATOM     15  C   UNL     1       2.807   6.991  19.361  0.00  0.00    +0.000 C 
BRANCH  15  16
ATOM     16  C   UNL     1       2.221   5.605  19.307  0.00  0.00    +0.000 A 
ATOM     17  C   UNL     1       2.263   4.845  18.129  0.00  0.00    +0.000 A 
ATOM     18  C   UNL     1       1.718   3.559  18.100  0.00  0.00    +0.000 A 
ATOM     19  C   UNL     1       1.119   3.025  19.241  0.00  0.00    +0.000 A 
ATOM     20  C   UNL     1       1.060   3.776  20.412  0.00  0.00    +0.000 A 
ATOM     21  C   UNL     1       1.604   5.062  20.443  0.00  0.00    +0.000 A 
ENDBRANCH  15  16
ENDBRANCH   8  15
BRANCH  11  22
ATOM     22  C   UNL     1      -2.033  12.232  20.630  0.00  0.00    +0.000 C 
BRANCH  22  23
ATOM     23  N   UNL     1      -2.686  13.137  21.578  0.00  0.00    +0.000 N 
ATOM     24  C   UNL     1      -3.184  14.349  21.156  0.00  0.00    +0.000 A 
ATOM     25  N   UNL     1      -3.627  15.285  21.929  0.00  0.00    +0.000 NA
ATOM     26  C   UNL     1      -3.519  15.076  23.284  0.00  0.00    +0.000 A 
ATOM     27  C   UNL     1      -3.228  13.878  23.810  0.00  0.00    +0.000 A 
ATOM     28  C   UNL     1      -2.825  12.793  22.906  0.00  0.00    +0.000 A 
ATOM     29  O   UNL     1      -2.583  11.681  23.367  0.00  0.00    +0.000 OA
BRANCH  26  30
ATOM     30  C   UNL     1      -3.666  16.263  24.169  0.00  0.00    +0.000 A 
ATOM     31  C   UNL     1      -4.942  16.758  24.504  0.00  0.00    +0.000 A 
ATOM     32  C   UNL     1      -5.086  17.929  25.256  0.00  0.00    +0.000 A 
ATOM     33  C   UNL     1      -3.964  18.631  25.693  0.00  0.00    +0.000 A 
ATOM     34  C   UNL     1      -2.694  18.163  25.372  0.00  0.00    +0.000 A 
ATOM     35  C   UNL     1      -2.556  16.998  24.617  0.00  0.00    +0.000 A 
ATOM     36  F   UNL     1      -1.309  16.618  24.297  0.00  0.00    +0.000 F 
ENDBRANCH  26  30
ENDBRANCH  22  23
ENDBRANCH  11  22
TORSDOF 6
ENDMDL
MODEL 5
REMARK VINA RESULT:      -7.8      1.571      1.899
REMARK  Name = 
REMARK  8 active torsions:
REMARK  status: ('A' for Active; 'I' for Inactive)
REMARK    1  A    between atoms: C_1  and  C_2
REMARK    2  A    between atoms: C_2  and  C_3
REMARK    3  A    between atoms: N_8  and  C_9
REMARK    4  A    between atoms: C_9  and  C_10
REMARK    5  A    between atoms: C_18  and  O_19
REMARK    6  A    between atoms: C_18  and  C_20
REMARK    7  A    between atoms: C_20  and  N_21
REMARK    8  A    between atoms: C_24  and  C_25
REMARK                            x       y       z     vdW  Elec       q    Type
REMARK                         _______ _______ _______ _____ _____    ______ ____
ROOT
ATOM      1  C   UNL     1      -1.603  13.274  19.463  0.00  0.00    +0.000 C 
ATOM      2  C   UNL     1      -0.146  12.749  19.674  0.00  0.00    +0.000 C 
ATOM      3  C   UNL     1       0.607  13.161  18.392  0.00  0.00    +0.000 C 
ATOM      4  C   UNL     1       0.423  13.467  20.919  0.00  0.00    +0.000 C 
ATOM      5  N   UNL     1      -0.361  13.120  22.112  0.00  0.00    +0.000 N 
ATOM      6  C   UNL     1      -0.959  14.156  22.816  0.00  0.00    +0.000 C 
ATOM      7  O   UNL     1      -0.849  15.332  22.475  0.00  0.00    +0.000 OA
ATOM      8  N   UNL     1      -1.732  13.789  23.880  0.00  0.00    +0.000 N 
ATOM      9  C   UNL     1      -0.489  11.689  22.410  0.00  0.00    +0.000 C 
ATOM     10  C   UNL     1      -0.924  10.871  21.189  0.00  0.00    +0.000 C 
ATOM     11  C   UNL     1      -0.073  11.190  19.941  0.00  0.00    +0.000 C 
ATOM     12  H   UNL     1      -1.438  12.979  24.399  0.00  0.00    +0.000 HD
ENDROOT
BRANCH  11  13
ATOM     13  O   UNL     1      -0.627  10.502  18.805  0.00  0.00    +0.000 OA
ATOM     14  H   UNL     1       0.069   9.951  18.405  0.00  0.00    +0.000 HD
ENDBRANCH  11  13
BRANCH   8  15
ATOM     15  C   UNL     1      -2.436  14.791  24.648  0.00  0.00    +0.000 C 
BRANCH  15  16
ATOM     16  C   UNL     1      -3.905  14.792  24.316  0.00  0.00    +0.000 A 
ATOM     17  C   UNL     1      -4.572  13.607  23.974  0.00  0.00    +0.000 A 
ATOM     18  C   UNL     1      -5.936  13.627  23.673  0.00  0.00    +0.000 A 
ATOM     19  C   UNL     1      -6.642  14.830  23.701  0.00  0.00    +0.000 A 
ATOM     20  C   UNL     1      -5.987  16.014  24.026  0.00  0.00    +0.000 A 
ATOM     21  C   UNL     1      -4.624  15.997  24.327  0.00  0.00    +0.000 A 
ENDBRANCH  15  16
ENDBRANCH   8  15
BRANCH  11  22
ATOM     22  C   UNL     1       1.402  10.638  20.118  0.00  0.00    +0.000 C 
BRANCH  22  23
ATOM     23  N   UNL     1       1.592   9.270  19.629  0.00  0.00    +0.000 N 
ATOM     24  C   UNL     1       1.421   8.198  20.473  0.00  0.00    +0.000 A 
ATOM     25  N   UNL     1       1.720   6.971  20.195  0.00  0.00    +0.000 NA
ATOM     26  C   UNL     1       2.329   6.740  18.983  0.00  0.00    +0.000 A 
ATOM     27  C   UNL     1       2.379   7.662  18.011  0.00  0.00    +0.000 A 
ATOM     28  C   UNL     1       1.937   9.028  18.316  0.00  0.00    +0.000 A 
ATOM     29  O   UNL     1       1.949   9.879  17.430  0.00  0.00    +0.000 OA
BRANCH  26  30
ATOM     30  C   UNL     1       3.010   5.429  18.804  0.00  0.00    +0.000 A 
ATOM     31  C   UNL     1       4.299   5.210  19.329  0.00  0.00    +0.000 A 
ATOM     32  C   UNL     1       4.983   4.013  19.083  0.00  0.00    +0.000 A 
ATOM     33  C   UNL     1       4.398   3.010  18.312  0.00  0.00    +0.000 A 
ATOM     34  C   UNL     1       3.127   3.206  17.781  0.00  0.00    +0.000 A 
ATOM     35  C   UNL     1       2.452   4.403  18.025  0.00  0.00    +0.000 A 
ATOM     36  F   UNL     1       1.249   4.557  17.450  0.00  0.00    +0.000 F 
ENDBRANCH  26  30
ENDBRANCH  22  23
ENDBRANCH  11  22
TORSDOF 6
ENDMDL
MODEL 6
REMARK VINA RESULT:      -7.7      3.830      8.984
REMARK  Name = 
REMARK  8 active torsions:
REMARK  status: ('A' for Active; 'I' for Inactive)
REMARK    1  A    between atoms: C_1  and  C_2
REMARK    2  A    between atoms: C_2  and  C_3
REMARK    3  A    between atoms: N_8  and  C_9
REMARK    4  A    between atoms: C_9  and  C_10
REMARK    5  A    between atoms: C_18  and  O_19
REMARK    6  A    between atoms: C_18  and  C_20
REMARK    7  A    between atoms: C_20  and  N_21
REMARK    8  A    between atoms: C_24  and  C_25
REMARK                            x       y       z     vdW  Elec       q    Type
REMARK                         _______ _______ _______ _____ _____    ______ ____
ROOT
ATOM      1  C   UNL     1      -1.769  10.576  18.534  0.00  0.00    +0.000 C 
ATOM      2  C   UNL     1      -1.512  11.758  19.524  0.00  0.00    +0.000 C 
ATOM      3  C   UNL     1      -2.889  12.433  19.694  0.00  0.00    +0.000 C 
ATOM      4  C   UNL     1      -1.018  11.141  20.852  0.00  0.00    +0.000 C 
ATOM      5  N   UNL     1       0.254  10.436  20.647  0.00  0.00    +0.000 N 
ATOM      6  C   UNL     1       0.304   9.086  20.965  0.00  0.00    +0.000 C 
ATOM      7  O   UNL     1      -0.670   8.478  21.408  0.00  0.00    +0.000 OA
ATOM      8  N   UNL     1       1.483   8.451  20.700  0.00  0.00    +0.000 N 
ATOM      9  C   UNL     1       1.344  11.223  20.059  0.00  0.00    +0.000 C 
ATOM     10  C   UNL     1       0.907  11.982  18.801  0.00  0.00    +0.000 C 
ATOM     11  C   UNL     1      -0.403  12.769  19.020  0.00  0.00    +0.000 C 
ATOM     12  H   UNL     1       2.326   8.989  20.812  0.00  0.00    +0.000 HD
ENDROOT
BRANCH  11  13
ATOM     13  O   UNL     1      -0.829  13.334  17.767  0.00  0.00    +0.000 OA
ATOM     14  H   UNL     1      -1.104  12.611  17.177  0.00  0.00    +0.000 HD
ENDBRANCH  11  13
BRANCH   8  15
ATOM     15  C   UNL     1       1.620   7.033  20.951  0.00  0.00    +0.000 C 
BRANCH  15  16
ATOM     16  C   UNL     1       2.321   6.349  19.808  0.00  0.00    +0.000 A 
ATOM     17  C   UNL     1       2.805   7.078  18.713  0.00  0.00    +0.000 A 
ATOM     18  C   UNL     1       3.457   6.425  17.663  0.00  0.00    +0.000 A 
ATOM     19  C   UNL     1       3.623   5.040  17.695  0.00  0.00    +0.000 A 
ATOM     20  C   UNL     1       3.134   4.305  18.771  0.00  0.00    +0.000 A 
ATOM     21  C   UNL     1       2.481   4.955  19.820  0.00  0.00    +0.000 A 
ENDBRANCH  15  16
ENDBRANCH   8  15
BRANCH  11  22
ATOM     22  C   UNL     1      -0.159  13.993  19.998  0.00  0.00    +0.000 C 
BRANCH  22  23
ATOM     23  N   UNL     1       1.149  14.633  19.841  0.00  0.00    +0.000 N 
ATOM     24  C   UNL     1       1.469  15.291  18.677  0.00  0.00    +0.000 A 
ATOM     25  N   UNL     1       2.640  15.745  18.371  0.00  0.00    +0.000 NA
ATOM     26  C   UNL     1       3.660  15.476  19.254  0.00  0.00    +0.000 A 
ATOM     27  C   UNL     1       3.441  15.014  20.492  0.00  0.00    +0.000 A 
ATOM     28  C   UNL     1       2.080  14.599  20.857  0.00  0.00    +0.000 A 
ATOM     29  O   UNL     1       1.856  14.199  21.997  0.00  0.00    +0.000 OA
BRANCH  26  30
ATOM     30  C   UNL     1       5.052  15.651  18.758  0.00  0.00    +0.000 A 
ATOM     31  C   UNL     1       5.691  14.627  18.032  0.00  0.00    +0.000 A 
ATOM     32  C   UNL     1       7.032  14.747  17.645  0.00  0.00    +0.000 A 
ATOM     33  C   UNL     1       7.761  15.889  17.970  0.00  0.00    +0.000 A 
ATOM     34  C   UNL     1       7.151  16.912  18.688  0.00  0.00    +0.000 A 
ATOM     35  C   UNL     1       5.817  16.785  19.076  0.00  0.00    +0.000 A 
ATOM     36  F   UNL     1       5.293  17.781  19.808  0.00  0.00    +0.000 F 
ENDBRANCH  26  30
ENDBRANCH  22  23
ENDBRANCH  11  22
TORSDOF 6
ENDMDL
MODEL 7
REMARK VINA RESULT:      -7.7      4.644     11.595
REMARK  Name = 
REMARK  8 active torsions:
REMARK  status: ('A' for Active; 'I' for Inactive)
REMARK    1  A    between atoms: C_1  and  C_2
REMARK    2  A    between atoms: C_2  and  C_3
REMARK    3  A    between atoms: N_8  and  C_9
REMARK    4  A    between atoms: C_9  and  C_10
REMARK    5  A    between atoms: C_18  and  O_19
REMARK    6  A    between atoms: C_18  and  C_20
REMARK    7  A    between atoms: C_20  and  N_21
REMARK    8  A    between atoms: C_24  and  C_25
REMARK                            x       y       z     vdW  Elec       q    Type
REMARK                         _______ _______ _______ _____ _____    ______ ____
ROOT
ATOM      1  C   UNL     1       4.195   2.933  17.287  0.00  0.00    +0.000 C 
ATOM      2  C   UNL     1       4.464   4.041  18.356  0.00  0.00    +0.000 C 
ATOM      3  C   UNL     1       4.492   3.288  19.702  0.00  0.00    +0.000 C 
ATOM      4  C   UNL     1       5.839   4.666  18.029  0.00  0.00    +0.000 C 
ATOM      5  N   UNL     1       5.809   5.307  16.707  0.00  0.00    +0.000 N 
ATOM      6  C   UNL     1       6.714   4.865  15.753  0.00  0.00    +0.000 C 
ATOM      7  O   UNL     1       7.526   3.969  15.982  0.00  0.00    +0.000 OA
ATOM      8  N   UNL     1       6.612   5.439  14.519  0.00  0.00    +0.000 N 
ATOM      9  C   UNL     1       4.769   6.323  16.504  0.00  0.00    +0.000 C 
ATOM     10  C   UNL     1       3.380   5.834  16.929  0.00  0.00    +0.000 C 
ATOM     11  C   UNL     1       3.390   5.204  18.338  0.00  0.00    +0.000 C 
ATOM     12  H   UNL     1       6.335   6.406  14.487  0.00  0.00    +0.000 HD
ENDROOT
BRANCH  11  13
ATOM     13  O   UNL     1       2.095   4.639  18.611  0.00  0.00    +0.000 OA
ATOM     14  H   UNL     1       1.490   5.356  18.869  0.00  0.00    +0.000 HD
ENDBRANCH  11  13
BRANCH   8  15
ATOM     15  C   UNL     1       7.477   5.011  13.442  0.00  0.00    +0.000 C 
BRANCH  15  16
ATOM     16  C   UNL     1       6.827   3.926  12.626  0.00  0.00    +0.000 A 
ATOM     17  C   UNL     1       7.596   3.004  11.902  0.00  0.00    +0.000 A 
ATOM     18  C   UNL     1       6.975   2.000  11.154  0.00  0.00    +0.000 A 
ATOM     19  C   UNL     1       5.583   1.915  11.116  0.00  0.00    +0.000 A 
ATOM     20  C   UNL     1       4.809   2.834  11.821  0.00  0.00    +0.000 A 
ATOM     21  C   UNL     1       5.428   3.837  12.568  0.00  0.00    +0.000 A 
ENDBRANCH  15  16
ENDBRANCH   8  15
BRANCH  11  22
ATOM     22  C   UNL     1       3.630   6.315  19.442  0.00  0.00    +0.000 C 
BRANCH  22  23
ATOM     23  N   UNL     1       2.440   7.108  19.763  0.00  0.00    +0.000 N 
ATOM     24  C   UNL     1       2.174   8.272  19.081  0.00  0.00    +0.000 A 
ATOM     25  N   UNL     1       1.253   9.126  19.390  0.00  0.00    +0.000 NA
ATOM     26  C   UNL     1       0.537   8.879  20.538  0.00  0.00    +0.000 A 
ATOM     27  C   UNL     1       0.576   7.701  21.176  0.00  0.00    +0.000 A 
ATOM     28  C   UNL     1       1.561   6.701  20.744  0.00  0.00    +0.000 A 
ATOM     29  O   UNL     1       1.592   5.606  21.299  0.00  0.00    +0.000 OA
BRANCH  26  30
ATOM     30  C   UNL     1      -0.247  10.009  21.106  0.00  0.00    +0.000 A 
ATOM     31  C   UNL     1      -0.771  11.014  20.270  0.00  0.00    +0.000 A 
ATOM     32  C   UNL     1      -1.426  12.129  20.805  0.00  0.00    +0.000 A 
ATOM     33  C   UNL     1      -1.576  12.265  22.185  0.00  0.00    +0.000 A 
ATOM     34  C   UNL     1      -1.063  11.287  23.030  0.00  0.00    +0.000 A 
ATOM     35  C   UNL     1      -0.406  10.181  22.491  0.00  0.00    +0.000 A 
ATOM     36  F   UNL     1       0.109   9.291  23.354  0.00  0.00    +0.000 F 
ENDBRANCH  26  30
ENDBRANCH  22  23
ENDBRANCH  11  22
TORSDOF 6
ENDMDL
MODEL 8
REMARK VINA RESULT:      -7.7      3.332      6.833
REMARK  Name = 
REMARK  8 active torsions:
REMARK  status: ('A' for Active; 'I' for Inactive)
REMARK    1  A    between atoms: C_1  and  C_2
REMARK    2  A    between atoms: C_2  and  C_3
REMARK    3  A    between atoms: N_8  and  C_9
REMARK    4  A    between atoms: C_9  and  C_10
REMARK    5  A    between atoms: C_18  and  O_19
REMARK    6  A    between atoms: C_18  and  C_20
REMARK    7  A    between atoms: C_20  and  N_21
REMARK    8  A    between atoms: C_24  and  C_25
REMARK                            x       y       z     vdW  Elec       q    Type
REMARK                         _______ _______ _______ _____ _____    ______ ____
ROOT
ATOM      1  C   UNL     1      -0.711  13.980  21.389  0.00  0.00    +0.000 C 
ATOM      2  C   UNL     1      -0.972  12.856  20.335  0.00  0.00    +0.000 C 
ATOM      3  C   UNL     1      -2.509  12.725  20.277  0.00  0.00    +0.000 C 
ATOM      4  C   UNL     1      -0.397  13.351  18.989  0.00  0.00    +0.000 C 
ATOM      5  N   UNL     1       1.056  13.545  19.094  0.00  0.00    +0.000 N 
ATOM      6  C   UNL     1       1.561  14.809  18.823  0.00  0.00    +0.000 C 
ATOM      7  O   UNL     1       0.837  15.751  18.502  0.00  0.00    +0.000 OA
ATOM      8  N   UNL     1       2.906  14.966  18.995  0.00  0.00    +0.000 N 
ATOM      9  C   UNL     1       1.834  12.384  19.541  0.00  0.00    +0.000 C 
ATOM     10  C   UNL     1       1.255  11.742  20.806  0.00  0.00    +0.000 C 
ATOM     11  C   UNL     1      -0.263  11.486  20.688  0.00  0.00    +0.000 C 
ATOM     12  H   UNL     1       3.488  14.175  18.780  0.00  0.00    +0.000 HD
ENDROOT
BRANCH  11  13
ATOM     13  O   UNL     1      -0.763  11.021  21.955  0.00  0.00    +0.000 OA
ATOM     14  H   UNL     1      -0.519  11.666  22.642  0.00  0.00    +0.000 HD
ENDBRANCH  11  13
BRANCH   8  15
ATOM     15  C   UNL     1       3.521  16.258  18.785  0.00  0.00    +0.000 C 
BRANCH  15  16
ATOM     16  C   UNL     1       5.002  16.119  18.552  0.00  0.00    +0.000 A 
ATOM     17  C   UNL     1       5.896  17.124  18.946  0.00  0.00    +0.000 A 
ATOM     18  C   UNL     1       7.267  16.975  18.725  0.00  0.00    +0.000 A 
ATOM     19  C   UNL     1       7.756  15.827  18.101  0.00  0.00    +0.000 A 
ATOM     20  C   UNL     1       6.875  14.828  17.693  0.00  0.00    +0.000 A 
ATOM     21  C   UNL     1       5.505  14.976  17.912  0.00  0.00    +0.000 A 
ENDBRANCH  15  16
ENDBRANCH   8  15
BRANCH  11  22
ATOM     22  C   UNL     1      -0.552  10.327  19.646  0.00  0.00    +0.000 C 
BRANCH  22  23
ATOM     23  N   UNL     1       0.601   9.465  19.373  0.00  0.00    +0.000 N 
ATOM     24  C   UNL     1       1.236   9.515  18.154  0.00  0.00    +0.000 A 
ATOM     25  N   UNL     1       2.148   8.693  17.751  0.00  0.00    +0.000 NA
ATOM     26  C   UNL     1       2.448   7.641  18.585  0.00  0.00    +0.000 A 
ATOM     27  C   UNL     1       2.038   7.589  19.860  0.00  0.00    +0.000 A 
ATOM     28  C   UNL     1       1.078   8.596  20.331  0.00  0.00    +0.000 A 
ATOM     29  O   UNL     1       0.713   8.580  21.504  0.00  0.00    +0.000 OA
BRANCH  26  30
ATOM     30  C   UNL     1       3.199   6.500  17.996  0.00  0.00    +0.000 A 
ATOM     31  C   UNL     1       4.415   6.711  17.318  0.00  0.00    +0.000 A 
ATOM     32  C   UNL     1       5.078   5.656  16.679  0.00  0.00    +0.000 A 
ATOM     33  C   UNL     1       4.544   4.368  16.704  0.00  0.00    +0.000 A 
ATOM     34  C   UNL     1       3.343   4.136  17.365  0.00  0.00    +0.000 A 
ATOM     35  C   UNL     1       2.684   5.193  17.995  0.00  0.00    +0.000 A 
ATOM     36  F   UNL     1       1.505   4.921  18.578  0.00  0.00    +0.000 F 
ENDBRANCH  26  30
ENDBRANCH  22  23
ENDBRANCH  11  22
TORSDOF 6
ENDMDL
MODEL 9
REMARK VINA RESULT:      -7.6      3.467      8.806
REMARK  Name = 
REMARK  8 active torsions:
REMARK  status: ('A' for Active; 'I' for Inactive)
REMARK    1  A    between atoms: C_1  and  C_2
REMARK    2  A    between atoms: C_2  and  C_3
REMARK    3  A    between atoms: N_8  and  C_9
REMARK    4  A    between atoms: C_9  and  C_10
REMARK    5  A    between atoms: C_18  and  O_19
REMARK    6  A    between atoms: C_18  and  C_20
REMARK    7  A    between atoms: C_20  and  N_21
REMARK    8  A    between atoms: C_24  and  C_25
REMARK                            x       y       z     vdW  Elec       q    Type
REMARK                         _______ _______ _______ _____ _____    ______ ____
ROOT
ATOM      1  C   UNL     1      -1.683  10.351  18.431  0.00  0.00    +0.000 C 
ATOM      2  C   UNL     1      -1.573  11.588  19.380  0.00  0.00    +0.000 C 
ATOM      3  C   UNL     1      -2.991  12.196  19.395  0.00  0.00    +0.000 C 
ATOM      4  C   UNL     1      -1.170  11.058  20.775  0.00  0.00    +0.000 C 
ATOM      5  N   UNL     1       0.148  10.413  20.716  0.00  0.00    +0.000 N 
ATOM      6  C   UNL     1       0.236   9.084  21.104  0.00  0.00    +0.000 C 
ATOM      7  O   UNL     1      -0.743   8.446  21.490  0.00  0.00    +0.000 OA
ATOM      8  N   UNL     1       1.463   8.501  20.974  0.00  0.00    +0.000 N 
ATOM      9  C   UNL     1       1.247  11.230  20.187  0.00  0.00    +0.000 C 
ATOM     10  C   UNL     1       0.887  11.907  18.860  0.00  0.00    +0.000 C 
ATOM     11  C   UNL     1      -0.474  12.632  18.925  0.00  0.00    +0.000 C 
ATOM     12  H   UNL     1       2.265   9.087  21.132  0.00  0.00    +0.000 HD
ENDROOT
BRANCH  11  13
ATOM     13  O   UNL     1      -0.814  13.117  17.613  0.00  0.00    +0.000 OA
ATOM     14  H   UNL     1      -0.019  13.507  17.209  0.00  0.00    +0.000 HD
ENDBRANCH  11  13
BRANCH   8  15
ATOM     15  C   UNL     1       1.646   7.105  21.306  0.00  0.00    +0.000 C 
BRANCH  15  16
ATOM     16  C   UNL     1       1.976   6.298  20.078  0.00  0.00    +0.000 A 
ATOM     17  C   UNL     1       1.661   4.934  20.002  0.00  0.00    +0.000 A 
ATOM     18  C   UNL     1       1.971   4.202  18.852  0.00  0.00    +0.000 A 
ATOM     19  C   UNL     1       2.605   4.823  17.776  0.00  0.00    +0.000 A 
ATOM     20  C   UNL     1       2.934   6.174  17.847  0.00  0.00    +0.000 A 
ATOM     21  C   UNL     1       2.626   6.907  18.995  0.00  0.00    +0.000 A 
ENDBRANCH  15  16
ENDBRANCH   8  15
BRANCH  11  22
ATOM     22  C   UNL     1      -0.379  13.910  19.858  0.00  0.00    +0.000 C 
BRANCH  22  23
ATOM     23  N   UNL     1       0.916  14.593  19.809  0.00  0.00    +0.000 N 
ATOM     24  C   UNL     1       1.322  15.237  18.663  0.00  0.00    +0.000 A 
ATOM     25  N   UNL     1       2.502  15.725  18.457  0.00  0.00    +0.000 NA
ATOM     26  C   UNL     1       3.442  15.511  19.438  0.00  0.00    +0.000 A 
ATOM     27  C   UNL     1       3.123  15.068  20.662  0.00  0.00    +0.000 A 
ATOM     28  C   UNL     1       1.748  14.613  20.908  0.00  0.00    +0.000 A 
ATOM     29  O   UNL     1       1.431  14.230  22.031  0.00  0.00    +0.000 OA
BRANCH  26  30
ATOM     30  C   UNL     1       4.868  15.724  19.070  0.00  0.00    +0.000 A 
ATOM     31  C   UNL     1       5.550  16.888  19.474  0.00  0.00    +0.000 A 
ATOM     32  C   UNL     1       6.861  17.139  19.052  0.00  0.00    +0.000 A 
ATOM     33  C   UNL     1       7.520  16.235  18.220  0.00  0.00    +0.000 A 
ATOM     34  C   UNL     1       6.866  15.081  17.806  0.00  0.00    +0.000 A 
ATOM     35  C   UNL     1       5.557  14.838  18.226  0.00  0.00    +0.000 A 
ATOM     36  F   UNL     1       4.957  13.732  17.758  0.00  0.00    +0.000 F 
ENDBRANCH  26  30
ENDBRANCH  22  23
ENDBRANCH  11  22
TORSDOF 6
ENDMDL
