MODEL 1
REMARK VINA RESULT:      -6.9      0.000      0.000
REMARK  Name = 
REMARK  8 active torsions:
REMARK  status: ('A' for Active; 'I' for Inactive)
REMARK    1  A    between atoms: C_1  and  O_2
REMARK    2  A    between atoms: O_2  and  C_3
REMARK    3  A    between atoms: C_5  and  O_6
REMARK    4  A    between atoms: O_6  and  C_7
REMARK    5  A    between atoms: C_16  and  C_17
REMARK    6  A    between atoms: C_17  and  C_18
REMARK    7  A    between atoms: C_24  and  O_25
REMARK    8  A    between atoms: C_27  and  C_28
REMARK                            x       y       z     vdW  Elec       q    Type
REMARK                         _______ _______ _______ _____ _____    ______ ____
ROOT
ATOM      1  C   UNL     1       2.377   8.923  18.267  0.00  0.00    +0.000 A 
ATOM      2  C   UNL     1       1.604   8.977  19.418  0.00  0.00    +0.000 A 
ATOM      3  C   UNL     1       1.328   7.811  20.202  0.00  0.00    +0.000 A 
ATOM      4  C   UNL     1       1.785   6.583  19.733  0.00  0.00    +0.000 A 
ATOM      5  C   UNL     1       2.427   6.537  18.525  0.00  0.00    +0.000 A 
ATOM      6  C   UNL     1       2.817   7.683  17.819  0.00  0.00    +0.000 A 
ATOM      7 CL   UNL     1       3.840   7.594  16.433  0.00  0.00    +0.000 Cl
ATOM      8  O   UNL     1       2.525   5.279  18.021  0.00  0.00    +0.000 OA
ATOM      9  C   UNL     1       2.577   4.298  19.148  0.00  0.00    +0.000 C 
ATOM     10  C   UNL     1       4.133   4.275  19.320  0.00  0.00    +0.000 C 
ATOM     11  O   UNL     1       4.751   4.767  20.269  0.00  0.00    +0.000 OA
ATOM     12  C   UNL     1       4.898   3.546  18.174  0.00  0.00    +0.000 C 
ATOM     13  C   UNL     1       4.592   2.287  18.538  0.00  0.00    +0.000 C 
ATOM     14  C   UNL     1       3.187   1.809  18.261  0.00  0.00    +0.000 C 
ATOM     15  C   UNL     1       2.079   2.923  18.478  0.00  0.00    +0.000 C 
ATOM     16  C   UNL     1       0.785   2.217  18.898  0.00  0.00    +0.000 C 
ATOM     17  C   UNL     1       1.752   5.145  20.152  0.00  0.00    +0.000 C 
ATOM     18  O   UNL     1       1.163   4.736  21.135  0.00  0.00    +0.000 OA
ENDROOT
BRANCH   1  20
ATOM     19  C   UNL     1       2.322  11.293  17.845  0.00  0.00    +0.000 C 
ATOM     20  O   UNL     1       2.716   9.986  17.469  0.00  0.00    +0.000 OA
ENDBRANCH   1  20
BRANCH   3  21
ATOM     21  O   UNL     1       0.570   7.889  21.343  0.00  0.00    +0.000 OA
ATOM     22  C   UNL     1      -0.039   9.161  21.604  0.00  0.00    +0.000 C 
ENDBRANCH   3  21
BRANCH  13  23
ATOM     23  O   UNL     1       5.112   1.729  19.700  0.00  0.00    +0.000 OA
ATOM     24  H   UNL     1       5.723   1.002  19.467  0.00  0.00    +0.000 HD
ENDBRANCH  13  23
BRANCH  12  25
ATOM     25  C   UNL     1       4.478   4.170  16.852  0.00  0.00    +0.000 C 
BRANCH  25  26
ATOM     26  C   UNL     1       5.230   4.420  15.586  0.00  0.00    +0.000 A 
ATOM     27  C   UNL     1       4.893   3.911  14.348  0.00  0.00    +0.000 A 
ATOM     28  C   UNL     1       5.817   3.993  13.299  0.00  0.00    +0.000 A 
ATOM     29  C   UNL     1       7.077   4.575  13.483  0.00  0.00    +0.000 A 
ATOM     30  C   UNL     1       7.427   5.106  14.715  0.00  0.00    +0.000 A 
ATOM     31  C   UNL     1       6.505   5.037  15.754  0.00  0.00    +0.000 A 
ENDBRANCH  25  26
ENDBRANCH  12  25
TORSDOF 5
ENDMDL
MODEL 2
REMARK VINA RESULT:      -6.8      4.867      8.363
REMARK  Name = 
REMARK  8 active torsions:
REMARK  status: ('A' for Active; 'I' for Inactive)
REMARK    1  A    between atoms: C_1  and  O_2
REMARK    2  A    between atoms: O_2  and  C_3
REMARK    3  A    between atoms: C_5  and  O_6
REMARK    4  A    between atoms: O_6  and  C_7
REMARK    5  A    between atoms: C_16  and  C_17
REMARK    6  A    between atoms: C_17  and  C_18
REMARK    7  A    between atoms: C_24  and  O_25
REMARK    8  A    between atoms: C_27  and  C_28
REMARK                            x       y       z     vdW  Elec       q    Type
REMARK                         _______ _______ _______ _____ _____    ______ ____
ROOT
ATOM      1  C   UNL     1      -3.991  10.489  16.305  0.00  0.00    +0.000 A 
ATOM      2  C   UNL     1      -4.975  11.325  16.815  0.00  0.00    +0.000 A 
ATOM      3  C   UNL     1      -4.765  12.115  17.991  0.00  0.00    +0.000 A 
ATOM      4  C   UNL     1      -3.563  11.962  18.677  0.00  0.00    +0.000 A 
ATOM      5  C   UNL     1      -2.664  11.030  18.231  0.00  0.00    +0.000 A 
ATOM      6  C   UNL     1      -2.803  10.351  17.013  0.00  0.00    +0.000 A 
ATOM      7 CL   UNL     1      -1.537   9.377  16.365  0.00  0.00    +0.000 Cl
ATOM      8  O   UNL     1      -1.706  10.734  19.147  0.00  0.00    +0.000 OA
ATOM      9  C   UNL     1      -1.464  11.928  20.014  0.00  0.00    +0.000 C 
ATOM     10  C   UNL     1      -0.337  12.580  19.145  0.00  0.00    +0.000 C 
ATOM     11  O   UNL     1      -0.461  13.610  18.475  0.00  0.00    +0.000 OA
ATOM     12  C   UNL     1       1.027  11.826  19.187  0.00  0.00    +0.000 C 
ATOM     13  C   UNL     1       1.404  12.222  20.416  0.00  0.00    +0.000 C 
ATOM     14  C   UNL     1       0.711  11.578  21.593  0.00  0.00    +0.000 C 
ATOM     15  C   UNL     1      -0.833  11.303  21.354  0.00  0.00    +0.000 C 
ATOM     16  C   UNL     1      -1.534  11.378  22.714  0.00  0.00    +0.000 C 
ATOM     17  C   UNL     1      -2.895  12.516  19.898  0.00  0.00    +0.000 C 
ATOM     18  O   UNL     1      -3.420  13.306  20.661  0.00  0.00    +0.000 OA
ENDROOT
BRANCH   1  20
ATOM     19  C   UNL     1      -3.675  10.248  13.931  0.00  0.00    +0.000 C 
ATOM     20  O   UNL     1      -4.091   9.718  15.176  0.00  0.00    +0.000 OA
ENDBRANCH   1  20
BRANCH   3  21
ATOM     21  O   UNL     1      -5.746  12.944  18.472  0.00  0.00    +0.000 OA
ATOM     22  C   UNL     1      -6.833  13.213  17.575  0.00  0.00    +0.000 C 
ENDBRANCH   3  21
BRANCH  13  23
ATOM     23  O   UNL     1       1.741  13.546  20.673  0.00  0.00    +0.000 OA
ATOM     24  H   UNL     1       2.710  13.657  20.593  0.00  0.00    +0.000 HD
ENDBRANCH  13  23
BRANCH  12  25
ATOM     25  C   UNL     1       0.778  10.375  18.805  0.00  0.00    +0.000 C 
BRANCH  25  26
ATOM     26  C   UNL     1       1.645   9.162  18.886  0.00  0.00    +0.000 A 
ATOM     27  C   UNL     1       2.367   8.630  17.837  0.00  0.00    +0.000 A 
ATOM     28  C   UNL     1       2.921   7.350  17.965  0.00  0.00    +0.000 A 
ATOM     29  C   UNL     1       2.750   6.598  19.134  0.00  0.00    +0.000 A 
ATOM     30  C   UNL     1       2.042   7.122  20.203  0.00  0.00    +0.000 A 
ATOM     31  C   UNL     1       1.503   8.398  20.082  0.00  0.00    +0.000 A 
ENDBRANCH  25  26
ENDBRANCH  12  25
TORSDOF 5
ENDMDL
MODEL 3
REMARK VINA RESULT:      -6.6      5.562      9.136
REMARK  Name = 
REMARK  8 active torsions:
REMARK  status: ('A' for Active; 'I' for Inactive)
REMARK    1  A    between atoms: C_1  and  O_2
REMARK    2  A    between atoms: O_2  and  C_3
REMARK    3  A    between atoms: C_5  and  O_6
REMARK    4  A    between atoms: O_6  and  C_7
REMARK    5  A    between atoms: C_16  and  C_17
REMARK    6  A    between atoms: C_17  and  C_18
REMARK    7  A    between atoms: C_24  and  O_25
REMARK    8  A    between atoms: C_27  and  C_28
REMARK                            x       y       z     vdW  Elec       q    Type
REMARK                         _______ _______ _______ _____ _____    ______ ____
ROOT
ATOM      1  C   UNL     1      -4.112  10.758  16.612  0.00  0.00    +0.000 A 
ATOM      2  C   UNL     1      -5.191  11.598  16.848  0.00  0.00    +0.000 A 
ATOM      3  C   UNL     1      -5.236  12.476  17.978  0.00  0.00    +0.000 A 
ATOM      4  C   UNL     1      -4.197  12.408  18.903  0.00  0.00    +0.000 A 
ATOM      5  C   UNL     1      -3.213  11.474  18.719  0.00  0.00    +0.000 A 
ATOM      6  C   UNL     1      -3.091  10.706  17.553  0.00  0.00    +0.000 A 
ATOM      7 CL   UNL     1      -1.705   9.727  17.249  0.00  0.00    +0.000 Cl
ATOM      8  O   UNL     1      -2.456  11.273  19.829  0.00  0.00    +0.000 OA
ATOM      9  C   UNL     1      -2.414  12.533  20.634  0.00  0.00    +0.000 C 
ATOM     10  C   UNL     1      -1.144  13.155  19.964  0.00  0.00    +0.000 C 
ATOM     11  O   UNL     1      -1.144  14.130  19.207  0.00  0.00    +0.000 OA
ATOM     12  C   UNL     1       0.194  12.447  20.337  0.00  0.00    +0.000 C 
ATOM     13  C   UNL     1       0.307  12.941  21.584  0.00  0.00    +0.000 C 
ATOM     14  C   UNL     1      -0.601  12.361  22.642  0.00  0.00    +0.000 C 
ATOM     15  C   UNL     1      -2.060  12.024  22.118  0.00  0.00    +0.000 C 
ATOM     16  C   UNL     1      -3.025  12.174  23.298  0.00  0.00    +0.000 C 
ATOM     17  C   UNL     1      -3.801  13.067  20.188  0.00  0.00    +0.000 C 
ATOM     18  O   UNL     1      -4.481  13.894  20.767  0.00  0.00    +0.000 OA
ENDROOT
BRANCH   1  20
ATOM     19  C   UNL     1      -3.327  10.363  14.370  0.00  0.00    +0.000 C 
ATOM     20  O   UNL     1      -3.968   9.906  15.547  0.00  0.00    +0.000 OA
ENDBRANCH   1  20
BRANCH   3  21
ATOM     21  O   UNL     1      -6.308  13.307  18.187  0.00  0.00    +0.000 OA
ATOM     22  C   UNL     1      -7.395  12.749  18.940  0.00  0.00    +0.000 C 
ENDBRANCH   3  21
BRANCH  13  23
ATOM     23  O   UNL     1       0.565  14.289  21.802  0.00  0.00    +0.000 OA
ATOM     24  H   UNL     1      -0.254  14.733  22.102  0.00  0.00    +0.000 HD
ENDBRANCH  13  23
BRANCH  12  25
ATOM     25  C   UNL     1       0.050  10.966  20.024  0.00  0.00    +0.000 C 
BRANCH  25  26
ATOM     26  C   UNL     1       1.033   9.951  19.538  0.00  0.00    +0.000 A 
ATOM     27  C   UNL     1       1.566   9.908  18.266  0.00  0.00    +0.000 A 
ATOM     28  C   UNL     1       2.261   8.764  17.853  0.00  0.00    +0.000 A 
ATOM     29  C   UNL     1       2.418   7.662  18.702  0.00  0.00    +0.000 A 
ATOM     30  C   UNL     1       1.903   7.694  19.989  0.00  0.00    +0.000 A 
ATOM     31  C   UNL     1       1.225   8.834  20.404  0.00  0.00    +0.000 A 
ENDBRANCH  25  26
ENDBRANCH  12  25
TORSDOF 5
ENDMDL
MODEL 4
REMARK VINA RESULT:      -6.6      7.871     11.449
REMARK  Name = 
REMARK  8 active torsions:
REMARK  status: ('A' for Active; 'I' for Inactive)
REMARK    1  A    between atoms: C_1  and  O_2
REMARK    2  A    between atoms: O_2  and  C_3
REMARK    3  A    between atoms: C_5  and  O_6
REMARK    4  A    between atoms: O_6  and  C_7
REMARK    5  A    between atoms: C_16  and  C_17
REMARK    6  A    between atoms: C_17  and  C_18
REMARK    7  A    between atoms: C_24  and  O_25
REMARK    8  A    between atoms: C_27  and  C_28
REMARK                            x       y       z     vdW  Elec       q    Type
REMARK                         _______ _______ _______ _____ _____    ______ ____
ROOT
ATOM      1  C   UNL     1      -4.583  11.485  17.340  0.00  0.00    +0.000 A 
ATOM      2  C   UNL     1      -5.750  12.188  17.079  0.00  0.00    +0.000 A 
ATOM      3  C   UNL     1      -6.314  13.101  18.028  0.00  0.00    +0.000 A 
ATOM      4  C   UNL     1      -5.707  13.207  19.276  0.00  0.00    +0.000 A 
ATOM      5  C   UNL     1      -4.636  12.400  19.558  0.00  0.00    +0.000 A 
ATOM      6  C   UNL     1      -4.000  11.605  18.596  0.00  0.00    +0.000 A 
ATOM      7 CL   UNL     1      -2.510  10.800  18.921  0.00  0.00    +0.000 Cl
ATOM      8  O   UNL     1      -4.345  12.347  20.884  0.00  0.00    +0.000 OA
ATOM      9  C   UNL     1      -4.744  13.634  21.531  0.00  0.00    +0.000 C 
ATOM     10  C   UNL     1      -3.385  14.385  21.333  0.00  0.00    +0.000 C 
ATOM     11  O   UNL     1      -3.196  15.319  20.547  0.00  0.00    +0.000 OA
ATOM     12  C   UNL     1      -2.226  13.872  22.241  0.00  0.00    +0.000 C 
ATOM     13  C   UNL     1      -2.649  14.429  23.389  0.00  0.00    +0.000 C 
ATOM     14  C   UNL     1      -3.828  13.784  24.078  0.00  0.00    +0.000 C 
ATOM     15  C   UNL     1      -4.932  13.239  23.078  0.00  0.00    +0.000 C 
ATOM     16  C   UNL     1      -6.285  13.314  23.794  0.00  0.00    +0.000 C 
ATOM     17  C   UNL     1      -5.901  13.966  20.553  0.00  0.00    +0.000 C 
ATOM     18  O   UNL     1      -6.832  14.722  20.759  0.00  0.00    +0.000 OA
ENDROOT
BRANCH   1  20
ATOM     19  C   UNL     1      -3.177  11.122  15.419  0.00  0.00    +0.000 C 
ATOM     20  O   UNL     1      -3.956  10.613  16.486  0.00  0.00    +0.000 OA
ENDBRANCH   1  20
BRANCH   3  21
ATOM     21  O   UNL     1      -7.463  13.795  17.746  0.00  0.00    +0.000 OA
ATOM     22  C   UNL     1      -7.311  14.938  16.893  0.00  0.00    +0.000 C 
ENDBRANCH   3  21
BRANCH  13  23
ATOM     23  O   UNL     1      -2.634  15.808  23.569  0.00  0.00    +0.000 OA
ATOM     24  H   UNL     1      -1.804  16.070  24.015  0.00  0.00    +0.000 HD
ENDBRANCH  13  23
BRANCH  12  25
ATOM     25  C   UNL     1      -2.086  12.373  22.028  0.00  0.00    +0.000 C 
BRANCH  25  26
ATOM     26  C   UNL     1      -0.911  11.457  22.139  0.00  0.00    +0.000 A 
ATOM     27  C   UNL     1       0.089  11.331  21.197  0.00  0.00    +0.000 A 
ATOM     28  C   UNL     1       0.982  10.256  21.285  0.00  0.00    +0.000 A 
ATOM     29  C   UNL     1       0.876   9.305  22.307  0.00  0.00    +0.000 A 
ATOM     30  C   UNL     1      -0.111   9.425  23.272  0.00  0.00    +0.000 A 
ATOM     31  C   UNL     1      -0.991  10.499  23.192  0.00  0.00    +0.000 A 
ENDBRANCH  25  26
ENDBRANCH  12  25
TORSDOF 5
ENDMDL
MODEL 5
REMARK VINA RESULT:      -6.4      6.497     10.553
REMARK  Name = 
REMARK  8 active torsions:
REMARK  status: ('A' for Active; 'I' for Inactive)
REMARK    1  A    between atoms: C_1  and  O_2
REMARK    2  A    between atoms: O_2  and  C_3
REMARK    3  A    between atoms: C_5  and  O_6
REMARK    4  A    between atoms: O_6  and  C_7
REMARK    5  A    between atoms: C_16  and  C_17
REMARK    6  A    between atoms: C_17  and  C_18
REMARK    7  A    between atoms: C_24  and  O_25
REMARK    8  A    between atoms: C_27  and  C_28
REMARK                            x       y       z     vdW  Elec       q    Type
REMARK                         _______ _______ _______ _____ _____    ______ ____
ROOT
ATOM      1  C   UNL     1       2.421  15.389  22.010  0.00  0.00    +0.000 A 
ATOM      2  C   UNL     1       3.534  15.406  21.181  0.00  0.00    +0.000 A 
ATOM      3  C   UNL     1       3.613  14.599  20.000  0.00  0.00    +0.000 A 
ATOM      4  C   UNL     1       2.570  13.714  19.740  0.00  0.00    +0.000 A 
ATOM      5  C   UNL     1       1.548  13.617  20.646  0.00  0.00    +0.000 A 
ATOM      6  C   UNL     1       1.397  14.492  21.730  0.00  0.00    +0.000 A 
ATOM      7 CL   UNL     1      -0.028  14.501  22.701  0.00  0.00    +0.000 Cl
ATOM      8  O   UNL     1       0.781  12.511  20.466  0.00  0.00    +0.000 OA
ATOM      9  C   UNL     1       0.789  12.133  19.020  0.00  0.00    +0.000 C 
ATOM     10  C   UNL     1      -0.453  12.980  18.585  0.00  0.00    +0.000 C 
ATOM     11  O   UNL     1      -0.410  14.001  17.890  0.00  0.00    +0.000 OA
ATOM     12  C   UNL     1      -1.820  12.428  19.091  0.00  0.00    +0.000 C 
ATOM     13  C   UNL     1      -1.915  11.396  18.234  0.00  0.00    +0.000 C 
ATOM     14  C   UNL     1      -1.034  10.197  18.494  0.00  0.00    +0.000 C 
ATOM     15  C   UNL     1       0.410  10.570  19.033  0.00  0.00    +0.000 C 
ATOM     16  C   UNL     1       1.377   9.478  18.565  0.00  0.00    +0.000 C 
ATOM     17  C   UNL     1       2.198  12.700  18.703  0.00  0.00    +0.000 C 
ATOM     18  O   UNL     1       2.910  12.393  17.765  0.00  0.00    +0.000 OA
ENDROOT
BRANCH   1  20
ATOM     19  C   UNL     1       2.125  17.548  23.032  0.00  0.00    +0.000 C 
ATOM     20  O   UNL     1       2.245  16.142  23.142  0.00  0.00    +0.000 OA
ENDBRANCH   1  20
BRANCH   3  21
ATOM     21  O   UNL     1       4.718  14.640  19.188  0.00  0.00    +0.000 OA
ATOM     22  C   UNL     1       4.611  15.477  18.028  0.00  0.00    +0.000 C 
ENDBRANCH   3  21
BRANCH  13  23
ATOM     23  O   UNL     1      -2.117  11.606  16.874  0.00  0.00    +0.000 OA
ATOM     24  H   UNL     1      -1.449  11.106  16.364  0.00  0.00    +0.000 HD
ENDBRANCH  13  23
BRANCH  12  25
ATOM     25  C   UNL     1      -1.737  12.269  20.601  0.00  0.00    +0.000 C 
BRANCH  25  26
ATOM     26  C   UNL     1      -2.699  12.609  21.692  0.00  0.00    +0.000 A 
ATOM     27  C   UNL     1      -2.588  12.199  23.005  0.00  0.00    +0.000 A 
ATOM     28  C   UNL     1      -3.681  12.352  23.866  0.00  0.00    +0.000 A 
ATOM     29  C   UNL     1      -4.887  12.907  23.419  0.00  0.00    +0.000 A 
ATOM     30  C   UNL     1      -5.011  13.340  22.108  0.00  0.00    +0.000 A 
ATOM     31  C   UNL     1      -3.921  13.200  21.256  0.00  0.00    +0.000 A 
ENDBRANCH  25  26
ENDBRANCH  12  25
TORSDOF 5
ENDMDL
MODEL 6
REMARK VINA RESULT:      -6.4      6.557     10.573
REMARK  Name = 
REMARK  8 active torsions:
REMARK  status: ('A' for Active; 'I' for Inactive)
REMARK    1  A    between atoms: C_1  and  O_2
REMARK    2  A    between atoms: O_2  and  C_3
REMARK    3  A    between atoms: C_5  and  O_6
REMARK    4  A    between atoms: O_6  and  C_7
REMARK    5  A    between atoms: C_16  and  C_17
REMARK    6  A    between atoms: C_17  and  C_18
REMARK    7  A    between atoms: C_24  and  O_25
REMARK    8  A    between atoms: C_27  and  C_28
REMARK                            x       y       z     vdW  Elec       q    Type
REMARK                         _______ _______ _______ _____ _____    ______ ____
ROOT
ATOM      1  C   UNL     1       2.281  15.434  22.141  0.00  0.00    +0.000 A 
ATOM      2  C   UNL     1       3.437  15.435  21.374  0.00  0.00    +0.000 A 
ATOM      3  C   UNL     1       3.570  14.628  20.198  0.00  0.00    +0.000 A 
ATOM      4  C   UNL     1       2.530  13.759  19.880  0.00  0.00    +0.000 A 
ATOM      5  C   UNL     1       1.459  13.675  20.729  0.00  0.00    +0.000 A 
ATOM      6  C   UNL     1       1.261  14.552  21.804  0.00  0.00    +0.000 A 
ATOM      7 CL   UNL     1      -0.215  14.581  22.695  0.00  0.00    +0.000 Cl
ATOM      8  O   UNL     1       0.687  12.580  20.505  0.00  0.00    +0.000 OA
ATOM      9  C   UNL     1       0.770  12.203  19.061  0.00  0.00    +0.000 C 
ATOM     10  C   UNL     1      -0.434  13.069  18.559  0.00  0.00    +0.000 C 
ATOM     11  O   UNL     1      -0.339  14.089  17.870  0.00  0.00    +0.000 OA
ATOM     12  C   UNL     1      -1.835  12.536  18.989  0.00  0.00    +0.000 C 
ATOM     13  C   UNL     1      -1.898  11.505  18.126  0.00  0.00    +0.000 C 
ATOM     14  C   UNL     1      -1.050  10.294  18.433  0.00  0.00    +0.000 C 
ATOM     15  C   UNL     1       0.368  10.646  19.051  0.00  0.00    +0.000 C 
ATOM     16  C   UNL     1       1.344   9.540  18.635  0.00  0.00    +0.000 C 
ATOM     17  C   UNL     1       2.201  12.751  18.822  0.00  0.00    +0.000 C 
ATOM     18  O   UNL     1       2.960  12.434  17.925  0.00  0.00    +0.000 OA
ENDROOT
BRANCH   1  20
ATOM     19  C   UNL     1       3.069  17.052  23.740  0.00  0.00    +0.000 C 
ATOM     20  O   UNL     1       2.054  16.189  23.263  0.00  0.00    +0.000 OA
ENDBRANCH   1  20
BRANCH   3  21
ATOM     21  O   UNL     1       4.718  14.653  19.448  0.00  0.00    +0.000 OA
ATOM     22  C   UNL     1       5.873  15.212  20.090  0.00  0.00    +0.000 C 
ENDBRANCH   3  21
BRANCH  13  23
ATOM     23  O   UNL     1      -2.022  11.719  16.758  0.00  0.00    +0.000 OA
ATOM     24  H   UNL     1      -1.228  11.376  16.301  0.00  0.00    +0.000 HD
ENDBRANCH  13  23
BRANCH  12  25
ATOM     25  C   UNL     1      -1.837  12.375  20.501  0.00  0.00    +0.000 C 
BRANCH  25  26
ATOM     26  C   UNL     1      -2.934  12.471  21.511  0.00  0.00    +0.000 A 
ATOM     27  C   UNL     1      -4.140  13.112  21.315  0.00  0.00    +0.000 A 
ATOM     28  C   UNL     1      -4.968  13.366  22.415  0.00  0.00    +0.000 A 
ATOM     29  C   UNL     1      -4.593  12.987  23.710  0.00  0.00    +0.000 A 
ATOM     30  C   UNL     1      -3.394  12.327  23.924  0.00  0.00    +0.000 A 
ATOM     31  C   UNL     1      -2.576  12.063  22.830  0.00  0.00    +0.000 A 
ENDBRANCH  25  26
ENDBRANCH  12  25
TORSDOF 5
ENDMDL
MODEL 7
REMARK VINA RESULT:      -6.3      8.513     13.129
REMARK  Name = 
REMARK  8 active torsions:
REMARK  status: ('A' for Active; 'I' for Inactive)
REMARK    1  A    between atoms: C_1  and  O_2
REMARK    2  A    between atoms: O_2  and  C_3
REMARK    3  A    between atoms: C_5  and  O_6
REMARK    4  A    between atoms: O_6  and  C_7
REMARK    5  A    between atoms: C_16  and  C_17
REMARK    6  A    between atoms: C_17  and  C_18
REMARK    7  A    between atoms: C_24  and  O_25
REMARK    8  A    between atoms: C_27  and  C_28
REMARK                            x       y       z     vdW  Elec       q    Type
REMARK                         _______ _______ _______ _____ _____    ______ ____
ROOT
ATOM      1  C   UNL     1      -0.947  13.490  21.457  0.00  0.00    +0.000 A 
ATOM      2  C   UNL     1      -0.293  14.129  22.501  0.00  0.00    +0.000 A 
ATOM      3  C   UNL     1      -1.007  14.764  23.568  0.00  0.00    +0.000 A 
ATOM      4  C   UNL     1      -2.397  14.805  23.493  0.00  0.00    +0.000 A 
ATOM      5  C   UNL     1      -3.012  14.288  22.384  0.00  0.00    +0.000 A 
ATOM      6  C   UNL     1      -2.334  13.551  21.404  0.00  0.00    +0.000 A 
ATOM      7 CL   UNL     1      -3.174  12.704  20.158  0.00  0.00    +0.000 Cl
ATOM      8  O   UNL     1      -4.308  14.677  22.265  0.00  0.00    +0.000 OA
ATOM      9  C   UNL     1      -4.879  14.920  23.625  0.00  0.00    +0.000 C 
ATOM     10  C   UNL     1      -5.410  13.470  23.880  0.00  0.00    +0.000 C 
ATOM     11  O   UNL     1      -4.924  12.666  24.683  0.00  0.00    +0.000 OA
ATOM     12  C   UNL     1      -6.658  13.081  23.032  0.00  0.00    +0.000 C 
ATOM     13  C   UNL     1      -7.564  13.799  23.722  0.00  0.00    +0.000 C 
ATOM     14  C   UNL     1      -7.562  15.295  23.516  0.00  0.00    +0.000 C 
ATOM     15  C   UNL     1      -6.112  15.915  23.346  0.00  0.00    +0.000 C 
ATOM     16  C   UNL     1      -6.155  17.351  23.879  0.00  0.00    +0.000 C 
ATOM     17  C   UNL     1      -3.544  15.330  24.300  0.00  0.00    +0.000 C 
ATOM     18  O   UNL     1      -3.417  15.974  25.326  0.00  0.00    +0.000 OA
ENDROOT
BRANCH   1  20
ATOM     19  C   UNL     1       0.355  11.632  20.651  0.00  0.00    +0.000 C 
ATOM     20  O   UNL     1      -0.350  12.836  20.410  0.00  0.00    +0.000 OA
ENDBRANCH   1  20
BRANCH   3  21
ATOM     21  O   UNL     1      -0.342  15.381  24.596  0.00  0.00    +0.000 OA
ATOM     22  C   UNL     1      -0.006  16.760  24.386  0.00  0.00    +0.000 C 
ENDBRANCH   3  21
BRANCH  13  23
ATOM     23  O   UNL     1      -7.916  13.453  25.021  0.00  0.00    +0.000 OA
ATOM     24  H   UNL     1      -7.752  12.499  25.161  0.00  0.00    +0.000 HD
ENDBRANCH  13  23
BRANCH  12  25
ATOM     25  C   UNL     1      -6.329  13.319  21.567  0.00  0.00    +0.000 C 
BRANCH  25  26
ATOM     26  C   UNL     1      -6.658  12.543  20.334  0.00  0.00    +0.000 A 
ATOM     27  C   UNL     1      -6.801  11.172  20.272  0.00  0.00    +0.000 A 
ATOM     28  C   UNL     1      -6.842  10.542  19.023  0.00  0.00    +0.000 A 
ATOM     29  C   UNL     1      -6.734  11.276  17.835  0.00  0.00    +0.000 A 
ATOM     30  C   UNL     1      -6.607  12.655  17.876  0.00  0.00    +0.000 A 
ATOM     31  C   UNL     1      -6.579  13.283  19.117  0.00  0.00    +0.000 A 
ENDBRANCH  25  26
ENDBRANCH  12  25
TORSDOF 5
ENDMDL
MODEL 8
REMARK VINA RESULT:      -6.2      7.933     10.387
REMARK  Name = 
REMARK  8 active torsions:
REMARK  status: ('A' for Active; 'I' for Inactive)
REMARK    1  A    between atoms: C_1  and  O_2
REMARK    2  A    between atoms: O_2  and  C_3
REMARK    3  A    between atoms: C_5  and  O_6
REMARK    4  A    between atoms: O_6  and  C_7
REMARK    5  A    between atoms: C_16  and  C_17
REMARK    6  A    between atoms: C_17  and  C_18
REMARK    7  A    between atoms: C_24  and  O_25
REMARK    8  A    between atoms: C_27  and  C_28
REMARK                            x       y       z     vdW  Elec       q    Type
REMARK                         _______ _______ _______ _____ _____    ______ ____
ROOT
ATOM      1  C   UNL     1      -5.804  14.227  22.108  0.00  0.00    +0.000 A 
ATOM      2  C   UNL     1      -5.357  14.630  23.359  0.00  0.00    +0.000 A 
ATOM      3  C   UNL     1      -4.004  14.431  23.782  0.00  0.00    +0.000 A 
ATOM      4  C   UNL     1      -3.147  13.735  22.933  0.00  0.00    +0.000 A 
ATOM      5  C   UNL     1      -3.649  13.227  21.764  0.00  0.00    +0.000 A 
ATOM      6  C   UNL     1      -4.930  13.529  21.283  0.00  0.00    +0.000 A 
ATOM      7 CL   UNL     1      -5.435  13.082  19.696  0.00  0.00    +0.000 Cl
ATOM      8  O   UNL     1      -2.834  12.302  21.193  0.00  0.00    +0.000 OA
ATOM      9  C   UNL     1      -1.414  12.604  21.551  0.00  0.00    +0.000 C 
ATOM     10  C   UNL     1      -1.096  13.535  20.333  0.00  0.00    +0.000 C 
ATOM     11  O   UNL     1      -0.936  14.758  20.395  0.00  0.00    +0.000 OA
ATOM     12  C   UNL     1      -0.971  12.791  18.969  0.00  0.00    +0.000 C 
ATOM     13  C   UNL     1       0.239  12.244  19.182  0.00  0.00    +0.000 C 
ATOM     14  C   UNL     1       0.310  11.070  20.129  0.00  0.00    +0.000 C 
ATOM     15  C   UNL     1      -0.669  11.191  21.372  0.00  0.00    +0.000 C 
ATOM     16  C   UNL     1      -0.029  10.437  22.543  0.00  0.00    +0.000 C 
ATOM     17  C   UNL     1      -1.721  13.279  22.914  0.00  0.00    +0.000 C 
ATOM     18  O   UNL     1      -0.945  13.432  23.839  0.00  0.00    +0.000 OA
ENDROOT
BRANCH   1  20
ATOM     19  C   UNL     1      -7.493  15.688  21.208  0.00  0.00    +0.000 C 
ATOM     20  O   UNL     1      -7.069  14.398  21.608  0.00  0.00    +0.000 OA
ENDBRANCH   1  20
BRANCH   3  21
ATOM     21  O   UNL     1      -3.580  14.847  25.018  0.00  0.00    +0.000 OA
ATOM     22  C   UNL     1      -3.017  16.166  25.076  0.00  0.00    +0.000 C 
ENDBRANCH   3  21
BRANCH  13  23
ATOM     23  O   UNL     1       1.384  13.031  19.245  0.00  0.00    +0.000 OA
ATOM     24  H   UNL     1       1.160  13.951  18.998  0.00  0.00    +0.000 HD
ENDBRANCH  13  23
BRANCH  12  25
ATOM     25  C   UNL     1      -2.240  11.981  18.753  0.00  0.00    +0.000 C 
BRANCH  25  26
ATOM     26  C   UNL     1      -2.683  11.107  17.625  0.00  0.00    +0.000 A 
ATOM     27  C   UNL     1      -1.941  10.083  17.075  0.00  0.00    +0.000 A 
ATOM     28  C   UNL     1      -2.346   9.518  15.859  0.00  0.00    +0.000 A 
ATOM     29  C   UNL     1      -3.487   9.978  15.189  0.00  0.00    +0.000 A 
ATOM     30  C   UNL     1      -4.254  10.994  15.735  0.00  0.00    +0.000 A 
ATOM     31  C   UNL     1      -3.859  11.546  16.948  0.00  0.00    +0.000 A 
ENDBRANCH  25  26
ENDBRANCH  12  25
TORSDOF 5
ENDMDL
MODEL 9
REMARK VINA RESULT:      -6.2      6.057     11.544
REMARK  Name = 
REMARK  8 active torsions:
REMARK  status: ('A' for Active; 'I' for Inactive)
REMARK    1  A    between atoms: C_1  and  O_2
REMARK    2  A    between atoms: O_2  and  C_3
REMARK    3  A    between atoms: C_5  and  O_6
REMARK    4  A    between atoms: O_6  and  C_7
REMARK    5  A    between atoms: C_16  and  C_17
REMARK    6  A    between atoms: C_17  and  C_18
REMARK    7  A    between atoms: C_24  and  O_25
REMARK    8  A    between atoms: C_27  and  C_28
REMARK                            x       y       z     vdW  Elec       q    Type
REMARK                         _______ _______ _______ _____ _____    ______ ____
ROOT
ATOM      1  C   UNL     1       0.371  11.027  19.052  0.00  0.00    +0.000 A 
ATOM      2  C   UNL     1       1.489  11.533  19.700  0.00  0.00    +0.000 A 
ATOM      3  C   UNL     1       1.385  12.498  20.752  0.00  0.00    +0.000 A 
ATOM      4  C   UNL     1       0.122  12.996  21.062  0.00  0.00    +0.000 A 
ATOM      5  C   UNL     1      -0.950  12.583  20.316  0.00  0.00    +0.000 A 
ATOM      6  C   UNL     1      -0.877  11.545  19.378  0.00  0.00    +0.000 A 
ATOM      7 CL   UNL     1      -2.290  10.883  18.642  0.00  0.00    +0.000 Cl
ATOM      8  O   UNL     1      -2.046  13.367  20.481  0.00  0.00    +0.000 OA
ATOM      9  C   UNL     1      -2.033  13.956  21.855  0.00  0.00    +0.000 C 
ATOM     10  C   UNL     1      -2.829  12.813  22.569  0.00  0.00    +0.000 C 
ATOM     11  O   UNL     1      -2.346  11.999  23.363  0.00  0.00    +0.000 OA
ATOM     12  C   UNL     1      -4.346  12.765  22.215  0.00  0.00    +0.000 C 
ATOM     13  C   UNL     1      -4.726  13.826  22.951  0.00  0.00    +0.000 C 
ATOM     14  C   UNL     1      -4.376  15.196  22.421  0.00  0.00    +0.000 C 
ATOM     15  C   UNL     1      -2.957  15.265  21.717  0.00  0.00    +0.000 C 
ATOM     16  C   UNL     1      -2.414  16.686  21.903  0.00  0.00    +0.000 C 
ATOM     17  C   UNL     1      -0.490  13.973  22.019  0.00  0.00    +0.000 C 
ATOM     18  O   UNL     1       0.150  14.657  22.795  0.00  0.00    +0.000 OA
ENDROOT
BRANCH   1  20
ATOM     19  C   UNL     1       1.527   9.298  17.839  0.00  0.00    +0.000 C 
ATOM     20  O   UNL     1       0.370  10.085  18.056  0.00  0.00    +0.000 OA
ENDBRANCH   1  20
BRANCH   3  21
ATOM     21  O   UNL     1       2.503  12.978  21.387  0.00  0.00    +0.000 OA
ATOM     22  C   UNL     1       3.113  14.132  20.792  0.00  0.00    +0.000 C 
ENDBRANCH   3  21
BRANCH  13  23
ATOM     23  O   UNL     1      -4.702  13.783  24.340  0.00  0.00    +0.000 OA
ATOM     24  H   UNL     1      -4.725  12.852  24.638  0.00  0.00    +0.000 HD
ENDBRANCH  13  23
BRANCH  12  25
ATOM     25  C   UNL     1      -4.478  12.694  20.702  0.00  0.00    +0.000 C 
BRANCH  25  26
ATOM     26  C   UNL     1      -5.672  12.716  19.804  0.00  0.00    +0.000 A 
ATOM     27  C   UNL     1      -6.187  11.621  19.142  0.00  0.00    +0.000 A 
ATOM     28  C   UNL     1      -7.133  11.817  18.128  0.00  0.00    +0.000 A 
ATOM     29  C   UNL     1      -7.561  13.101  17.770  0.00  0.00    +0.000 A 
ATOM     30  C   UNL     1      -7.066  14.211  18.436  0.00  0.00    +0.000 A 
ATOM     31  C   UNL     1      -6.136  14.018  19.451  0.00  0.00    +0.000 A 
ENDBRANCH  25  26
ENDBRANCH  12  25
TORSDOF 5
ENDMDL
