MODEL 1
REMARK VINA RESULT:      -7.0      0.000      0.000
REMARK  Name = 
REMARK  5 active torsions:
REMARK  status: ('A' for Active; 'I' for Inactive)
REMARK    1  A    between atoms: C_1  and  C_2
REMARK    2  A    between atoms: C_2  and  C_3
REMARK    3  A    between atoms: C_6  and  C_7
REMARK    4  A    between atoms: C_7  and  N_8
REMARK    5  A    between atoms: C_16  and  O_17
REMARK                            x       y       z     vdW  Elec       q    Type
REMARK                         _______ _______ _______ _____ _____    ______ ____
ROOT
ATOM      1  C   UNL     1       6.417   5.156  15.768  0.00  0.00    +0.000 A 
ATOM      2  N   UNL     1       5.168   5.747  15.702  0.00  0.00    +0.000 N 
ATOM      3  C   UNL     1       4.371   5.907  16.803  0.00  0.00    +0.000 A 
ATOM      4  C   UNL     1       4.708   5.510  18.037  0.00  0.00    +0.000 A 
ATOM      5  C   UNL     1       6.048   4.858  18.176  0.00  0.00    +0.000 A 
ATOM      6  O   UNL     1       6.480   4.440  19.247  0.00  0.00    +0.000 OA
ATOM      7  C   UNL     1       6.899   4.710  16.942  0.00  0.00    +0.000 A 
ATOM      8  H   UNL     1       4.831   6.079  14.803  0.00  0.00    +0.000 HD
ENDROOT
BRANCH   1  10
ATOM      9  C   UNL     1       6.542   4.115  13.486  0.00  0.00    +0.000 C 
ATOM     10  C   UNL     1       7.203   5.056  14.482  0.00  0.00    +0.000 C 
ENDBRANCH   1  10
BRANCH   7  11
ATOM     11  O   UNL     1       8.135   4.104  17.073  0.00  0.00    +0.000 OA
ATOM     12  H   UNL     1       8.531   4.154  16.179  0.00  0.00    +0.000 HD
ENDBRANCH   7  11
BRANCH   4  13
ATOM     13  C   UNL     1       3.858   5.643  19.270  0.00  0.00    +0.000 C 
BRANCH  13  14
ATOM     14  N   UNL     1       3.253   4.382  19.785  0.00  0.00    +0.000 NA
ATOM     15  C   UNL     1       2.299   4.687  20.869  0.00  0.00    +0.000 C 
ATOM     16  C   UNL     1       1.399   3.520  21.274  0.00  0.00    +0.000 C 
ATOM     17  C   UNL     1       0.697   2.916  20.071  0.00  0.00    +0.000 C 
ATOM     18  C   UNL     1       1.738   2.491  19.049  0.00  0.00    +0.000 C 
ATOM     19  C   UNL     1       2.641   3.660  18.653  0.00  0.00    +0.000 C 
ENDBRANCH  13  14
ENDBRANCH   4  13
TORSDOF 4
ENDMDL
MODEL 2
REMARK VINA RESULT:      -6.8      0.689      1.337
REMARK  Name = 
REMARK  5 active torsions:
REMARK  status: ('A' for Active; 'I' for Inactive)
REMARK    1  A    between atoms: C_1  and  C_2
REMARK    2  A    between atoms: C_2  and  C_3
REMARK    3  A    between atoms: C_6  and  C_7
REMARK    4  A    between atoms: C_7  and  N_8
REMARK    5  A    between atoms: C_16  and  O_17
REMARK                            x       y       z     vdW  Elec       q    Type
REMARK                         _______ _______ _______ _____ _____    ______ ____
ROOT
ATOM      1  C   UNL     1       6.256   5.098  16.257  0.00  0.00    +0.000 A 
ATOM      2  N   UNL     1       5.075   5.784  16.030  0.00  0.00    +0.000 N 
ATOM      3  C   UNL     1       4.201   6.096  17.036  0.00  0.00    +0.000 A 
ATOM      4  C   UNL     1       4.389   5.769  18.321  0.00  0.00    +0.000 A 
ATOM      5  C   UNL     1       5.648   5.021  18.633  0.00  0.00    +0.000 A 
ATOM      6  O   UNL     1       5.942   4.653  19.766  0.00  0.00    +0.000 OA
ATOM      7  C   UNL     1       6.588   4.706  17.499  0.00  0.00    +0.000 A 
ATOM      8  H   UNL     1       4.852   6.072  15.082  0.00  0.00    +0.000 HD
ENDROOT
BRANCH   1  10
ATOM      9  C   UNL     1       6.388   4.123  13.945  0.00  0.00    +0.000 C 
ATOM     10  C   UNL     1       7.141   4.832  15.062  0.00  0.00    +0.000 C 
ENDBRANCH   1  10
BRANCH   7  11
ATOM     11  O   UNL     1       7.748   4.010  17.790  0.00  0.00    +0.000 OA
ATOM     12  H   UNL     1       8.461   4.529  17.364  0.00  0.00    +0.000 HD
ENDBRANCH   7  11
BRANCH   4  13
ATOM     13  C   UNL     1       3.448   6.069  19.455  0.00  0.00    +0.000 C 
BRANCH  13  14
ATOM     14  N   UNL     1       2.271   5.163  19.582  0.00  0.00    +0.000 NA
ATOM     15  C   UNL     1       2.175   4.293  18.394  0.00  0.00    +0.000 C 
ATOM     16  C   UNL     1       1.198   3.126  18.534  0.00  0.00    +0.000 C 
ATOM     17  C   UNL     1       1.472   2.320  19.791  0.00  0.00    +0.000 C 
ATOM     18  C   UNL     1       1.417   3.244  20.996  0.00  0.00    +0.000 C 
ATOM     19  C   UNL     1       2.390   4.415  20.847  0.00  0.00    +0.000 C 
ENDBRANCH  13  14
ENDBRANCH   4  13
TORSDOF 4
ENDMDL
MODEL 3
REMARK VINA RESULT:      -6.8      1.884      2.775
REMARK  Name = 
REMARK  5 active torsions:
REMARK  status: ('A' for Active; 'I' for Inactive)
REMARK    1  A    between atoms: C_1  and  C_2
REMARK    2  A    between atoms: C_2  and  C_3
REMARK    3  A    between atoms: C_6  and  C_7
REMARK    4  A    between atoms: C_7  and  N_8
REMARK    5  A    between atoms: C_16  and  O_17
REMARK                            x       y       z     vdW  Elec       q    Type
REMARK                         _______ _______ _______ _____ _____    ______ ____
ROOT
ATOM      1  C   UNL     1       7.068   6.515  18.127  0.00  0.00    +0.000 A 
ATOM      2  N   UNL     1       6.247   6.717  17.032  0.00  0.00    +0.000 N 
ATOM      3  C   UNL     1       5.189   5.898  16.745  0.00  0.00    +0.000 A 
ATOM      4  C   UNL     1       4.848   4.829  17.477  0.00  0.00    +0.000 A 
ATOM      5  C   UNL     1       5.701   4.553  18.676  0.00  0.00    +0.000 A 
ATOM      6  O   UNL     1       5.506   3.603  19.429  0.00  0.00    +0.000 OA
ATOM      7  C   UNL     1       6.850   5.484  18.962  0.00  0.00    +0.000 A 
ATOM      8  H   UNL     1       6.433   7.507  16.420  0.00  0.00    +0.000 HD
ENDROOT
BRANCH   1  10
ATOM      9  C   UNL     1       7.903   8.842  17.679  0.00  0.00    +0.000 C 
ATOM     10  C   UNL     1       8.192   7.502  18.340  0.00  0.00    +0.000 C 
ENDBRANCH   1  10
BRANCH   7  11
ATOM     11  O   UNL     1       7.638   5.223  20.068  0.00  0.00    +0.000 OA
ATOM     12  H   UNL     1       7.169   5.652  20.813  0.00  0.00    +0.000 HD
ENDBRANCH   7  11
BRANCH   4  13
ATOM     13  C   UNL     1       3.710   3.889  17.189  0.00  0.00    +0.000 C 
BRANCH  13  14
ATOM     14  N   UNL     1       2.460   4.120  17.967  0.00  0.00    +0.000 NA
ATOM     15  C   UNL     1       1.980   2.846  18.537  0.00  0.00    +0.000 C 
ATOM     16  C   UNL     1       0.884   2.992  19.593  0.00  0.00    +0.000 C 
ATOM     17  C   UNL     1       1.289   3.969  20.681  0.00  0.00    +0.000 C 
ATOM     18  C   UNL     1       1.637   5.306  20.047  0.00  0.00    +0.000 C 
ATOM     19  C   UNL     1       2.726   5.153  18.985  0.00  0.00    +0.000 C 
ENDBRANCH  13  14
ENDBRANCH   4  13
TORSDOF 4
ENDMDL
MODEL 4
REMARK VINA RESULT:      -6.7      1.779      2.285
REMARK  Name = 
REMARK  5 active torsions:
REMARK  status: ('A' for Active; 'I' for Inactive)
REMARK    1  A    between atoms: C_1  and  C_2
REMARK    2  A    between atoms: C_2  and  C_3
REMARK    3  A    between atoms: C_6  and  C_7
REMARK    4  A    between atoms: C_7  and  N_8
REMARK    5  A    between atoms: C_16  and  O_17
REMARK                            x       y       z     vdW  Elec       q    Type
REMARK                         _______ _______ _______ _____ _____    ______ ____
ROOT
ATOM      1  C   UNL     1       6.119   5.020  16.067  0.00  0.00    +0.000 A 
ATOM      2  N   UNL     1       6.191   4.153  17.143  0.00  0.00    +0.000 N 
ATOM      3  C   UNL     1       5.444   4.324  18.276  0.00  0.00    +0.000 A 
ATOM      4  C   UNL     1       4.586   5.335  18.464  0.00  0.00    +0.000 A 
ATOM      5  C   UNL     1       4.464   6.313  17.336  0.00  0.00    +0.000 A 
ATOM      6  O   UNL     1       3.721   7.290  17.376  0.00  0.00    +0.000 OA
ATOM      7  C   UNL     1       5.297   6.083  16.102  0.00  0.00    +0.000 A 
ATOM      8  H   UNL     1       6.818   3.355  17.087  0.00  0.00    +0.000 HD
ENDROOT
BRANCH   1  10
ATOM      9  C   UNL     1       6.230   3.907  13.818  0.00  0.00    +0.000 C 
ATOM     10  C   UNL     1       6.985   4.708  14.868  0.00  0.00    +0.000 C 
ENDBRANCH   1  10
BRANCH   7  11
ATOM     11  O   UNL     1       5.185   6.991  15.065  0.00  0.00    +0.000 OA
ATOM     12  H   UNL     1       4.220   7.115  14.947  0.00  0.00    +0.000 HD
ENDBRANCH   7  11
BRANCH   4  13
ATOM     13  C   UNL     1       3.762   5.577  19.698  0.00  0.00    +0.000 C 
BRANCH  13  14
ATOM     14  N   UNL     1       2.437   4.896  19.742  0.00  0.00    +0.000 NA
ATOM     15  C   UNL     1       2.210   4.157  18.485  0.00  0.00    +0.000 C 
ATOM     16  C   UNL     1       1.032   3.183  18.521  0.00  0.00    +0.000 C 
ATOM     17  C   UNL     1       1.127   2.242  19.709  0.00  0.00    +0.000 C 
ATOM     18  C   UNL     1       1.216   3.061  20.987  0.00  0.00    +0.000 C 
ATOM     19  C   UNL     1       2.390   4.040  20.941  0.00  0.00    +0.000 C 
ENDBRANCH  13  14
ENDBRANCH   4  13
TORSDOF 4
ENDMDL
MODEL 5
REMARK VINA RESULT:      -6.7      1.623      2.432
REMARK  Name = 
REMARK  5 active torsions:
REMARK  status: ('A' for Active; 'I' for Inactive)
REMARK    1  A    between atoms: C_1  and  C_2
REMARK    2  A    between atoms: C_2  and  C_3
REMARK    3  A    between atoms: C_6  and  C_7
REMARK    4  A    between atoms: C_7  and  N_8
REMARK    5  A    between atoms: C_16  and  O_17
REMARK                            x       y       z     vdW  Elec       q    Type
REMARK                         _______ _______ _______ _____ _____    ______ ____
ROOT
ATOM      1  C   UNL     1       6.286   4.135  14.031  0.00  0.00    +0.000 A 
ATOM      2  N   UNL     1       5.226   3.557  14.707  0.00  0.00    +0.000 N 
ATOM      3  C   UNL     1       4.911   3.886  15.998  0.00  0.00    +0.000 A 
ATOM      4  C   UNL     1       5.588   4.780  16.731  0.00  0.00    +0.000 A 
ATOM      5  C   UNL     1       6.751   5.438  16.056  0.00  0.00    +0.000 A 
ATOM      6  O   UNL     1       7.462   6.270  16.613  0.00  0.00    +0.000 OA
ATOM      7  C   UNL     1       7.058   5.056  14.632  0.00  0.00    +0.000 A 
ATOM      8  H   UNL     1       4.656   2.867  14.226  0.00  0.00    +0.000 HD
ENDROOT
BRANCH   1  10
ATOM      9  C   UNL     1       5.222   3.268  11.926  0.00  0.00    +0.000 C 
ATOM     10  C   UNL     1       6.516   3.696  12.603  0.00  0.00    +0.000 C 
ENDBRANCH   1  10
BRANCH   7  11
ATOM     11  O   UNL     1       8.136   5.664  14.014  0.00  0.00    +0.000 OA
ATOM     12  H   UNL     1       8.480   6.294  14.680  0.00  0.00    +0.000 HD
ENDBRANCH   7  11
BRANCH   4  13
ATOM     13  C   UNL     1       5.294   5.156  18.157  0.00  0.00    +0.000 C 
BRANCH  13  14
ATOM     14  N   UNL     1       3.950   4.766  18.670  0.00  0.00    +0.000 NA
ATOM     15  C   UNL     1       4.067   3.578  19.536  0.00  0.00    +0.000 C 
ATOM     16  C   UNL     1       2.817   3.260  20.357  0.00  0.00    +0.000 C 
ATOM     17  C   UNL     1       2.343   4.472  21.138  0.00  0.00    +0.000 C 
ATOM     18  C   UNL     1       2.103   5.623  20.175  0.00  0.00    +0.000 C 
ATOM     19  C   UNL     1       3.354   5.931  19.351  0.00  0.00    +0.000 C 
ENDBRANCH  13  14
ENDBRANCH   4  13
TORSDOF 4
ENDMDL
MODEL 6
REMARK VINA RESULT:      -6.7      1.703      1.915
REMARK  Name = 
REMARK  5 active torsions:
REMARK  status: ('A' for Active; 'I' for Inactive)
REMARK    1  A    between atoms: C_1  and  C_2
REMARK    2  A    between atoms: C_2  and  C_3
REMARK    3  A    between atoms: C_6  and  C_7
REMARK    4  A    between atoms: C_7  and  N_8
REMARK    5  A    between atoms: C_16  and  O_17
REMARK                            x       y       z     vdW  Elec       q    Type
REMARK                         _______ _______ _______ _____ _____    ______ ____
ROOT
ATOM      1  C   UNL     1       6.230   5.034  15.693  0.00  0.00    +0.000 A 
ATOM      2  N   UNL     1       6.435   4.079  16.674  0.00  0.00    +0.000 N 
ATOM      3  C   UNL     1       5.778   4.106  17.874  0.00  0.00    +0.000 A 
ATOM      4  C   UNL     1       4.889   5.045  18.222  0.00  0.00    +0.000 A 
ATOM      5  C   UNL     1       4.625   6.111  17.204  0.00  0.00    +0.000 A 
ATOM      6  O   UNL     1       3.841   7.036  17.395  0.00  0.00    +0.000 OA
ATOM      7  C   UNL     1       5.361   6.040  15.892  0.00  0.00    +0.000 A 
ATOM      8  H   UNL     1       7.094   3.327  16.494  0.00  0.00    +0.000 HD
ENDROOT
BRANCH   1  10
ATOM      9  C   UNL     1       6.335   3.902  13.453  0.00  0.00    +0.000 C 
ATOM     10  C   UNL     1       7.006   4.880  14.405  0.00  0.00    +0.000 C 
ENDBRANCH   1  10
BRANCH   7  11
ATOM     11  O   UNL     1       5.118   7.029  14.957  0.00  0.00    +0.000 OA
ATOM     12  H   UNL     1       4.211   7.340  15.156  0.00  0.00    +0.000 HD
ENDBRANCH   7  11
BRANCH   4  13
ATOM     13  C   UNL     1       4.162   5.128  19.535  0.00  0.00    +0.000 C 
BRANCH  13  14
ATOM     14  N   UNL     1       3.329   3.946  19.895  0.00  0.00    +0.000 NA
ATOM     15  C   UNL     1       2.456   4.274  21.039  0.00  0.00    +0.000 C 
ATOM     16  C   UNL     1       1.351   3.254  21.313  0.00  0.00    +0.000 C 
ATOM     17  C   UNL     1       0.541   2.965  20.062  0.00  0.00    +0.000 C 
ATOM     18  C   UNL     1       1.476   2.495  18.960  0.00  0.00    +0.000 C 
ATOM     19  C   UNL     1       2.585   3.515  18.697  0.00  0.00    +0.000 C 
ENDBRANCH  13  14
ENDBRANCH   4  13
TORSDOF 4
ENDMDL
MODEL 7
REMARK VINA RESULT:      -6.6      1.758      2.798
REMARK  Name = 
REMARK  5 active torsions:
REMARK  status: ('A' for Active; 'I' for Inactive)
REMARK    1  A    between atoms: C_1  and  C_2
REMARK    2  A    between atoms: C_2  and  C_3
REMARK    3  A    between atoms: C_6  and  C_7
REMARK    4  A    between atoms: C_7  and  N_8
REMARK    5  A    between atoms: C_16  and  O_17
REMARK                            x       y       z     vdW  Elec       q    Type
REMARK                         _______ _______ _______ _____ _____    ______ ____
ROOT
ATOM      1  C   UNL     1       6.406   3.923  13.941  0.00  0.00    +0.000 A 
ATOM      2  N   UNL     1       5.599   3.199  14.800  0.00  0.00    +0.000 N 
ATOM      3  C   UNL     1       5.494   3.493  16.133  0.00  0.00    +0.000 A 
ATOM      4  C   UNL     1       6.155   4.490  16.735  0.00  0.00    +0.000 A 
ATOM      5  C   UNL     1       7.050   5.310  15.859  0.00  0.00    +0.000 A 
ATOM      6  O   UNL     1       7.720   6.249  16.281  0.00  0.00    +0.000 OA
ATOM      7  C   UNL     1       7.130   4.960  14.397  0.00  0.00    +0.000 A 
ATOM      8  H   UNL     1       5.060   2.423  14.427  0.00  0.00    +0.000 HD
ENDROOT
BRANCH   1  10
ATOM      9  C   UNL     1       5.018   3.224  11.967  0.00  0.00    +0.000 C 
ATOM     10  C   UNL     1       6.419   3.505  12.488  0.00  0.00    +0.000 C 
ENDBRANCH   1  10
BRANCH   7  11
ATOM     11  O   UNL     1       7.961   5.717  13.592  0.00  0.00    +0.000 OA
ATOM     12  H   UNL     1       8.442   6.302  14.213  0.00  0.00    +0.000 HD
ENDBRANCH   7  11
BRANCH   4  13
ATOM     13  C   UNL     1       6.090   4.835  18.197  0.00  0.00    +0.000 C 
BRANCH  13  14
ATOM     14  N   UNL     1       4.731   5.120  18.740  0.00  0.00    +0.000 NA
ATOM     15  C   UNL     1       3.935   5.857  17.739  0.00  0.00    +0.000 C 
ATOM     16  C   UNL     1       2.441   5.948  18.053  0.00  0.00    +0.000 C 
ATOM     17  C   UNL     1       1.849   4.579  18.335  0.00  0.00    +0.000 C 
ATOM     18  C   UNL     1       2.621   3.926  19.470  0.00  0.00    +0.000 C 
ATOM     19  C   UNL     1       4.116   3.846  19.154  0.00  0.00    +0.000 C 
ENDBRANCH  13  14
ENDBRANCH   4  13
TORSDOF 4
ENDMDL
MODEL 8
REMARK VINA RESULT:      -6.6      2.149      3.050
REMARK  Name = 
REMARK  5 active torsions:
REMARK  status: ('A' for Active; 'I' for Inactive)
REMARK    1  A    between atoms: C_1  and  C_2
REMARK    2  A    between atoms: C_2  and  C_3
REMARK    3  A    between atoms: C_6  and  C_7
REMARK    4  A    between atoms: C_7  and  N_8
REMARK    5  A    between atoms: C_16  and  O_17
REMARK                            x       y       z     vdW  Elec       q    Type
REMARK                         _______ _______ _______ _____ _____    ______ ____
ROOT
ATOM      1  C   UNL     1       6.357   4.193  13.832  0.00  0.00    +0.000 A 
ATOM      2  N   UNL     1       5.266   3.690  14.519  0.00  0.00    +0.000 N 
ATOM      3  C   UNL     1       4.942   4.098  15.784  0.00  0.00    +0.000 A 
ATOM      4  C   UNL     1       5.637   5.007  16.481  0.00  0.00    +0.000 A 
ATOM      5  C   UNL     1       6.834   5.588  15.794  0.00  0.00    +0.000 A 
ATOM      6  O   UNL     1       7.564   6.424  16.318  0.00  0.00    +0.000 OA
ATOM      7  C   UNL     1       7.151   5.118  14.398  0.00  0.00    +0.000 A 
ATOM      8  H   UNL     1       4.681   2.994  14.066  0.00  0.00    +0.000 HD
ENDROOT
BRANCH   1  10
ATOM      9  C   UNL     1       5.356   2.998  11.862  0.00  0.00    +0.000 C 
ATOM     10  C   UNL     1       6.595   3.670  12.435  0.00  0.00    +0.000 C 
ENDBRANCH   1  10
BRANCH   7  11
ATOM     11  O   UNL     1       8.260   5.654  13.769  0.00  0.00    +0.000 OA
ATOM     12  H   UNL     1       8.817   4.880  13.547  0.00  0.00    +0.000 HD
ENDBRANCH   7  11
BRANCH   4  13
ATOM     13  C   UNL     1       5.333   5.469  17.879  0.00  0.00    +0.000 C 
BRANCH  13  14
ATOM     14  N   UNL     1       3.902   5.768  18.170  0.00  0.00    +0.000 NA
ATOM     15  C   UNL     1       3.615   5.512  19.595  0.00  0.00    +0.000 C 
ATOM     16  C   UNL     1       2.273   6.059  20.083  0.00  0.00    +0.000 C 
ATOM     17  C   UNL     1       2.115   7.529  19.740  0.00  0.00    +0.000 C 
ATOM     18  C   UNL     1       2.281   7.712  18.241  0.00  0.00    +0.000 C 
ATOM     19  C   UNL     1       3.620   7.155  17.756  0.00  0.00    +0.000 C 
ENDBRANCH  13  14
ENDBRANCH   4  13
TORSDOF 4
ENDMDL
MODEL 9
REMARK VINA RESULT:      -6.6      2.124      2.772
REMARK  Name = 
REMARK  5 active torsions:
REMARK  status: ('A' for Active; 'I' for Inactive)
REMARK    1  A    between atoms: C_1  and  C_2
REMARK    2  A    between atoms: C_2  and  C_3
REMARK    3  A    between atoms: C_6  and  C_7
REMARK    4  A    between atoms: C_7  and  N_8
REMARK    5  A    between atoms: C_16  and  O_17
REMARK                            x       y       z     vdW  Elec       q    Type
REMARK                         _______ _______ _______ _____ _____    ______ ____
ROOT
ATOM      1  C   UNL     1       7.370   7.081  17.822  0.00  0.00    +0.000 A 
ATOM      2  N   UNL     1       6.508   7.215  16.748  0.00  0.00    +0.000 N 
ATOM      3  C   UNL     1       5.518   6.307  16.483  0.00  0.00    +0.000 A 
ATOM      4  C   UNL     1       5.289   5.211  17.217  0.00  0.00    +0.000 A 
ATOM      5  C   UNL     1       6.192   5.006  18.393  0.00  0.00    +0.000 A 
ATOM      6  O   UNL     1       6.100   4.040  19.146  0.00  0.00    +0.000 OA
ATOM      7  C   UNL     1       7.263   6.032  18.656  0.00  0.00    +0.000 A 
ATOM      8  H   UNL     1       6.609   8.020  16.137  0.00  0.00    +0.000 HD
ENDROOT
BRANCH   1  10
ATOM      9  C   UNL     1       7.821   9.552  17.821  0.00  0.00    +0.000 C 
ATOM     10  C   UNL     1       8.408   8.162  18.014  0.00  0.00    +0.000 C 
ENDBRANCH   1  10
BRANCH   7  11
ATOM     11  O   UNL     1       8.098   5.837  19.741  0.00  0.00    +0.000 OA
ATOM     12  H   UNL     1       8.534   4.977  19.566  0.00  0.00    +0.000 HD
ENDBRANCH   7  11
BRANCH   4  13
ATOM     13  C   UNL     1       4.231   4.175  16.951  0.00  0.00    +0.000 C 
BRANCH  13  14
ATOM     14  N   UNL     1       3.457   3.715  18.139  0.00  0.00    +0.000 NA
ATOM     15  C   UNL     1       2.330   4.633  18.391  0.00  0.00    +0.000 C 
ATOM     16  C   UNL     1       1.294   4.112  19.388  0.00  0.00    +0.000 C 
ATOM     17  C   UNL     1       0.807   2.725  19.009  0.00  0.00    +0.000 C 
ATOM     18  C   UNL     1       2.000   1.790  18.903  0.00  0.00    +0.000 C 
ATOM     19  C   UNL     1       3.037   2.320  17.911  0.00  0.00    +0.000 C 
ENDBRANCH  13  14
ENDBRANCH   4  13
TORSDOF 4
ENDMDL
