MODEL 1
REMARK VINA RESULT:      -7.1      0.000      0.000
REMARK  Name = 
REMARK  8 active torsions:
REMARK  status: ('A' for Active; 'I' for Inactive)
REMARK    1  A    between atoms: C_1  and  C_2
REMARK    2  A    between atoms: C_2  and  N_3
REMARK    3  A    between atoms: C_4  and  C_6
REMARK    4  A    between atoms: C_8  and  N_9
REMARK    5  A    between atoms: C_10  and  C_12
REMARK    6  A    between atoms: C_12  and  C_13
REMARK    7  A    between atoms: N_20  and  C_21
REMARK    8  A    between atoms: C_21  and  C_22
REMARK                            x       y       z     vdW  Elec       q    Type
REMARK                         _______ _______ _______ _____ _____    ______ ____
ROOT
ATOM      1  C   UNL     1       3.374   4.930  17.227  0.00  0.00    +0.000 C 
ATOM      2  C   UNL     1       4.793   4.434  17.462  0.00  0.00    +0.000 C 
ATOM      3  C   UNL     1       5.641   5.662  17.198  0.00  0.00    +0.000 C 
ATOM      4  C   UNL     1       4.737   6.823  17.631  0.00  0.00    +0.000 C 
ATOM      5  N   UNL     1       3.333   6.329  17.749  0.00  0.00    +0.000 NA
ENDROOT
BRANCH   1   7
ATOM      6  N   UNL     1       2.786   3.111  18.779  0.00  0.00    +0.000 N 
ATOM      7  C   UNL     1       2.332   3.948  17.780  0.00  0.00    +0.000 C 
ATOM      8  O   UNL     1       1.164   3.944  17.399  0.00  0.00    +0.000 OA
ATOM      9  H   UNL     1       3.716   3.274  19.149  0.00  0.00    +0.000 HD
BRANCH   6  11
ATOM     10  C   UNL     1       1.274   2.959  20.703  0.00  0.00    +0.000 C 
ATOM     11  C   UNL     1       1.873   2.251  19.505  0.00  0.00    +0.000 C 
ENDBRANCH   6  11
ENDBRANCH   1   7
BRANCH   3  12
ATOM     12  N   UNL     1       6.049   5.742  15.800  0.00  0.00    +0.000 N 
ATOM     13  C   UNL     1       7.103   4.986  15.327  0.00  0.00    +0.000 C 
ATOM     14  O   UNL     1       7.785   4.261  16.047  0.00  0.00    +0.000 OA
ATOM     15  H   UNL     1       5.490   6.284  15.153  0.00  0.00    +0.000 HD
BRANCH  13  16
ATOM     16  C   UNL     1       7.374   5.125  13.839  0.00  0.00    +0.000 C 
BRANCH  16  17
ATOM     17  C   UNL     1       6.643   4.108  12.998  0.00  0.00    +0.000 A 
ATOM     18  C   UNL     1       5.249   4.016  13.037  0.00  0.00    +0.000 A 
ATOM     19  C   UNL     1       4.618   3.084  12.225  0.00  0.00    +0.000 A 
ATOM     20  N   UNL     1       5.272   2.255  11.387  0.00  0.00    +0.000 NA
ATOM     21  C   UNL     1       6.618   2.365  11.356  0.00  0.00    +0.000 A 
ATOM     22  C   UNL     1       7.336   3.264  12.129  0.00  0.00    +0.000 A 
ENDBRANCH  16  17
ENDBRANCH  13  16
ENDBRANCH   3  12
BRANCH   5  23
ATOM     23  C   UNL     1       2.847   6.468  19.138  0.00  0.00    +0.000 C 
BRANCH  23  24
ATOM     24  C   UNL     1       2.075   7.769  19.281  0.00  0.00    +0.000 A 
ATOM     25  C   UNL     1       1.800   8.679  18.201  0.00  0.00    +0.000 A 
ATOM     26  C   UNL     1       0.995   9.731  18.578  0.00  0.00    +0.000 A 
ATOM     27  S   UNL     1       0.620   9.683  20.243  0.00  0.00    +0.000 S 
ATOM     28  C   UNL     1       1.520   8.244  20.458  0.00  0.00    +0.000 A 
ENDBRANCH  23  24
ENDBRANCH   5  23
TORSDOF 7
ENDMDL
MODEL 2
REMARK VINA RESULT:      -6.9      0.843      1.475
REMARK  Name = 
REMARK  8 active torsions:
REMARK  status: ('A' for Active; 'I' for Inactive)
REMARK    1  A    between atoms: C_1  and  C_2
REMARK    2  A    between atoms: C_2  and  N_3
REMARK    3  A    between atoms: C_4  and  C_6
REMARK    4  A    between atoms: C_8  and  N_9
REMARK    5  A    between atoms: C_10  and  C_12
REMARK    6  A    between atoms: C_12  and  C_13
REMARK    7  A    between atoms: N_20  and  C_21
REMARK    8  A    between atoms: C_21  and  C_22
REMARK                            x       y       z     vdW  Elec       q    Type
REMARK                         _______ _______ _______ _____ _____    ______ ____
ROOT
ATOM      1  C   UNL     1       3.188   4.565  17.084  0.00  0.00    +0.000 C 
ATOM      2  C   UNL     1       4.464   3.747  16.959  0.00  0.00    +0.000 C 
ATOM      3  C   UNL     1       5.517   4.787  16.636  0.00  0.00    +0.000 C 
ATOM      4  C   UNL     1       5.018   6.042  17.364  0.00  0.00    +0.000 C 
ATOM      5  N   UNL     1       3.584   5.852  17.735  0.00  0.00    +0.000 NA
ENDROOT
BRANCH   1   7
ATOM      6  N   UNL     1       2.466   2.929  18.776  0.00  0.00    +0.000 N 
ATOM      7  C   UNL     1       2.063   3.764  17.753  0.00  0.00    +0.000 C 
ATOM      8  O   UNL     1       0.883   3.894  17.437  0.00  0.00    +0.000 OA
ATOM      9  H   UNL     1       3.430   2.987  19.085  0.00  0.00    +0.000 HD
BRANCH   6  11
ATOM     10  C   UNL     1       1.339   2.908  20.954  0.00  0.00    +0.000 C 
ATOM     11  C   UNL     1       1.496   2.240  19.603  0.00  0.00    +0.000 C 
ENDBRANCH   6  11
ENDBRANCH   1   7
BRANCH   3  12
ATOM     12  N   UNL     1       5.662   4.976  15.197  0.00  0.00    +0.000 N 
ATOM     13  C   UNL     1       6.888   4.816  14.583  0.00  0.00    +0.000 C 
ATOM     14  O   UNL     1       7.921   4.567  15.202  0.00  0.00    +0.000 OA
ATOM     15  H   UNL     1       4.836   5.132  14.635  0.00  0.00    +0.000 HD
BRANCH  13  16
ATOM     16  C   UNL     1       6.876   4.983  13.074  0.00  0.00    +0.000 C 
BRANCH  16  17
ATOM     17  C   UNL     1       6.515   3.720  12.333  0.00  0.00    +0.000 A 
ATOM     18  C   UNL     1       7.508   2.852  11.871  0.00  0.00    +0.000 A 
ATOM     19  C   UNL     1       7.127   1.687  11.218  0.00  0.00    +0.000 A 
ATOM     20  N   UNL     1       5.844   1.333  11.005  0.00  0.00    +0.000 NA
ATOM     21  C   UNL     1       4.898   2.179  11.467  0.00  0.00    +0.000 A 
ATOM     22  C   UNL     1       5.180   3.364  12.128  0.00  0.00    +0.000 A 
ENDBRANCH  16  17
ENDBRANCH  13  16
ENDBRANCH   3  12
BRANCH   5  23
ATOM     23  C   UNL     1       3.417   5.892  19.202  0.00  0.00    +0.000 C 
BRANCH  23  24
ATOM     24  C   UNL     1       2.472   7.022  19.578  0.00  0.00    +0.000 A 
ATOM     25  C   UNL     1       1.766   7.114  20.828  0.00  0.00    +0.000 A 
ATOM     26  C   UNL     1       1.055   8.288  20.956  0.00  0.00    +0.000 A 
ATOM     27  S   UNL     1       1.164   9.256  19.554  0.00  0.00    +0.000 S 
ATOM     28  C   UNL     1       2.178   8.115  18.780  0.00  0.00    +0.000 A 
ENDBRANCH  23  24
ENDBRANCH   5  23
TORSDOF 7
ENDMDL
MODEL 3
REMARK VINA RESULT:      -6.8      0.919      1.022
REMARK  Name = 
REMARK  8 active torsions:
REMARK  status: ('A' for Active; 'I' for Inactive)
REMARK    1  A    between atoms: C_1  and  C_2
REMARK    2  A    between atoms: C_2  and  N_3
REMARK    3  A    between atoms: C_4  and  C_6
REMARK    4  A    between atoms: C_8  and  N_9
REMARK    5  A    between atoms: C_10  and  C_12
REMARK    6  A    between atoms: C_12  and  C_13
REMARK    7  A    between atoms: N_20  and  C_21
REMARK    8  A    between atoms: C_21  and  C_22
REMARK                            x       y       z     vdW  Elec       q    Type
REMARK                         _______ _______ _______ _____ _____    ______ ____
ROOT
ATOM      1  C   UNL     1       3.482   4.255  16.830  0.00  0.00    +0.000 C 
ATOM      2  C   UNL     1       4.656   3.305  17.014  0.00  0.00    +0.000 C 
ATOM      3  C   UNL     1       5.858   4.165  16.677  0.00  0.00    +0.000 C 
ATOM      4  C   UNL     1       5.430   5.570  17.119  0.00  0.00    +0.000 C 
ATOM      5  N   UNL     1       3.949   5.589  17.314  0.00  0.00    +0.000 NA
ENDROOT
BRANCH   1   7
ATOM      6  N   UNL     1       2.383   2.660  18.349  0.00  0.00    +0.000 N 
ATOM      7  C   UNL     1       2.197   3.696  17.457  0.00  0.00    +0.000 C 
ATOM      8  O   UNL     1       1.089   4.172  17.222  0.00  0.00    +0.000 OA
ATOM      9  H   UNL     1       3.333   2.422  18.611  0.00  0.00    +0.000 HD
BRANCH   6  11
ATOM     10  C   UNL     1       1.108   2.925  20.428  0.00  0.00    +0.000 C 
ATOM     11  C   UNL     1       1.280   2.148  19.139  0.00  0.00    +0.000 C 
ENDBRANCH   6  11
ENDBRANCH   1   7
BRANCH   3  12
ATOM     12  N   UNL     1       6.194   4.085  15.260  0.00  0.00    +0.000 N 
ATOM     13  C   UNL     1       7.114   4.952  14.703  0.00  0.00    +0.000 C 
ATOM     14  O   UNL     1       7.649   5.859  15.336  0.00  0.00    +0.000 OA
ATOM     15  H   UNL     1       5.821   3.325  14.706  0.00  0.00    +0.000 HD
BRANCH  13  16
ATOM     16  C   UNL     1       7.411   4.712  13.234  0.00  0.00    +0.000 C 
BRANCH  16  17
ATOM     17  C   UNL     1       6.411   3.806  12.559  0.00  0.00    +0.000 A 
ATOM     18  C   UNL     1       5.069   4.180  12.447  0.00  0.00    +0.000 A 
ATOM     19  C   UNL     1       4.190   3.327  11.793  0.00  0.00    +0.000 A 
ATOM     20  N   UNL     1       4.555   2.149  11.248  0.00  0.00    +0.000 NA
ATOM     21  C   UNL     1       5.857   1.809  11.358  0.00  0.00    +0.000 A 
ATOM     22  C   UNL     1       6.808   2.594  11.992  0.00  0.00    +0.000 A 
ENDBRANCH  16  17
ENDBRANCH  13  16
ENDBRANCH   3  12
BRANCH   5  23
ATOM     23  C   UNL     1       3.614   5.901  18.719  0.00  0.00    +0.000 C 
BRANCH  23  24
ATOM     24  C   UNL     1       2.805   7.186  18.778  0.00  0.00    +0.000 A 
ATOM     25  C   UNL     1       2.707   8.140  17.705  0.00  0.00    +0.000 A 
ATOM     26  C   UNL     1       1.829   9.165  17.978  0.00  0.00    +0.000 A 
ATOM     27  S   UNL     1       1.169   9.040  19.548  0.00  0.00    +0.000 S 
ATOM     28  C   UNL     1       2.044   7.602  19.858  0.00  0.00    +0.000 A 
ENDBRANCH  23  24
ENDBRANCH   5  23
TORSDOF 7
ENDMDL
MODEL 4
REMARK VINA RESULT:      -6.7      4.280      7.300
REMARK  Name = 
REMARK  8 active torsions:
REMARK  status: ('A' for Active; 'I' for Inactive)
REMARK    1  A    between atoms: C_1  and  C_2
REMARK    2  A    between atoms: C_2  and  N_3
REMARK    3  A    between atoms: C_4  and  C_6
REMARK    4  A    between atoms: C_8  and  N_9
REMARK    5  A    between atoms: C_10  and  C_12
REMARK    6  A    between atoms: C_12  and  C_13
REMARK    7  A    between atoms: N_20  and  C_21
REMARK    8  A    between atoms: C_21  and  C_22
REMARK                            x       y       z     vdW  Elec       q    Type
REMARK                         _______ _______ _______ _____ _____    ______ ____
ROOT
ATOM      1  C   UNL     1       6.172   5.570  15.337  0.00  0.00    +0.000 C 
ATOM      2  C   UNL     1       7.343   5.652  16.304  0.00  0.00    +0.000 C 
ATOM      3  C   UNL     1       6.772   6.419  17.480  0.00  0.00    +0.000 C 
ATOM      4  C   UNL     1       5.292   6.012  17.490  0.00  0.00    +0.000 C 
ATOM      5  N   UNL     1       4.952   5.384  16.179  0.00  0.00    +0.000 NA
ENDROOT
BRANCH   1   7
ATOM      6  N   UNL     1       5.289   4.082  13.585  0.00  0.00    +0.000 N 
ATOM      7  C   UNL     1       6.422   4.533  14.233  0.00  0.00    +0.000 C 
ATOM      8  O   UNL     1       7.551   4.170  13.912  0.00  0.00    +0.000 OA
ATOM      9  H   UNL     1       4.408   4.538  13.795  0.00  0.00    +0.000 HD
BRANCH   6  11
ATOM     10  C   UNL     1       4.165   3.359  11.529  0.00  0.00    +0.000 C 
ATOM     11  C   UNL     1       5.387   3.231  12.415  0.00  0.00    +0.000 C 
ENDBRANCH   6  11
ENDBRANCH   1   7
BRANCH   3  12
ATOM     12  N   UNL     1       6.972   7.855  17.333  0.00  0.00    +0.000 N 
ATOM     13  C   UNL     1       8.006   8.496  17.986  0.00  0.00    +0.000 C 
ATOM     14  O   UNL     1       8.768   7.921  18.761  0.00  0.00    +0.000 OA
ATOM     15  H   UNL     1       6.405   8.367  16.669  0.00  0.00    +0.000 HD
BRANCH  13  16
ATOM     16  C   UNL     1       8.130   9.980  17.691  0.00  0.00    +0.000 C 
BRANCH  16  17
ATOM     17  C   UNL     1       9.214  10.663  18.488  0.00  0.00    +0.000 A 
ATOM     18  C   UNL     1       9.126  10.757  19.879  0.00  0.00    +0.000 A 
ATOM     19  C   UNL     1      10.161  11.370  20.573  0.00  0.00    +0.000 A 
ATOM     20  N   UNL     1      11.260  11.880  19.984  0.00  0.00    +0.000 NA
ATOM     21  C   UNL     1      11.331  11.772  18.640  0.00  0.00    +0.000 A 
ATOM     22  C   UNL     1      10.349  11.178  17.861  0.00  0.00    +0.000 A 
ENDBRANCH  16  17
ENDBRANCH  13  16
ENDBRANCH   3  12
BRANCH   5  23
ATOM     23  C   UNL     1       4.525   3.982  16.369  0.00  0.00    +0.000 C 
BRANCH  23  24
ATOM     24  C   UNL     1       3.614   3.885  17.581  0.00  0.00    +0.000 A 
ATOM     25  C   UNL     1       2.268   4.389  17.633  0.00  0.00    +0.000 A 
ATOM     26  C   UNL     1       1.625   4.082  18.812  0.00  0.00    +0.000 A 
ATOM     27  S   UNL     1       2.649   3.253  19.899  0.00  0.00    +0.000 S 
ATOM     28  C   UNL     1       3.948   3.288  18.785  0.00  0.00    +0.000 A 
ENDBRANCH  23  24
ENDBRANCH   5  23
TORSDOF 7
ENDMDL
MODEL 5
REMARK VINA RESULT:      -6.7      4.225      7.382
REMARK  Name = 
REMARK  8 active torsions:
REMARK  status: ('A' for Active; 'I' for Inactive)
REMARK    1  A    between atoms: C_1  and  C_2
REMARK    2  A    between atoms: C_2  and  N_3
REMARK    3  A    between atoms: C_4  and  C_6
REMARK    4  A    between atoms: C_8  and  N_9
REMARK    5  A    between atoms: C_10  and  C_12
REMARK    6  A    between atoms: C_12  and  C_13
REMARK    7  A    between atoms: N_20  and  C_21
REMARK    8  A    between atoms: C_21  and  C_22
REMARK                            x       y       z     vdW  Elec       q    Type
REMARK                         _______ _______ _______ _____ _____    ______ ____
ROOT
ATOM      1  C   UNL     1       6.151   5.478  15.315  0.00  0.00    +0.000 C 
ATOM      2  C   UNL     1       7.392   5.575  16.189  0.00  0.00    +0.000 C 
ATOM      3  C   UNL     1       6.891   6.283  17.432  0.00  0.00    +0.000 C 
ATOM      4  C   UNL     1       5.433   5.820  17.545  0.00  0.00    +0.000 C 
ATOM      5  N   UNL     1       5.010   5.220  16.245  0.00  0.00    +0.000 NA
ENDROOT
BRANCH   1   7
ATOM      6  N   UNL     1       5.185   4.069  13.542  0.00  0.00    +0.000 N 
ATOM      7  C   UNL     1       6.347   4.487  14.160  0.00  0.00    +0.000 C 
ATOM      8  O   UNL     1       7.460   4.132  13.778  0.00  0.00    +0.000 OA
ATOM      9  H   UNL     1       4.317   4.520  13.808  0.00  0.00    +0.000 HD
BRANCH   6  11
ATOM     10  C   UNL     1       4.086   3.603  11.400  0.00  0.00    +0.000 C 
ATOM     11  C   UNL     1       5.229   3.266  12.336  0.00  0.00    +0.000 C 
ENDBRANCH   6  11
ENDBRANCH   1   7
BRANCH   3  12
ATOM     12  N   UNL     1       7.027   7.730  17.318  0.00  0.00    +0.000 N 
ATOM     13  C   UNL     1       7.995   8.408  18.033  0.00  0.00    +0.000 C 
ATOM     14  O   UNL     1       8.744   7.856  18.836  0.00  0.00    +0.000 OA
ATOM     15  H   UNL     1       6.470   8.226  16.634  0.00  0.00    +0.000 HD
BRANCH  13  16
ATOM     16  C   UNL     1       8.060   9.901  17.768  0.00  0.00    +0.000 C 
BRANCH  16  17
ATOM     17  C   UNL     1       9.187  10.591  18.495  0.00  0.00    +0.000 A 
ATOM     18  C   UNL     1      10.284  11.100  17.795  0.00  0.00    +0.000 A 
ATOM     19  C   UNL     1      11.285  11.752  18.504  0.00  0.00    +0.000 A 
ATOM     20  N   UNL     1      11.262  11.933  19.839  0.00  0.00    +0.000 NA
ATOM     21  C   UNL     1      10.190  11.443  20.497  0.00  0.00    +0.000 A 
ATOM     22  C   UNL     1       9.143  10.777  19.878  0.00  0.00    +0.000 A 
ENDBRANCH  16  17
ENDBRANCH  13  16
ENDBRANCH   3  12
BRANCH   5  23
ATOM     23  C   UNL     1       4.650   3.798  16.420  0.00  0.00    +0.000 C 
BRANCH  23  24
ATOM     24  C   UNL     1       3.684   3.655  17.585  0.00  0.00    +0.000 A 
ATOM     25  C   UNL     1       4.018   3.070  18.856  0.00  0.00    +0.000 A 
ATOM     26  C   UNL     1       2.993   3.155  19.772  0.00  0.00    +0.000 A 
ATOM     27  S   UNL     1       1.594   3.866  19.098  0.00  0.00    +0.000 S 
ATOM     28  C   UNL     1       2.366   4.079  17.586  0.00  0.00    +0.000 A 
ENDBRANCH  23  24
ENDBRANCH   5  23
TORSDOF 7
ENDMDL
MODEL 6
REMARK VINA RESULT:      -6.6      1.149      1.345
REMARK  Name = 
REMARK  8 active torsions:
REMARK  status: ('A' for Active; 'I' for Inactive)
REMARK    1  A    between atoms: C_1  and  C_2
REMARK    2  A    between atoms: C_2  and  N_3
REMARK    3  A    between atoms: C_4  and  C_6
REMARK    4  A    between atoms: C_8  and  N_9
REMARK    5  A    between atoms: C_10  and  C_12
REMARK    6  A    between atoms: C_12  and  C_13
REMARK    7  A    between atoms: N_20  and  C_21
REMARK    8  A    between atoms: C_21  and  C_22
REMARK                            x       y       z     vdW  Elec       q    Type
REMARK                         _______ _______ _______ _____ _____    ______ ____
ROOT
ATOM      1  C   UNL     1       3.843   4.553  16.998  0.00  0.00    +0.000 C 
ATOM      2  C   UNL     1       5.338   4.286  16.932  0.00  0.00    +0.000 C 
ATOM      3  C   UNL     1       5.903   5.584  16.390  0.00  0.00    +0.000 C 
ATOM      4  C   UNL     1       4.943   6.649  16.937  0.00  0.00    +0.000 C 
ATOM      5  N   UNL     1       3.696   5.982  17.414  0.00  0.00    +0.000 NA
ENDROOT
BRANCH   1   7
ATOM      6  N   UNL     1       1.758   3.703  17.994  0.00  0.00    +0.000 N 
ATOM      7  C   UNL     1       3.116   3.502  17.847  0.00  0.00    +0.000 C 
ATOM      8  O   UNL     1       3.691   2.524  18.318  0.00  0.00    +0.000 OA
ATOM      9  H   UNL     1       1.326   4.442  17.452  0.00  0.00    +0.000 HD
BRANCH   6  11
ATOM     10  C   UNL     1       0.727   2.993  20.103  0.00  0.00    +0.000 C 
ATOM     11  C   UNL     1       0.920   2.704  18.628  0.00  0.00    +0.000 C 
ENDBRANCH   6  11
ENDBRANCH   1   7
BRANCH   3  12
ATOM     12  N   UNL     1       5.976   5.571  14.934  0.00  0.00    +0.000 N 
ATOM     13  C   UNL     1       7.099   5.094  14.287  0.00  0.00    +0.000 C 
ATOM     14  O   UNL     1       8.106   4.715  14.882  0.00  0.00    +0.000 OA
ATOM     15  H   UNL     1       5.157   5.825  14.396  0.00  0.00    +0.000 HD
BRANCH  13  16
ATOM     16  C   UNL     1       7.010   5.083  12.772  0.00  0.00    +0.000 C 
BRANCH  16  17
ATOM     17  C   UNL     1       6.601   3.746  12.204  0.00  0.00    +0.000 A 
ATOM     18  C   UNL     1       5.252   3.411  12.063  0.00  0.00    +0.000 A 
ATOM     19  C   UNL     1       4.924   2.181  11.509  0.00  0.00    +0.000 A 
ATOM     20  N   UNL     1       5.834   1.281  11.090  0.00  0.00    +0.000 NA
ATOM     21  C   UNL     1       7.133   1.626  11.225  0.00  0.00    +0.000 A 
ATOM     22  C   UNL     1       7.558   2.829  11.766  0.00  0.00    +0.000 A 
ENDBRANCH  16  17
ENDBRANCH  13  16
ENDBRANCH   3  12
BRANCH   5  23
ATOM     23  C   UNL     1       3.510   6.199  18.863  0.00  0.00    +0.000 C 
BRANCH  23  24
ATOM     24  C   UNL     1       2.550   7.356  19.088  0.00  0.00    +0.000 A 
ATOM     25  C   UNL     1       1.854   7.611  20.321  0.00  0.00    +0.000 A 
ATOM     26  C   UNL     1       1.125   8.780  20.293  0.00  0.00    +0.000 A 
ATOM     27  S   UNL     1       1.205   9.544  18.768  0.00  0.00    +0.000 S 
ATOM     28  C   UNL     1       2.230   8.322  18.149  0.00  0.00    +0.000 A 
ENDBRANCH  23  24
ENDBRANCH   5  23
TORSDOF 7
ENDMDL
MODEL 7
REMARK VINA RESULT:      -6.6      4.519      7.399
REMARK  Name = 
REMARK  8 active torsions:
REMARK  status: ('A' for Active; 'I' for Inactive)
REMARK    1  A    between atoms: C_1  and  C_2
REMARK    2  A    between atoms: C_2  and  N_3
REMARK    3  A    between atoms: C_4  and  C_6
REMARK    4  A    between atoms: C_8  and  N_9
REMARK    5  A    between atoms: C_10  and  C_12
REMARK    6  A    between atoms: C_12  and  C_13
REMARK    7  A    between atoms: N_20  and  C_21
REMARK    8  A    between atoms: C_21  and  C_22
REMARK                            x       y       z     vdW  Elec       q    Type
REMARK                         _______ _______ _______ _____ _____    ______ ____
ROOT
ATOM      1  C   UNL     1       5.785   5.710  16.004  0.00  0.00    +0.000 C 
ATOM      2  C   UNL     1       7.284   5.790  16.247  0.00  0.00    +0.000 C 
ATOM      3  C   UNL     1       7.386   6.505  17.579  0.00  0.00    +0.000 C 
ATOM      4  C   UNL     1       6.118   6.063  18.322  0.00  0.00    +0.000 C 
ATOM      5  N   UNL     1       5.162   5.468  17.341  0.00  0.00    +0.000 NA
ENDROOT
BRANCH   1   7
ATOM      6  N   UNL     1       6.458   4.480  13.980  0.00  0.00    +0.000 N 
ATOM      7  C   UNL     1       5.444   4.715  14.887  0.00  0.00    +0.000 C 
ATOM      8  O   UNL     1       4.365   4.128  14.833  0.00  0.00    +0.000 OA
ATOM      9  H   UNL     1       7.369   4.880  14.173  0.00  0.00    +0.000 HD
BRANCH   6  11
ATOM     10  C   UNL     1       7.048   3.825  11.692  0.00  0.00    +0.000 C 
ATOM     11  C   UNL     1       6.335   3.445  12.973  0.00  0.00    +0.000 C 
ENDBRANCH   6  11
ENDBRANCH   1   7
BRANCH   3  12
ATOM     12  N   UNL     1       7.476   7.950  17.407  0.00  0.00    +0.000 N 
ATOM     13  C   UNL     1       8.297   8.708  18.218  0.00  0.00    +0.000 C 
ATOM     14  O   UNL     1       8.942   8.234  19.150  0.00  0.00    +0.000 OA
ATOM     15  H   UNL     1       7.006   8.384  16.623  0.00  0.00    +0.000 HD
BRANCH  13  16
ATOM     16  C   UNL     1       8.338  10.189  17.883  0.00  0.00    +0.000 C 
BRANCH  16  17
ATOM     17  C   UNL     1       9.485  10.920  18.537  0.00  0.00    +0.000 A 
ATOM     18  C   UNL     1      10.563  11.383  17.778  0.00  0.00    +0.000 A 
ATOM     19  C   UNL     1      11.582  12.076  18.419  0.00  0.00    +0.000 A 
ATOM     20  N   UNL     1      11.595  12.338  19.740  0.00  0.00    +0.000 NA
ATOM     21  C   UNL     1      10.540  11.891  20.456  0.00  0.00    +0.000 A 
ATOM     22  C   UNL     1       9.477  11.190  19.906  0.00  0.00    +0.000 A 
ENDBRANCH  16  17
ENDBRANCH  13  16
ENDBRANCH   3  12
BRANCH   5  23
ATOM     23  C   UNL     1       4.898   4.051  17.666  0.00  0.00    +0.000 C 
BRANCH  23  24
ATOM     24  C   UNL     1       3.533   3.923  18.322  0.00  0.00    +0.000 A 
ATOM     25  C   UNL     1       2.295   3.761  17.606  0.00  0.00    +0.000 A 
ATOM     26  C   UNL     1       1.216   3.566  18.440  0.00  0.00    +0.000 A 
ATOM     27  S   UNL     1       1.659   3.650  20.087  0.00  0.00    +0.000 S 
ATOM     28  C   UNL     1       3.298   3.929  19.687  0.00  0.00    +0.000 A 
ENDBRANCH  23  24
ENDBRANCH   5  23
TORSDOF 7
ENDMDL
MODEL 8
REMARK VINA RESULT:      -6.5      1.453      1.800
REMARK  Name = 
REMARK  8 active torsions:
REMARK  status: ('A' for Active; 'I' for Inactive)
REMARK    1  A    between atoms: C_1  and  C_2
REMARK    2  A    between atoms: C_2  and  N_3
REMARK    3  A    between atoms: C_4  and  C_6
REMARK    4  A    between atoms: C_8  and  N_9
REMARK    5  A    between atoms: C_10  and  C_12
REMARK    6  A    between atoms: C_12  and  C_13
REMARK    7  A    between atoms: N_20  and  C_21
REMARK    8  A    between atoms: C_21  and  C_22
REMARK                            x       y       z     vdW  Elec       q    Type
REMARK                         _______ _______ _______ _____ _____    ______ ____
ROOT
ATOM      1  C   UNL     1       4.384   4.125  16.582  0.00  0.00    +0.000 C 
ATOM      2  C   UNL     1       5.860   3.778  16.458  0.00  0.00    +0.000 C 
ATOM      3  C   UNL     1       6.448   4.990  15.763  0.00  0.00    +0.000 C 
ATOM      4  C   UNL     1       5.572   6.148  16.259  0.00  0.00    +0.000 C 
ATOM      5  N   UNL     1       4.327   5.591  16.867  0.00  0.00    +0.000 NA
ENDROOT
BRANCH   1   7
ATOM      6  N   UNL     1       4.426   2.773  18.640  0.00  0.00    +0.000 N 
ATOM      7  C   UNL     1       3.665   3.195  17.568  0.00  0.00    +0.000 C 
ATOM      8  O   UNL     1       2.481   2.890  17.442  0.00  0.00    +0.000 OA
ATOM      9  H   UNL     1       5.344   3.186  18.762  0.00  0.00    +0.000 HD
BRANCH   6  11
ATOM     10  C   UNL     1       3.078   2.939  20.681  0.00  0.00    +0.000 C 
ATOM     11  C   UNL     1       3.831   2.029  19.732  0.00  0.00    +0.000 C 
ENDBRANCH   6  11
ENDBRANCH   1   7
BRANCH   3  12
ATOM     12  N   UNL     1       6.432   4.838  14.313  0.00  0.00    +0.000 N 
ATOM     13  C   UNL     1       7.513   5.230  13.549  0.00  0.00    +0.000 C 
ATOM     14  O   UNL     1       8.508   5.774  14.024  0.00  0.00    +0.000 OA
ATOM     15  H   UNL     1       5.659   4.351  13.876  0.00  0.00    +0.000 HD
BRANCH  13  16
ATOM     16  C   UNL     1       7.381   4.955  12.062  0.00  0.00    +0.000 C 
BRANCH  16  17
ATOM     17  C   UNL     1       6.786   3.603  11.753  0.00  0.00    +0.000 A 
ATOM     18  C   UNL     1       5.402   3.414  11.752  0.00  0.00    +0.000 A 
ATOM     19  C   UNL     1       4.899   2.159  11.434  0.00  0.00    +0.000 A 
ATOM     20  N   UNL     1       5.671   1.101  11.116  0.00  0.00    +0.000 NA
ATOM     21  C   UNL     1       7.006   1.305  11.113  0.00  0.00    +0.000 A 
ATOM     22  C   UNL     1       7.601   2.520  11.417  0.00  0.00    +0.000 A 
ENDBRANCH  16  17
ENDBRANCH  13  16
ENDBRANCH   3  12
BRANCH   5  23
ATOM     23  C   UNL     1       4.240   5.952  18.297  0.00  0.00    +0.000 C 
BRANCH  23  24
ATOM     24  C   UNL     1       3.180   7.024  18.490  0.00  0.00    +0.000 A 
ATOM     25  C   UNL     1       2.378   7.175  19.675  0.00  0.00    +0.000 A 
ATOM     26  C   UNL     1       1.566   8.287  19.635  0.00  0.00    +0.000 A 
ATOM     27  S   UNL     1       1.697   9.119  18.149  0.00  0.00    +0.000 S 
ATOM     28  C   UNL     1       2.856   8.003  17.566  0.00  0.00    +0.000 A 
ENDBRANCH  23  24
ENDBRANCH   5  23
TORSDOF 7
ENDMDL
MODEL 9
REMARK VINA RESULT:      -6.5      2.718      7.903
REMARK  Name = 
REMARK  8 active torsions:
REMARK  status: ('A' for Active; 'I' for Inactive)
REMARK    1  A    between atoms: C_1  and  C_2
REMARK    2  A    between atoms: C_2  and  N_3
REMARK    3  A    between atoms: C_4  and  C_6
REMARK    4  A    between atoms: C_8  and  N_9
REMARK    5  A    between atoms: C_10  and  C_12
REMARK    6  A    between atoms: C_12  and  C_13
REMARK    7  A    between atoms: N_20  and  C_21
REMARK    8  A    between atoms: C_21  and  C_22
REMARK                            x       y       z     vdW  Elec       q    Type
REMARK                         _______ _______ _______ _____ _____    ______ ____
ROOT
ATOM      1  C   UNL     1       4.540   5.325  16.351  0.00  0.00    +0.000 C 
ATOM      2  C   UNL     1       5.099   6.258  17.414  0.00  0.00    +0.000 C 
ATOM      3  C   UNL     1       3.878   6.630  18.231  0.00  0.00    +0.000 C 
ATOM      4  C   UNL     1       2.992   5.380  18.142  0.00  0.00    +0.000 C 
ATOM      5  N   UNL     1       3.480   4.516  17.027  0.00  0.00    +0.000 NA
ENDROOT
BRANCH   1   7
ATOM      6  N   UNL     1       5.451   4.350  14.282  0.00  0.00    +0.000 N 
ATOM      7  C   UNL     1       5.654   4.553  15.632  0.00  0.00    +0.000 C 
ATOM      8  O   UNL     1       6.678   4.187  16.205  0.00  0.00    +0.000 OA
ATOM      9  H   UNL     1       4.660   4.811  13.846  0.00  0.00    +0.000 HD
BRANCH   6  11
ATOM     10  C   UNL     1       5.928   3.216  12.161  0.00  0.00    +0.000 C 
ATOM     11  C   UNL     1       6.492   3.784  13.447  0.00  0.00    +0.000 C 
ENDBRANCH   6  11
ENDBRANCH   1   7
BRANCH   3  12
ATOM     12  N   UNL     1       3.231   7.831  17.714  0.00  0.00    +0.000 N 
ATOM     13  C   UNL     1       2.272   8.492  18.456  0.00  0.00    +0.000 C 
ATOM     14  O   UNL     1       1.870   8.088  19.545  0.00  0.00    +0.000 OA
ATOM     15  H   UNL     1       3.560   8.233  16.846  0.00  0.00    +0.000 HD
BRANCH  13  16
ATOM     16  C   UNL     1       1.731   9.759  17.819  0.00  0.00    +0.000 C 
BRANCH  16  17
ATOM     17  C   UNL     1       0.648  10.424  18.633  0.00  0.00    +0.000 A 
ATOM     18  C   UNL     1       0.969  11.255  19.709  0.00  0.00    +0.000 A 
ATOM     19  C   UNL     1      -0.061  11.867  20.411  0.00  0.00    +0.000 A 
ATOM     20  N   UNL     1      -1.366  11.714  20.112  0.00  0.00    +0.000 NA
ATOM     21  C   UNL     1      -1.657  10.915  19.063  0.00  0.00    +0.000 A 
ATOM     22  C   UNL     1      -0.699  10.260  18.304  0.00  0.00    +0.000 A 
ENDBRANCH  16  17
ENDBRANCH  13  16
ENDBRANCH   3  12
BRANCH   5  23
ATOM     23  C   UNL     1       3.923   3.204  17.541  0.00  0.00    +0.000 C 
BRANCH  23  24
ATOM     24  C   UNL     1       3.220   2.906  18.855  0.00  0.00    +0.000 A 
ATOM     25  C   UNL     1       3.886   2.758  20.122  0.00  0.00    +0.000 A 
ATOM     26  C   UNL     1       3.010   2.594  21.172  0.00  0.00    +0.000 A 
ATOM     27  S   UNL     1       1.386   2.539  20.645  0.00  0.00    +0.000 S 
ATOM     28  C   UNL     1       1.853   2.754  19.014  0.00  0.00    +0.000 A 
ENDBRANCH  23  24
ENDBRANCH   5  23
TORSDOF 7
ENDMDL
