MODEL 1
REMARK VINA RESULT:      -7.1      0.000      0.000
REMARK  Name = 
REMARK  6 active torsions:
REMARK  status: ('A' for Active; 'I' for Inactive)
REMARK    1  A    between atoms: C_1  and  C_2
REMARK    2  A    between atoms: C_2  and  N_3
REMARK    3  A    between atoms: N_5  and  C_6
REMARK    4  A    between atoms: C_15  and  C_16
REMARK    5  A    between atoms: C_16  and  C_17
REMARK    6  A    between atoms: C_16  and  O_18
REMARK                            x       y       z     vdW  Elec       q    Type
REMARK                         _______ _______ _______ _____ _____    ______ ____
ROOT
ATOM      1  N   UNL     1       4.287   5.841  17.300  0.00  0.00    +0.000 N 
ATOM      2  C   UNL     1       3.356   6.269  18.266  0.00  0.00    +0.000 A 
ATOM      3  N   UNL     1       3.228   7.628  18.502  0.00  0.00    +0.000 N 
ATOM      4  N   UNL     1       2.604   5.441  18.960  0.00  0.00    +0.000 NA
ATOM      5  C   UNL     1       2.729   4.082  18.664  0.00  0.00    +0.000 A 
ATOM      6  C   UNL     1       2.086   3.033  19.390  0.00  0.00    +0.000 A 
ATOM      7  C   UNL     1       2.362   1.819  18.776  0.00  0.00    +0.000 A 
ATOM      8  S   UNL     1       3.393   1.968  17.413  0.00  0.00    +0.000 S 
ATOM      9  C   UNL     1       3.491   3.642  17.627  0.00  0.00    +0.000 A 
ATOM     10  C   UNL     1       4.305   4.513  16.841  0.00  0.00    +0.000 A 
ATOM     11  O   UNL     1       4.960   4.155  15.863  0.00  0.00    +0.000 OA
ATOM     12  H   UNL     1       4.069   8.188  18.552  0.00  0.00    +0.000 HD
ENDROOT
BRANCH   3  13
ATOM     13  C   UNL     1       2.108   8.226  19.119  0.00  0.00    +0.000 A 
ATOM     14  C   UNL     1       1.710   7.881  20.415  0.00  0.00    +0.000 A 
ATOM     15  C   UNL     1       0.665   8.571  21.012  0.00  0.00    +0.000 A 
ATOM     16  N   UNL     1      -0.016   9.569  20.407  0.00  0.00    +0.000 NA
ATOM     17  C   UNL     1       0.373   9.886  19.151  0.00  0.00    +0.000 A 
ATOM     18  C   UNL     1       1.403   9.247  18.478  0.00  0.00    +0.000 A 
ATOM     19  F   UNL     1       1.734   9.618  17.234  0.00  0.00    +0.000 F 
ENDBRANCH   3  13
BRANCH   1  21
ATOM     20  C   UNL     1       6.582   6.828  17.360  0.00  0.00    +0.000 C 
ATOM     21  C   UNL     1       5.240   6.740  16.647  0.00  0.00    +0.000 C 
ENDBRANCH   1  21
BRANCH   6  22
ATOM     22  C   UNL     1       1.256   3.155  20.641  0.00  0.00    +0.000 C 
ATOM     23  C   UNL     1       2.120   3.175  21.901  0.00  0.00    +0.000 C 
BRANCH  22  24
ATOM     24  O   UNL     1       0.416   4.306  20.635  0.00  0.00    +0.000 OA
ATOM     25  H   UNL     1      -0.115   4.255  21.456  0.00  0.00    +0.000 HD
ENDBRANCH  22  24
ENDBRANCH   6  22
TORSDOF 4
ENDMDL
MODEL 2
REMARK VINA RESULT:      -6.9      1.025      1.405
REMARK  Name = 
REMARK  6 active torsions:
REMARK  status: ('A' for Active; 'I' for Inactive)
REMARK    1  A    between atoms: C_1  and  C_2
REMARK    2  A    between atoms: C_2  and  N_3
REMARK    3  A    between atoms: N_5  and  C_6
REMARK    4  A    between atoms: C_15  and  C_16
REMARK    5  A    between atoms: C_16  and  C_17
REMARK    6  A    between atoms: C_16  and  O_18
REMARK                            x       y       z     vdW  Elec       q    Type
REMARK                         _______ _______ _______ _____ _____    ______ ____
ROOT
ATOM      1  N   UNL     1       4.354   5.895  17.111  0.00  0.00    +0.000 N 
ATOM      2  C   UNL     1       3.370   6.445  17.954  0.00  0.00    +0.000 A 
ATOM      3  N   UNL     1       3.280   7.824  18.053  0.00  0.00    +0.000 N 
ATOM      4  N   UNL     1       2.533   5.713  18.659  0.00  0.00    +0.000 NA
ATOM      5  C   UNL     1       2.625   4.329  18.501  0.00  0.00    +0.000 A 
ATOM      6  C   UNL     1       1.885   3.376  19.267  0.00  0.00    +0.000 A 
ATOM      7  C   UNL     1       2.158   2.100  18.792  0.00  0.00    +0.000 A 
ATOM      8  S   UNL     1       3.296   2.083  17.510  0.00  0.00    +0.000 S 
ATOM      9  C   UNL     1       3.446   3.766  17.575  0.00  0.00    +0.000 A 
ATOM     10  C   UNL     1       4.353   4.530  16.780  0.00  0.00    +0.000 A 
ATOM     11  O   UNL     1       5.067   4.058  15.895  0.00  0.00    +0.000 OA
ATOM     12  H   UNL     1       4.137   8.358  18.119  0.00  0.00    +0.000 HD
ENDROOT
BRANCH   3  13
ATOM     13  C   UNL     1       2.141   8.516  18.519  0.00  0.00    +0.000 A 
ATOM     14  C   UNL     1       1.317   9.245  17.655  0.00  0.00    +0.000 A 
ATOM     15  C   UNL     1       0.155   9.821  18.147  0.00  0.00    +0.000 A 
ATOM     16  N   UNL     1      -0.236   9.732  19.437  0.00  0.00    +0.000 NA
ATOM     17  C   UNL     1       0.575   9.033  20.265  0.00  0.00    +0.000 A 
ATOM     18  C   UNL     1       1.754   8.428  19.858  0.00  0.00    +0.000 A 
ATOM     19  F   UNL     1       2.505   7.748  20.735  0.00  0.00    +0.000 F 
ENDBRANCH   3  13
BRANCH   1  21
ATOM     20  C   UNL     1       6.665   6.831  17.278  0.00  0.00    +0.000 C 
ATOM     21  C   UNL     1       5.391   6.695  16.457  0.00  0.00    +0.000 C 
ENDBRANCH   1  21
BRANCH   6  22
ATOM     22  C   UNL     1       0.966   3.644  20.431  0.00  0.00    +0.000 C 
ATOM     23  C   UNL     1       1.308   2.778  21.641  0.00  0.00    +0.000 C 
BRANCH  22  24
ATOM     24  O   UNL     1       0.963   5.014  20.826  0.00  0.00    +0.000 OA
ATOM     25  H   UNL     1       0.978   5.011  21.804  0.00  0.00    +0.000 HD
ENDBRANCH  22  24
ENDBRANCH   6  22
TORSDOF 4
ENDMDL
MODEL 3
REMARK VINA RESULT:      -6.2      2.428      5.280
REMARK  Name = 
REMARK  6 active torsions:
REMARK  status: ('A' for Active; 'I' for Inactive)
REMARK    1  A    between atoms: C_1  and  C_2
REMARK    2  A    between atoms: C_2  and  N_3
REMARK    3  A    between atoms: N_5  and  C_6
REMARK    4  A    between atoms: C_15  and  C_16
REMARK    5  A    between atoms: C_16  and  C_17
REMARK    6  A    between atoms: C_16  and  O_18
REMARK                            x       y       z     vdW  Elec       q    Type
REMARK                         _______ _______ _______ _____ _____    ______ ____
ROOT
ATOM      1  N   UNL     1       2.684   6.961  18.833  0.00  0.00    +0.000 N 
ATOM      2  C   UNL     1       3.471   6.128  18.016  0.00  0.00    +0.000 A 
ATOM      3  N   UNL     1       4.231   6.712  17.014  0.00  0.00    +0.000 N 
ATOM      4  N   UNL     1       3.518   4.819  18.151  0.00  0.00    +0.000 NA
ATOM      5  C   UNL     1       2.774   4.271  19.198  0.00  0.00    +0.000 A 
ATOM      6  C   UNL     1       2.608   2.871  19.427  0.00  0.00    +0.000 A 
ATOM      7  C   UNL     1       1.882   2.683  20.595  0.00  0.00    +0.000 A 
ATOM      8  S   UNL     1       1.395   4.152  21.334  0.00  0.00    +0.000 S 
ATOM      9  C   UNL     1       2.135   5.053  20.110  0.00  0.00    +0.000 A 
ATOM     10  C   UNL     1       2.080   6.476  20.004  0.00  0.00    +0.000 A 
ATOM     11  O   UNL     1       1.560   7.213  20.841  0.00  0.00    +0.000 OA
ATOM     12  H   UNL     1       3.813   7.451  16.464  0.00  0.00    +0.000 HD
ENDROOT
BRANCH   3  13
ATOM     13  C   UNL     1       5.337   6.093  16.392  0.00  0.00    +0.000 A 
ATOM     14  C   UNL     1       5.240   5.519  15.119  0.00  0.00    +0.000 A 
ATOM     15  C   UNL     1       6.380   5.016  14.512  0.00  0.00    +0.000 A 
ATOM     16  N   UNL     1       7.604   5.033  15.085  0.00  0.00    +0.000 NA
ATOM     17  C   UNL     1       7.682   5.581  16.319  0.00  0.00    +0.000 A 
ATOM     18  C   UNL     1       6.593   6.105  17.000  0.00  0.00    +0.000 A 
ATOM     19  F   UNL     1       6.749   6.636  18.220  0.00  0.00    +0.000 F 
ENDBRANCH   3  13
BRANCH   1  21
ATOM     20  C   UNL     1       1.307   8.706  17.691  0.00  0.00    +0.000 C 
ATOM     21  C   UNL     1       2.500   8.392  18.582  0.00  0.00    +0.000 C 
ENDBRANCH   1  21
BRANCH   6  22
ATOM     22  C   UNL     1       3.092   1.734  18.564  0.00  0.00    +0.000 C 
ATOM     23  C   UNL     1       2.925   2.034  17.076  0.00  0.00    +0.000 C 
BRANCH  22  24
ATOM     24  O   UNL     1       4.451   1.388  18.819  0.00  0.00    +0.000 OA
ATOM     25  H   UNL     1       4.465   0.415  18.921  0.00  0.00    +0.000 HD
ENDBRANCH  22  24
ENDBRANCH   6  22
TORSDOF 4
ENDMDL
MODEL 4
REMARK VINA RESULT:      -6.1      7.250     10.175
REMARK  Name = 
REMARK  6 active torsions:
REMARK  status: ('A' for Active; 'I' for Inactive)
REMARK    1  A    between atoms: C_1  and  C_2
REMARK    2  A    between atoms: C_2  and  N_3
REMARK    3  A    between atoms: N_5  and  C_6
REMARK    4  A    between atoms: C_15  and  C_16
REMARK    5  A    between atoms: C_16  and  C_17
REMARK    6  A    between atoms: C_16  and  O_18
REMARK                            x       y       z     vdW  Elec       q    Type
REMARK                         _______ _______ _______ _____ _____    ______ ____
ROOT
ATOM      1  N   UNL     1      -4.583  13.211  21.412  0.00  0.00    +0.000 N 
ATOM      2  C   UNL     1      -3.321  12.667  21.107  0.00  0.00    +0.000 A 
ATOM      3  N   UNL     1      -2.327  12.724  22.071  0.00  0.00    +0.000 N 
ATOM      4  N   UNL     1      -3.035  12.110  19.949  0.00  0.00    +0.000 NA
ATOM      5  C   UNL     1      -4.074  12.031  19.018  0.00  0.00    +0.000 A 
ATOM      6  C   UNL     1      -3.923  11.571  17.674  0.00  0.00    +0.000 A 
ATOM      7  C   UNL     1      -5.167  11.546  17.059  0.00  0.00    +0.000 A 
ATOM      8  S   UNL     1      -6.434  12.104  18.071  0.00  0.00    +0.000 S 
ATOM      9  C   UNL     1      -5.347  12.392  19.333  0.00  0.00    +0.000 A 
ATOM     10  C   UNL     1      -5.696  12.981  20.586  0.00  0.00    +0.000 A 
ATOM     11  O   UNL     1      -6.845  13.266  20.921  0.00  0.00    +0.000 OA
ATOM     12  H   UNL     1      -2.222  13.579  22.603  0.00  0.00    +0.000 HD
ENDROOT
BRANCH   3  13
ATOM     13  C   UNL     1      -1.177  11.905  22.078  0.00  0.00    +0.000 A 
ATOM     14  C   UNL     1      -1.098  10.754  22.871  0.00  0.00    +0.000 A 
ATOM     15  C   UNL     1       0.012   9.930  22.764  0.00  0.00    +0.000 A 
ATOM     16  N   UNL     1       1.050  10.176  21.935  0.00  0.00    +0.000 NA
ATOM     17  C   UNL     1       0.966  11.297  21.182  0.00  0.00    +0.000 A 
ATOM     18  C   UNL     1      -0.105  12.177  21.228  0.00  0.00    +0.000 A 
ATOM     19  F   UNL     1      -0.119  13.266  20.447  0.00  0.00    +0.000 F 
ENDBRANCH   3  13
BRANCH   1  21
ATOM     20  C   UNL     1      -5.204  13.106  23.830  0.00  0.00    +0.000 C 
ATOM     21  C   UNL     1      -4.857  13.975  22.630  0.00  0.00    +0.000 C 
ENDBRANCH   1  21
BRANCH   6  22
ATOM     22  C   UNL     1      -2.647  11.189  16.970  0.00  0.00    +0.000 C 
ATOM     23  C   UNL     1      -2.885  10.847  15.501  0.00  0.00    +0.000 C 
BRANCH  22  24
ATOM     24  O   UNL     1      -1.646  12.201  17.056  0.00  0.00    +0.000 OA
ATOM     25  H   UNL     1      -0.950  11.944  16.419  0.00  0.00    +0.000 HD
ENDBRANCH  22  24
ENDBRANCH   6  22
TORSDOF 4
ENDMDL
MODEL 5
REMARK VINA RESULT:      -6.0      2.373      5.175
REMARK  Name = 
REMARK  6 active torsions:
REMARK  status: ('A' for Active; 'I' for Inactive)
REMARK    1  A    between atoms: C_1  and  C_2
REMARK    2  A    between atoms: C_2  and  N_3
REMARK    3  A    between atoms: N_5  and  C_6
REMARK    4  A    between atoms: C_15  and  C_16
REMARK    5  A    between atoms: C_16  and  C_17
REMARK    6  A    between atoms: C_16  and  O_18
REMARK                            x       y       z     vdW  Elec       q    Type
REMARK                         _______ _______ _______ _____ _____    ______ ____
ROOT
ATOM      1  N   UNL     1       2.713   6.811  19.090  0.00  0.00    +0.000 N 
ATOM      2  C   UNL     1       3.578   5.987  18.345  0.00  0.00    +0.000 A 
ATOM      3  N   UNL     1       4.451   6.585  17.449  0.00  0.00    +0.000 N 
ATOM      4  N   UNL     1       3.597   4.675  18.453  0.00  0.00    +0.000 NA
ATOM      5  C   UNL     1       2.736   4.112  19.397  0.00  0.00    +0.000 A 
ATOM      6  C   UNL     1       2.533   2.708  19.571  0.00  0.00    +0.000 A 
ATOM      7  C   UNL     1       1.679   2.502  20.646  0.00  0.00    +0.000 A 
ATOM      8  S   UNL     1       1.127   3.959  21.362  0.00  0.00    +0.000 S 
ATOM      9  C   UNL     1       2.007   4.880  20.251  0.00  0.00    +0.000 A 
ATOM     10  C   UNL     1       1.978   6.305  20.174  0.00  0.00    +0.000 A 
ATOM     11  O   UNL     1       1.375   7.029  20.967  0.00  0.00    +0.000 OA
ATOM     12  H   UNL     1       4.104   7.342  16.874  0.00  0.00    +0.000 HD
ENDROOT
BRANCH   3  13
ATOM     13  C   UNL     1       5.613   5.967  16.938  0.00  0.00    +0.000 A 
ATOM     14  C   UNL     1       6.580   5.408  17.781  0.00  0.00    +0.000 A 
ATOM     15  C   UNL     1       7.652   4.725  17.226  0.00  0.00    +0.000 A 
ATOM     16  N   UNL     1       7.834   4.570  15.896  0.00  0.00    +0.000 NA
ATOM     17  C   UNL     1       6.897   5.124  15.093  0.00  0.00    +0.000 A 
ATOM     18  C   UNL     1       5.797   5.826  15.562  0.00  0.00    +0.000 A 
ATOM     19  F   UNL     1       4.908   6.344  14.704  0.00  0.00    +0.000 F 
ENDBRANCH   3  13
BRANCH   1  21
ATOM     20  C   UNL     1       1.588   8.591  17.746  0.00  0.00    +0.000 C 
ATOM     21  C   UNL     1       2.572   8.248  18.856  0.00  0.00    +0.000 C 
ENDBRANCH   1  21
BRANCH   6  22
ATOM     22  C   UNL     1       3.099   1.586  18.740  0.00  0.00    +0.000 C 
ATOM     23  C   UNL     1       2.830   1.786  17.250  0.00  0.00    +0.000 C 
BRANCH  22  24
ATOM     24  O   UNL     1       4.498   1.404  18.940  0.00  0.00    +0.000 OA
ATOM     25  H   UNL     1       4.667   0.451  18.802  0.00  0.00    +0.000 HD
ENDBRANCH  22  24
ENDBRANCH   6  22
TORSDOF 4
ENDMDL
MODEL 6
REMARK VINA RESULT:      -6.0      5.201      8.839
REMARK  Name = 
REMARK  6 active torsions:
REMARK  status: ('A' for Active; 'I' for Inactive)
REMARK    1  A    between atoms: C_1  and  C_2
REMARK    2  A    between atoms: C_2  and  N_3
REMARK    3  A    between atoms: N_5  and  C_6
REMARK    4  A    between atoms: C_15  and  C_16
REMARK    5  A    between atoms: C_16  and  C_17
REMARK    6  A    between atoms: C_16  and  O_18
REMARK                            x       y       z     vdW  Elec       q    Type
REMARK                         _______ _______ _______ _____ _____    ______ ____
ROOT
ATOM      1  N   UNL     1      -1.936  12.660  20.606  0.00  0.00    +0.000 N 
ATOM      2  C   UNL     1      -1.256  11.652  19.897  0.00  0.00    +0.000 A 
ATOM      3  N   UNL     1       0.030  11.319  20.293  0.00  0.00    +0.000 N 
ATOM      4  N   UNL     1      -1.778  11.012  18.872  0.00  0.00    +0.000 NA
ATOM      5  C   UNL     1      -3.091  11.343  18.530  0.00  0.00    +0.000 A 
ATOM      6  C   UNL     1      -3.779  10.843  17.382  0.00  0.00    +0.000 A 
ATOM      7  C   UNL     1      -5.086  11.310  17.395  0.00  0.00    +0.000 A 
ATOM      8  S   UNL     1      -5.423  12.343  18.722  0.00  0.00    +0.000 S 
ATOM      9  C   UNL     1      -3.838  12.189  19.290  0.00  0.00    +0.000 A 
ATOM     10  C   UNL     1      -3.310  12.885  20.418  0.00  0.00    +0.000 A 
ATOM     11  O   UNL     1      -3.974  13.611  21.158  0.00  0.00    +0.000 OA
ATOM     12  H   UNL     1       0.666  12.067  20.537  0.00  0.00    +0.000 HD
ENDROOT
BRANCH   3  13
ATOM     13  C   UNL     1       0.676  10.108  19.963  0.00  0.00    +0.000 A 
ATOM     14  C   UNL     1       1.261   9.903  18.708  0.00  0.00    +0.000 A 
ATOM     15  C   UNL     1       1.970   8.735  18.471  0.00  0.00    +0.000 A 
ATOM     16  N   UNL     1       2.127   7.756  19.388  0.00  0.00    +0.000 NA
ATOM     17  C   UNL     1       1.548   7.961  20.593  0.00  0.00    +0.000 A 
ATOM     18  C   UNL     1       0.820   9.097  20.914  0.00  0.00    +0.000 A 
ATOM     19  F   UNL     1       0.277   9.232  22.132  0.00  0.00    +0.000 F 
ENDBRANCH   3  13
BRANCH   1  21
ATOM     20  C   UNL     1      -1.279  12.835  23.010  0.00  0.00    +0.000 C 
ATOM     21  C   UNL     1      -1.303  13.487  21.635  0.00  0.00    +0.000 C 
ENDBRANCH   1  21
BRANCH   6  22
ATOM     22  C   UNL     1      -3.225   9.972  16.284  0.00  0.00    +0.000 C 
ATOM     23  C   UNL     1      -3.266  10.669  14.926  0.00  0.00    +0.000 C 
BRANCH  22  24
ATOM     24  O   UNL     1      -1.892   9.539  16.544  0.00  0.00    +0.000 OA
ATOM     25  H   UNL     1      -1.699   9.803  17.466  0.00  0.00    +0.000 HD
ENDBRANCH  22  24
ENDBRANCH   6  22
TORSDOF 4
ENDMDL
MODEL 7
REMARK VINA RESULT:      -5.9      4.882      8.442
REMARK  Name = 
REMARK  6 active torsions:
REMARK  status: ('A' for Active; 'I' for Inactive)
REMARK    1  A    between atoms: C_1  and  C_2
REMARK    2  A    between atoms: C_2  and  N_3
REMARK    3  A    between atoms: N_5  and  C_6
REMARK    4  A    between atoms: C_15  and  C_16
REMARK    5  A    between atoms: C_16  and  C_17
REMARK    6  A    between atoms: C_16  and  O_18
REMARK                            x       y       z     vdW  Elec       q    Type
REMARK                         _______ _______ _______ _____ _____    ______ ____
ROOT
ATOM      1  N   UNL     1      -0.983  12.316  20.677  0.00  0.00    +0.000 N 
ATOM      2  C   UNL     1      -0.479  11.311  19.830  0.00  0.00    +0.000 A 
ATOM      3  N   UNL     1       0.816  10.862  20.035  0.00  0.00    +0.000 N 
ATOM      4  N   UNL     1      -1.176  10.779  18.847  0.00  0.00    +0.000 NA
ATOM      5  C   UNL     1      -2.490  11.225  18.699  0.00  0.00    +0.000 A 
ATOM      6  C   UNL     1      -3.354  10.853  17.624  0.00  0.00    +0.000 A 
ATOM      7  C   UNL     1      -4.609  11.410  17.833  0.00  0.00    +0.000 A 
ATOM      8  S   UNL     1      -4.693  12.374  19.249  0.00  0.00    +0.000 S 
ATOM      9  C   UNL     1      -3.067  12.070  19.596  0.00  0.00    +0.000 A 
ATOM     10  C   UNL     1      -2.347  12.650  20.684  0.00  0.00    +0.000 A 
ATOM     11  O   UNL     1      -2.853  13.371  21.543  0.00  0.00    +0.000 OA
ATOM     12  H   UNL     1       1.535  11.545  20.236  0.00  0.00    +0.000 HD
ENDROOT
BRANCH   3  13
ATOM     13  C   UNL     1       1.317   9.632  19.556  0.00  0.00    +0.000 A 
ATOM     14  C   UNL     1       1.781   9.487  18.244  0.00  0.00    +0.000 A 
ATOM     15  C   UNL     1       2.356   8.287  17.855  0.00  0.00    +0.000 A 
ATOM     16  N   UNL     1       2.491   7.221  18.674  0.00  0.00    +0.000 NA
ATOM     17  C   UNL     1       2.029   7.371  19.936  0.00  0.00    +0.000 A 
ATOM     18  C   UNL     1       1.438   8.533  20.408  0.00  0.00    +0.000 A 
ATOM     19  F   UNL     1       1.007   8.609  21.675  0.00  0.00    +0.000 F 
ENDBRANCH   3  13
BRANCH   1  21
ATOM     20  C   UNL     1       0.479  14.295  21.117  0.00  0.00    +0.000 C 
ATOM     21  C   UNL     1      -0.162  13.026  21.660  0.00  0.00    +0.000 C 
ENDBRANCH   1  21
BRANCH   6  22
ATOM     22  C   UNL     1      -3.014  10.019  16.416  0.00  0.00    +0.000 C 
ATOM     23  C   UNL     1      -3.415  10.709  15.113  0.00  0.00    +0.000 C 
BRANCH  22  24
ATOM     24  O   UNL     1      -1.631   9.677  16.354  0.00  0.00    +0.000 OA
ATOM     25  H   UNL     1      -1.346   9.879  15.441  0.00  0.00    +0.000 HD
ENDBRANCH  22  24
ENDBRANCH   6  22
TORSDOF 4
ENDMDL
MODEL 8
REMARK VINA RESULT:      -5.9      7.816      9.438
REMARK  Name = 
REMARK  6 active torsions:
REMARK  status: ('A' for Active; 'I' for Inactive)
REMARK    1  A    between atoms: C_1  and  C_2
REMARK    2  A    between atoms: C_2  and  N_3
REMARK    3  A    between atoms: N_5  and  C_6
REMARK    4  A    between atoms: C_15  and  C_16
REMARK    5  A    between atoms: C_16  and  C_17
REMARK    6  A    between atoms: C_16  and  O_18
REMARK                            x       y       z     vdW  Elec       q    Type
REMARK                         _______ _______ _______ _____ _____    ______ ____
ROOT
ATOM      1  N   UNL     1      -3.303  11.657  17.640  0.00  0.00    +0.000 N 
ATOM      2  C   UNL     1      -2.274  12.073  18.506  0.00  0.00    +0.000 A 
ATOM      3  N   UNL     1      -0.976  12.111  18.019  0.00  0.00    +0.000 N 
ATOM      4  N   UNL     1      -2.481  12.424  19.757  0.00  0.00    +0.000 NA
ATOM      5  C   UNL     1      -3.806  12.416  20.199  0.00  0.00    +0.000 A 
ATOM      6  C   UNL     1      -4.210  12.650  21.549  0.00  0.00    +0.000 A 
ATOM      7  C   UNL     1      -5.597  12.650  21.616  0.00  0.00    +0.000 A 
ATOM      8  S   UNL     1      -6.347  12.331  20.107  0.00  0.00    +0.000 S 
ATOM      9  C   UNL     1      -4.842  12.182  19.350  0.00  0.00    +0.000 A 
ATOM     10  C   UNL     1      -4.655  11.818  17.983  0.00  0.00    +0.000 A 
ATOM     11  O   UNL     1      -5.572  11.656  17.177  0.00  0.00    +0.000 OA
ATOM     12  H   UNL     1      -0.659  11.346  17.438  0.00  0.00    +0.000 HD
ENDROOT
BRANCH   3  13
ATOM     13  C   UNL     1       0.072  12.854  18.605  0.00  0.00    +0.000 A 
ATOM     14  C   UNL     1       0.122  14.250  18.517  0.00  0.00    +0.000 A 
ATOM     15  C   UNL     1       1.117  14.937  19.196  0.00  0.00    +0.000 A 
ATOM     16  N   UNL     1       2.068  14.335  19.943  0.00  0.00    +0.000 NA
ATOM     17  C   UNL     1       2.013  12.985  20.011  0.00  0.00    +0.000 A 
ATOM     18  C   UNL     1       1.056  12.219  19.363  0.00  0.00    +0.000 A 
ATOM     19  F   UNL     1       1.064  10.884  19.480  0.00  0.00    +0.000 F 
ENDBRANCH   3  13
BRANCH   1  21
ATOM     20  C   UNL     1      -2.704   9.630  16.307  0.00  0.00    +0.000 C 
ATOM     21  C   UNL     1      -3.058  11.110  16.304  0.00  0.00    +0.000 C 
ENDBRANCH   1  21
BRANCH   6  22
ATOM     22  C   UNL     1      -3.326  12.843  22.754  0.00  0.00    +0.000 C 
ATOM     23  C   UNL     1      -4.094  12.658  24.062  0.00  0.00    +0.000 C 
BRANCH  22  24
ATOM     24  O   UNL     1      -2.195  11.975  22.752  0.00  0.00    +0.000 OA
ATOM     25  H   UNL     1      -2.377  11.298  22.071  0.00  0.00    +0.000 HD
ENDBRANCH  22  24
ENDBRANCH   6  22
TORSDOF 4
ENDMDL
MODEL 9
REMARK VINA RESULT:      -5.8      6.461      9.103
REMARK  Name = 
REMARK  6 active torsions:
REMARK  status: ('A' for Active; 'I' for Inactive)
REMARK    1  A    between atoms: C_1  and  C_2
REMARK    2  A    between atoms: C_2  and  N_3
REMARK    3  A    between atoms: N_5  and  C_6
REMARK    4  A    between atoms: C_15  and  C_16
REMARK    5  A    between atoms: C_16  and  C_17
REMARK    6  A    between atoms: C_16  and  O_18
REMARK                            x       y       z     vdW  Elec       q    Type
REMARK                         _______ _______ _______ _____ _____    ______ ____
ROOT
ATOM      1  N   UNL     1      -1.048  10.981  19.589  0.00  0.00    +0.000 N 
ATOM      2  C   UNL     1      -2.048  11.879  20.006  0.00  0.00    +0.000 A 
ATOM      3  N   UNL     1      -1.885  12.533  21.217  0.00  0.00    +0.000 N 
ATOM      4  N   UNL     1      -3.135  12.126  19.305  0.00  0.00    +0.000 NA
ATOM      5  C   UNL     1      -3.243  11.483  18.070  0.00  0.00    +0.000 A 
ATOM      6  C   UNL     1      -4.397  11.535  17.229  0.00  0.00    +0.000 A 
ATOM      7  C   UNL     1      -4.130  10.855  16.048  0.00  0.00    +0.000 A 
ATOM      8  S   UNL     1      -2.565  10.156  16.007  0.00  0.00    +0.000 S 
ATOM      9  C   UNL     1      -2.226  10.740  17.557  0.00  0.00    +0.000 A 
ATOM     10  C   UNL     1      -1.026  10.468  18.282  0.00  0.00    +0.000 A 
ATOM     11  O   UNL     1      -0.066   9.848  17.824  0.00  0.00    +0.000 OA
ATOM     12  H   UNL     1      -1.538  12.003  22.006  0.00  0.00    +0.000 HD
ENDROOT
BRANCH   3  13
ATOM     13  C   UNL     1      -2.566  13.715  21.581  0.00  0.00    +0.000 A 
ATOM     14  C   UNL     1      -2.144  14.973  21.137  0.00  0.00    +0.000 A 
ATOM     15  C   UNL     1      -2.907  16.092  21.439  0.00  0.00    +0.000 A 
ATOM     16  N   UNL     1      -4.049  16.047  22.160  0.00  0.00    +0.000 NA
ATOM     17  C   UNL     1      -4.439  14.826  22.592  0.00  0.00    +0.000 A 
ATOM     18  C   UNL     1      -3.737  13.658  22.338  0.00  0.00    +0.000 A 
ATOM     19  F   UNL     1      -4.189  12.482  22.796  0.00  0.00    +0.000 F 
ENDBRANCH   3  13
BRANCH   1  21
ATOM     20  C   UNL     1      -0.179   9.298  21.219  0.00  0.00    +0.000 C 
ATOM     21  C   UNL     1       0.076  10.578  20.436  0.00  0.00    +0.000 C 
ENDBRANCH   1  21
BRANCH   6  22
ATOM     22  C   UNL     1      -5.725  12.180  17.528  0.00  0.00    +0.000 C 
ATOM     23  C   UNL     1      -6.683  11.218  18.228  0.00  0.00    +0.000 C 
BRANCH  22  24
ATOM     24  O   UNL     1      -5.600  13.363  18.313  0.00  0.00    +0.000 OA
ATOM     25  H   UNL     1      -6.199  13.243  19.077  0.00  0.00    +0.000 HD
ENDBRANCH  22  24
ENDBRANCH   6  22
TORSDOF 4
ENDMDL
