MODEL 1
REMARK VINA RESULT:      -7.7      0.000      0.000
REMARK  Name = 
REMARK  8 active torsions:
REMARK  status: ('A' for Active; 'I' for Inactive)
REMARK    1  A    between atoms: C_1  and  O_2
REMARK    2  A    between atoms: O_2  and  C_3
REMARK    3  A    between atoms: C_6  and  N_7
REMARK    4  A    between atoms: N_10  and  C_11
REMARK    5  A    between atoms: C_11  and  C_12
REMARK    6  A    between atoms: C_15  and  C_16
REMARK    7  A    between atoms: C_15  and  C_17
REMARK    8  A    between atoms: C_19  and  C_20
REMARK                            x       y       z     vdW  Elec       q    Type
REMARK                         _______ _______ _______ _____ _____    ______ ____
ROOT
ATOM      1  C   UNL     1       1.568   7.702  18.091  0.00  0.00    +0.000 C 
ENDROOT
BRANCH   1   2
ATOM      2  C   UNL     1       2.678   6.633  17.955  0.00  0.00    +0.000 C 
ATOM      3  N   UNL     1       3.881   7.102  17.806  0.00  0.00    +0.000 NA
ATOM      4  O   UNL     1       4.946   6.265  17.439  0.00  0.00    +0.000 OA
ATOM      5  C   UNL     1       4.814   4.850  17.536  0.00  0.00    +0.000 C 
ATOM      6  C   UNL     1       5.422   4.393  18.868  0.00  0.00    +0.000 C 
ATOM      7  C   UNL     1       5.718   4.286  16.420  0.00  0.00    +0.000 C 
ATOM      8  C   UNL     1       3.398   4.352  17.255  0.00  0.00    +0.000 C 
ATOM      9  C   UNL     1       2.290   5.176  17.907  0.00  0.00    +0.000 C 
BRANCH   9  10
ATOM     10  C   UNL     1       1.883   4.487  19.202  0.00  0.00    +0.000 A 
ATOM     11  C   UNL     1       2.258   4.946  20.467  0.00  0.00    +0.000 A 
ATOM     12  C   UNL     1       2.187   4.093  21.574  0.00  0.00    +0.000 A 
ATOM     13  C   UNL     1       1.697   2.794  21.438  0.00  0.00    +0.000 A 
ATOM     14  C   UNL     1       1.225   2.359  20.205  0.00  0.00    +0.000 A 
ATOM     15  C   UNL     1       1.307   3.203  19.099  0.00  0.00    +0.000 A 
ENDBRANCH   9  10
ENDBRANCH   1   2
BRANCH   1  19
ATOM     16  N   UNL     1      -0.465  10.222  19.935  0.00  0.00    +0.000 N 
ATOM     17  C   UNL     1       0.048  10.552  18.594  0.00  0.00    +0.000 C 
ATOM     18  C   UNL     1       1.539  10.150  18.373  0.00  0.00    +0.000 C 
ATOM     19  N   UNL     1       2.002   8.847  18.933  0.00  0.00    +0.000 NA
ATOM     20  C   UNL     1       1.504   8.781  20.329  0.00  0.00    +0.000 C 
ATOM     21  C   UNL     1      -0.024   8.925  20.477  0.00  0.00    +0.000 C 
BRANCH  16  25
ATOM     22  C   UNL     1      -1.779  13.144  22.696  0.00  0.00    +0.000 A 
ATOM     23  C   UNL     1      -1.709  13.424  21.335  0.00  0.00    +0.000 A 
ATOM     24  C   UNL     1      -1.254  12.445  20.445  0.00  0.00    +0.000 A 
ATOM     25  C   UNL     1      -0.836  11.172  20.877  0.00  0.00    +0.000 A 
ATOM     26  C   UNL     1      -0.857  10.938  22.254  0.00  0.00    +0.000 A 
ATOM     27  C   UNL     1      -1.330  11.911  23.156  0.00  0.00    +0.000 A 
BRANCH  22  29
ATOM     28  C   UNL     1      -3.432  13.862  24.217  0.00  0.00    +0.000 C 
ATOM     29  O   UNL     1      -2.257  14.164  23.472  0.00  0.00    +0.000 OA
ENDBRANCH  22  29
ENDBRANCH  16  25
ENDBRANCH   1  19
TORSDOF 5
ENDMDL
MODEL 2
REMARK VINA RESULT:      -7.4      0.700      1.432
REMARK  Name = 
REMARK  8 active torsions:
REMARK  status: ('A' for Active; 'I' for Inactive)
REMARK    1  A    between atoms: C_1  and  O_2
REMARK    2  A    between atoms: O_2  and  C_3
REMARK    3  A    between atoms: C_6  and  N_7
REMARK    4  A    between atoms: N_10  and  C_11
REMARK    5  A    between atoms: C_11  and  C_12
REMARK    6  A    between atoms: C_15  and  C_16
REMARK    7  A    between atoms: C_15  and  C_17
REMARK    8  A    between atoms: C_19  and  C_20
REMARK                            x       y       z     vdW  Elec       q    Type
REMARK                         _______ _______ _______ _____ _____    ______ ____
ROOT
ATOM      1  C   UNL     1       1.757   7.351  18.129  0.00  0.00    +0.000 C 
ENDROOT
BRANCH   1   2
ATOM      2  C   UNL     1       2.938   6.394  17.846  0.00  0.00    +0.000 C 
ATOM      3  N   UNL     1       4.088   6.973  17.662  0.00  0.00    +0.000 NA
ATOM      4  O   UNL     1       5.190   6.258  17.170  0.00  0.00    +0.000 OA
ATOM      5  C   UNL     1       5.180   4.834  17.165  0.00  0.00    +0.000 C 
ATOM      6  C   UNL     1       5.908   4.336  18.420  0.00  0.00    +0.000 C 
ATOM      7  C   UNL     1       6.051   4.430  15.958  0.00  0.00    +0.000 C 
ATOM      8  C   UNL     1       3.793   4.238  16.931  0.00  0.00    +0.000 C 
ATOM      9  C   UNL     1       2.667   4.915  17.709  0.00  0.00    +0.000 C 
BRANCH   9  10
ATOM     10  C   UNL     1       2.403   4.104  18.970  0.00  0.00    +0.000 A 
ATOM     11  C   UNL     1       1.643   2.932  18.985  0.00  0.00    +0.000 A 
ATOM     12  C   UNL     1       1.122   2.447  20.189  0.00  0.00    +0.000 A 
ATOM     13  C   UNL     1       1.394   3.098  21.392  0.00  0.00    +0.000 A 
ATOM     14  C   UNL     1       2.233   4.207  21.404  0.00  0.00    +0.000 A 
ATOM     15  C   UNL     1       2.742   4.698  20.204  0.00  0.00    +0.000 A 
ENDBRANCH   9  10
ENDBRANCH   1   2
BRANCH   1  19
ATOM     16  N   UNL     1      -0.244   9.949  19.897  0.00  0.00    +0.000 N 
ATOM     17  C   UNL     1       0.149  10.174  18.495  0.00  0.00    +0.000 C 
ATOM     18  C   UNL     1       1.635   9.812  18.192  0.00  0.00    +0.000 C 
ATOM     19  N   UNL     1       2.201   8.586  18.827  0.00  0.00    +0.000 NA
ATOM     20  C   UNL     1       1.815   8.630  20.259  0.00  0.00    +0.000 C 
ATOM     21  C   UNL     1       0.298   8.728  20.516  0.00  0.00    +0.000 C 
BRANCH  16  25
ATOM     22  C   UNL     1      -1.133  12.982  22.708  0.00  0.00    +0.000 A 
ATOM     23  C   UNL     1      -1.133  11.641  23.078  0.00  0.00    +0.000 A 
ATOM     24  C   UNL     1      -0.852  10.656  22.124  0.00  0.00    +0.000 A 
ATOM     25  C   UNL     1      -0.586  10.968  20.777  0.00  0.00    +0.000 A 
ATOM     26  C   UNL     1      -0.655  12.317  20.419  0.00  0.00    +0.000 A 
ATOM     27  C   UNL     1      -0.920  13.316  21.376  0.00  0.00    +0.000 A 
BRANCH  22  29
ATOM     28  C   UNL     1      -1.249  15.236  23.391  0.00  0.00    +0.000 C 
ATOM     29  O   UNL     1      -1.399  13.861  23.723  0.00  0.00    +0.000 OA
ENDBRANCH  22  29
ENDBRANCH  16  25
ENDBRANCH   1  19
TORSDOF 5
ENDMDL
MODEL 3
REMARK VINA RESULT:      -7.4      0.546      1.048
REMARK  Name = 
REMARK  8 active torsions:
REMARK  status: ('A' for Active; 'I' for Inactive)
REMARK    1  A    between atoms: C_1  and  O_2
REMARK    2  A    between atoms: O_2  and  C_3
REMARK    3  A    between atoms: C_6  and  N_7
REMARK    4  A    between atoms: N_10  and  C_11
REMARK    5  A    between atoms: C_11  and  C_12
REMARK    6  A    between atoms: C_15  and  C_16
REMARK    7  A    between atoms: C_15  and  C_17
REMARK    8  A    between atoms: C_19  and  C_20
REMARK                            x       y       z     vdW  Elec       q    Type
REMARK                         _______ _______ _______ _____ _____    ______ ____
ROOT
ATOM      1  C   UNL     1       1.784   7.391  18.134  0.00  0.00    +0.000 C 
ENDROOT
BRANCH   1   2
ATOM      2  C   UNL     1       2.998   6.466  17.886  0.00  0.00    +0.000 C 
ATOM      3  N   UNL     1       4.140   7.074  17.760  0.00  0.00    +0.000 NA
ATOM      4  O   UNL     1       5.278   6.393  17.304  0.00  0.00    +0.000 OA
ATOM      5  C   UNL     1       5.302   4.969  17.276  0.00  0.00    +0.000 C 
ATOM      6  C   UNL     1       5.988   4.466  18.552  0.00  0.00    +0.000 C 
ATOM      7  C   UNL     1       6.232   4.606  16.100  0.00  0.00    +0.000 C 
ATOM      8  C   UNL     1       3.940   4.346  16.973  0.00  0.00    +0.000 C 
ATOM      9  C   UNL     1       2.767   4.984  17.713  0.00  0.00    +0.000 C 
BRANCH   9  10
ATOM     10  C   UNL     1       2.469   4.146  18.948  0.00  0.00    +0.000 A 
ATOM     11  C   UNL     1       1.696   2.982  18.919  0.00  0.00    +0.000 A 
ATOM     12  C   UNL     1       1.146   2.474  20.100  0.00  0.00    +0.000 A 
ATOM     13  C   UNL     1       1.400   3.093  21.324  0.00  0.00    +0.000 A 
ATOM     14  C   UNL     1       2.251   4.191  21.380  0.00  0.00    +0.000 A 
ATOM     15  C   UNL     1       2.790   4.706  20.203  0.00  0.00    +0.000 A 
ENDBRANCH   9  10
ENDBRANCH   1   2
BRANCH   1  19
ATOM     16  N   UNL     1      -0.346   9.925  19.844  0.00  0.00    +0.000 N 
ATOM     17  C   UNL     1       0.098  10.173  18.462  0.00  0.00    +0.000 C 
ATOM     18  C   UNL     1       1.603   9.848  18.215  0.00  0.00    +0.000 C 
ATOM     19  N   UNL     1       2.171   8.628  18.861  0.00  0.00    +0.000 NA
ATOM     20  C   UNL     1       1.726   8.649  20.276  0.00  0.00    +0.000 C 
ATOM     21  C   UNL     1       0.199   8.709  20.473  0.00  0.00    +0.000 C 
BRANCH  16  25
ATOM     22  C   UNL     1      -1.757  12.974  22.413  0.00  0.00    +0.000 A 
ATOM     23  C   UNL     1      -1.806  13.123  21.031  0.00  0.00    +0.000 A 
ATOM     24  C   UNL     1      -1.316  12.105  20.203  0.00  0.00    +0.000 A 
ATOM     25  C   UNL     1      -0.747  10.926  20.719  0.00  0.00    +0.000 A 
ATOM     26  C   UNL     1      -0.652  10.830  22.110  0.00  0.00    +0.000 A 
ATOM     27  C   UNL     1      -1.158  11.841  22.951  0.00  0.00    +0.000 A 
BRANCH  22  29
ATOM     28  C   UNL     1      -3.443  14.617  22.561  0.00  0.00    +0.000 C 
ATOM     29  O   UNL     1      -2.282  14.018  23.126  0.00  0.00    +0.000 OA
ENDBRANCH  22  29
ENDBRANCH  16  25
ENDBRANCH   1  19
TORSDOF 5
ENDMDL
MODEL 4
REMARK VINA RESULT:      -7.1      1.579      3.412
REMARK  Name = 
REMARK  8 active torsions:
REMARK  status: ('A' for Active; 'I' for Inactive)
REMARK    1  A    between atoms: C_1  and  O_2
REMARK    2  A    between atoms: O_2  and  C_3
REMARK    3  A    between atoms: C_6  and  N_7
REMARK    4  A    between atoms: N_10  and  C_11
REMARK    5  A    between atoms: C_11  and  C_12
REMARK    6  A    between atoms: C_15  and  C_16
REMARK    7  A    between atoms: C_15  and  C_17
REMARK    8  A    between atoms: C_19  and  C_20
REMARK                            x       y       z     vdW  Elec       q    Type
REMARK                         _______ _______ _______ _____ _____    ______ ____
ROOT
ATOM      1  C   UNL     1       2.078   7.230  17.744  0.00  0.00    +0.000 C 
ENDROOT
BRANCH   1   2
ATOM      2  C   UNL     1       2.570   5.862  18.272  0.00  0.00    +0.000 C 
ATOM      3  N   UNL     1       1.653   4.945  18.370  0.00  0.00    +0.000 NA
ATOM      4  O   UNL     1       1.900   3.742  19.047  0.00  0.00    +0.000 OA
ATOM      5  C   UNL     1       3.235   3.352  19.358  0.00  0.00    +0.000 C 
ATOM      6  C   UNL     1       3.731   2.393  18.269  0.00  0.00    +0.000 C 
ATOM      7  C   UNL     1       3.121   2.527  20.656  0.00  0.00    +0.000 C 
ATOM      8  C   UNL     1       4.155   4.533  19.662  0.00  0.00    +0.000 C 
ATOM      9  C   UNL     1       4.005   5.720  18.714  0.00  0.00    +0.000 C 
BRANCH   9  10
ATOM     10  C   UNL     1       5.088   5.620  17.649  0.00  0.00    +0.000 A 
ATOM     11  C   UNL     1       4.836   5.755  16.281  0.00  0.00    +0.000 A 
ATOM     12  C   UNL     1       5.766   5.288  15.346  0.00  0.00    +0.000 A 
ATOM     13  C   UNL     1       6.973   4.727  15.765  0.00  0.00    +0.000 A 
ATOM     14  C   UNL     1       7.280   4.681  17.120  0.00  0.00    +0.000 A 
ATOM     15  C   UNL     1       6.350   5.134  18.053  0.00  0.00    +0.000 A 
ENDBRANCH   9  10
ENDBRANCH   1   2
BRANCH   1  19
ATOM     16  N   UNL     1       0.055   9.604  19.783  0.00  0.00    +0.000 N 
ATOM     17  C   UNL     1       0.501  10.009  18.438  0.00  0.00    +0.000 C 
ATOM     18  C   UNL     1       1.992   9.662  18.138  0.00  0.00    +0.000 C 
ATOM     19  N   UNL     1       2.515   8.350  18.619  0.00  0.00    +0.000 NA
ATOM     20  C   UNL     1       2.079   8.207  20.029  0.00  0.00    +0.000 C 
ATOM     21  C   UNL     1       0.555   8.299  20.247  0.00  0.00    +0.000 C 
BRANCH  16  25
ATOM     22  C   UNL     1      -1.196  12.399  22.699  0.00  0.00    +0.000 A 
ATOM     23  C   UNL     1      -0.907  12.802  21.400  0.00  0.00    +0.000 A 
ATOM     24  C   UNL     1      -0.478  11.859  20.458  0.00  0.00    +0.000 A 
ATOM     25  C   UNL     1      -0.303  10.500  20.781  0.00  0.00    +0.000 A 
ATOM     26  C   UNL     1      -0.539  10.134  22.109  0.00  0.00    +0.000 A 
ATOM     27  C   UNL     1      -0.988  11.073  23.059  0.00  0.00    +0.000 A 
BRANCH  22  29
ATOM     28  C   UNL     1      -0.949  14.641  23.391  0.00  0.00    +0.000 C 
ATOM     29  O   UNL     1      -1.627  13.397  23.531  0.00  0.00    +0.000 OA
ENDBRANCH  22  29
ENDBRANCH  16  25
ENDBRANCH   1  19
TORSDOF 5
ENDMDL
MODEL 5
REMARK VINA RESULT:      -7.0      2.173      2.981
REMARK  Name = 
REMARK  8 active torsions:
REMARK  status: ('A' for Active; 'I' for Inactive)
REMARK    1  A    between atoms: C_1  and  O_2
REMARK    2  A    between atoms: O_2  and  C_3
REMARK    3  A    between atoms: C_6  and  N_7
REMARK    4  A    between atoms: N_10  and  C_11
REMARK    5  A    between atoms: C_11  and  C_12
REMARK    6  A    between atoms: C_15  and  C_16
REMARK    7  A    between atoms: C_15  and  C_17
REMARK    8  A    between atoms: C_19  and  C_20
REMARK                            x       y       z     vdW  Elec       q    Type
REMARK                         _______ _______ _______ _____ _____    ______ ____
ROOT
ATOM      1  C   UNL     1       4.002   7.680  18.361  0.00  0.00    +0.000 C 
ENDROOT
BRANCH   1   2
ATOM      2  C   UNL     1       4.827   6.708  17.485  0.00  0.00    +0.000 C 
ATOM      3  N   UNL     1       6.045   7.087  17.234  0.00  0.00    +0.000 NA
ATOM      4  O   UNL     1       6.825   6.431  16.271  0.00  0.00    +0.000 OA
ATOM      5  C   UNL     1       6.436   5.151  15.780  0.00  0.00    +0.000 C 
ATOM      6  C   UNL     1       7.195   4.075  16.568  0.00  0.00    +0.000 C 
ATOM      7  C   UNL     1       6.967   5.098  14.333  0.00  0.00    +0.000 C 
ATOM      8  C   UNL     1       4.922   4.966  15.706  0.00  0.00    +0.000 C 
ATOM      9  C   UNL     1       4.154   5.481  16.920  0.00  0.00    +0.000 C 
BRANCH   9  10
ATOM     10  C   UNL     1       3.886   4.306  17.849  0.00  0.00    +0.000 A 
ATOM     11  C   UNL     1       4.553   4.116  19.062  0.00  0.00    +0.000 A 
ATOM     12  C   UNL     1       4.549   2.860  19.677  0.00  0.00    +0.000 A 
ATOM     13  C   UNL     1       3.843   1.797  19.115  0.00  0.00    +0.000 A 
ATOM     14  C   UNL     1       3.091   1.998  17.963  0.00  0.00    +0.000 A 
ATOM     15  C   UNL     1       3.104   3.246  17.342  0.00  0.00    +0.000 A 
ENDBRANCH   9  10
ENDBRANCH   1   2
BRANCH   1  19
ATOM     16  N   UNL     1       1.152   9.857  19.372  0.00  0.00    +0.000 N 
ATOM     17  C   UNL     1       1.555   8.745  20.250  0.00  0.00    +0.000 C 
ATOM     18  C   UNL     1       1.828   7.410  19.491  0.00  0.00    +0.000 C 
ATOM     19  N   UNL     1       2.540   7.482  18.182  0.00  0.00    +0.000 NA
ATOM     20  C   UNL     1       1.887   8.560  17.400  0.00  0.00    +0.000 C 
ATOM     21  C   UNL     1       1.871   9.939  18.089  0.00  0.00    +0.000 C 
BRANCH  16  25
ATOM     22  C   UNL     1      -2.586  11.833  19.470  0.00  0.00    +0.000 A 
ATOM     23  C   UNL     1      -1.673  11.975  20.509  0.00  0.00    +0.000 A 
ATOM     24  C   UNL     1      -0.450  11.296  20.460  0.00  0.00    +0.000 A 
ATOM     25  C   UNL     1      -0.106  10.443  19.395  0.00  0.00    +0.000 A 
ATOM     26  C   UNL     1      -1.066  10.268  18.395  0.00  0.00    +0.000 A 
ATOM     27  C   UNL     1      -2.293  10.961  18.427  0.00  0.00    +0.000 A 
BRANCH  22  29
ATOM     28  C   UNL     1      -4.849  12.084  18.854  0.00  0.00    +0.000 C 
ATOM     29  O   UNL     1      -3.739  12.557  19.609  0.00  0.00    +0.000 OA
ENDBRANCH  22  29
ENDBRANCH  16  25
ENDBRANCH   1  19
TORSDOF 5
ENDMDL
MODEL 6
REMARK VINA RESULT:      -7.0      2.683      9.709
REMARK  Name = 
REMARK  8 active torsions:
REMARK  status: ('A' for Active; 'I' for Inactive)
REMARK    1  A    between atoms: C_1  and  O_2
REMARK    2  A    between atoms: O_2  and  C_3
REMARK    3  A    between atoms: C_6  and  N_7
REMARK    4  A    between atoms: N_10  and  C_11
REMARK    5  A    between atoms: C_11  and  C_12
REMARK    6  A    between atoms: C_15  and  C_16
REMARK    7  A    between atoms: C_15  and  C_17
REMARK    8  A    between atoms: C_19  and  C_20
REMARK                            x       y       z     vdW  Elec       q    Type
REMARK                         _______ _______ _______ _____ _____    ______ ____
ROOT
ATOM      1  C   UNL     1       1.361  11.365  19.400  0.00  0.00    +0.000 C 
ENDROOT
BRANCH   1   2
ATOM      2  C   UNL     1       0.586  12.379  20.273  0.00  0.00    +0.000 C 
ATOM      3  N   UNL     1       0.678  12.187  21.556  0.00  0.00    +0.000 NA
ATOM      4  O   UNL     1      -0.152  12.876  22.454  0.00  0.00    +0.000 OA
ATOM      5  C   UNL     1      -0.878  14.024  22.025  0.00  0.00    +0.000 C 
ATOM      6  C   UNL     1      -0.078  15.277  22.404  0.00  0.00    +0.000 C 
ATOM      7  C   UNL     1      -2.156  14.036  22.889  0.00  0.00    +0.000 C 
ATOM      8  C   UNL     1      -1.328  13.947  20.568  0.00  0.00    +0.000 C 
ATOM      9  C   UNL     1      -0.271  13.421  19.600  0.00  0.00    +0.000 C 
BRANCH   9  10
ATOM     10  C   UNL     1       0.412  14.614  18.945  0.00  0.00    +0.000 A 
ATOM     11  C   UNL     1       1.799  14.742  18.839  0.00  0.00    +0.000 A 
ATOM     12  C   UNL     1       2.372  15.992  18.584  0.00  0.00    +0.000 A 
ATOM     13  C   UNL     1       1.567  17.114  18.386  0.00  0.00    +0.000 A 
ATOM     14  C   UNL     1       0.184  16.981  18.388  0.00  0.00    +0.000 A 
ATOM     15  C   UNL     1      -0.389  15.739  18.654  0.00  0.00    +0.000 A 
ENDBRANCH   9  10
ENDBRANCH   1   2
BRANCH   1  19
ATOM     16  N   UNL     1       2.258   7.750  19.298  0.00  0.00    +0.000 N 
ATOM     17  C   UNL     1       2.297   8.536  18.053  0.00  0.00    +0.000 C 
ATOM     18  C   UNL     1       1.060   9.466  17.857  0.00  0.00    +0.000 C 
ATOM     19  N   UNL     1       0.528  10.184  19.052  0.00  0.00    +0.000 NA
ATOM     20  C   UNL     1       0.430   9.184  20.142  0.00  0.00    +0.000 C 
ATOM     21  C   UNL     1       1.752   8.466  20.481  0.00  0.00    +0.000 C 
BRANCH  16  25
ATOM     22  C   UNL     1       2.084   3.524  19.325  0.00  0.00    +0.000 A 
ATOM     23  C   UNL     1       2.327   4.223  18.147  0.00  0.00    +0.000 A 
ATOM     24  C   UNL     1       2.363   5.623  18.163  0.00  0.00    +0.000 A 
ATOM     25  C   UNL     1       2.137   6.367  19.336  0.00  0.00    +0.000 A 
ATOM     26  C   UNL     1       1.832   5.642  20.491  0.00  0.00    +0.000 A 
ATOM     27  C   UNL     1       1.812   4.233  20.489  0.00  0.00    +0.000 A 
BRANCH  22  29
ATOM     28  C   UNL     1       3.212   1.621  18.508  0.00  0.00    +0.000 C 
ATOM     29  O   UNL     1       2.092   2.161  19.200  0.00  0.00    +0.000 OA
ENDBRANCH  22  29
ENDBRANCH  16  25
ENDBRANCH   1  19
TORSDOF 5
ENDMDL
MODEL 7
REMARK VINA RESULT:      -7.0      1.592      3.468
REMARK  Name = 
REMARK  8 active torsions:
REMARK  status: ('A' for Active; 'I' for Inactive)
REMARK    1  A    between atoms: C_1  and  O_2
REMARK    2  A    between atoms: O_2  and  C_3
REMARK    3  A    between atoms: C_6  and  N_7
REMARK    4  A    between atoms: N_10  and  C_11
REMARK    5  A    between atoms: C_11  and  C_12
REMARK    6  A    between atoms: C_15  and  C_16
REMARK    7  A    between atoms: C_15  and  C_17
REMARK    8  A    between atoms: C_19  and  C_20
REMARK                            x       y       z     vdW  Elec       q    Type
REMARK                         _______ _______ _______ _____ _____    ______ ____
ROOT
ATOM      1  C   UNL     1       1.967   7.046  17.913  0.00  0.00    +0.000 C 
ENDROOT
BRANCH   1   2
ATOM      2  C   UNL     1       2.461   5.705  18.505  0.00  0.00    +0.000 C 
ATOM      3  N   UNL     1       1.543   4.797  18.659  0.00  0.00    +0.000 NA
ATOM      4  O   UNL     1       1.794   3.629  19.394  0.00  0.00    +0.000 OA
ATOM      5  C   UNL     1       3.131   3.252  19.712  0.00  0.00    +0.000 C 
ATOM      6  C   UNL     1       3.614   2.237  18.668  0.00  0.00    +0.000 C 
ATOM      7  C   UNL     1       3.026   2.495  21.051  0.00  0.00    +0.000 C 
ATOM      8  C   UNL     1       4.056   4.445  19.946  0.00  0.00    +0.000 C 
ATOM      9  C   UNL     1       3.900   5.582  18.941  0.00  0.00    +0.000 C 
BRANCH   9  10
ATOM     10  C   UNL     1       4.973   5.426  17.872  0.00  0.00    +0.000 A 
ATOM     11  C   UNL     1       4.687   5.213  16.521  0.00  0.00    +0.000 A 
ATOM     12  C   UNL     1       5.672   4.707  15.666  0.00  0.00    +0.000 A 
ATOM     13  C   UNL     1       6.959   4.454  16.138  0.00  0.00    +0.000 A 
ATOM     14  C   UNL     1       7.285   4.757  17.455  0.00  0.00    +0.000 A 
ATOM     15  C   UNL     1       6.303   5.250  18.311  0.00  0.00    +0.000 A 
ENDBRANCH   9  10
ENDBRANCH   1   2
BRANCH   1  19
ATOM     16  N   UNL     1       0.061   9.776  19.586  0.00  0.00    +0.000 N 
ATOM     17  C   UNL     1       0.607  10.002  18.237  0.00  0.00    +0.000 C 
ATOM     18  C   UNL     1       2.075   9.505  18.060  0.00  0.00    +0.000 C 
ATOM     19  N   UNL     1       2.457   8.211  18.697  0.00  0.00    +0.000 NA
ATOM     20  C   UNL     1       1.940   8.250  20.087  0.00  0.00    +0.000 C 
ATOM     21  C   UNL     1       0.422   8.489  20.205  0.00  0.00    +0.000 C 
BRANCH  16  25
ATOM     22  C   UNL     1      -0.796  12.802  22.414  0.00  0.00    +0.000 A 
ATOM     23  C   UNL     1      -0.910  11.457  22.748  0.00  0.00    +0.000 A 
ATOM     24  C   UNL     1      -0.637  10.475  21.788  0.00  0.00    +0.000 A 
ATOM     25  C   UNL     1      -0.266  10.797  20.469  0.00  0.00    +0.000 A 
ATOM     26  C   UNL     1      -0.221  12.154  20.142  0.00  0.00    +0.000 A 
ATOM     27  C   UNL     1      -0.477  13.149  21.107  0.00  0.00    +0.000 A 
BRANCH  22  29
ATOM     28  C   UNL     1      -2.433  13.762  23.814  0.00  0.00    +0.000 C 
ATOM     29  O   UNL     1      -1.065  13.675  23.433  0.00  0.00    +0.000 OA
ENDBRANCH  22  29
ENDBRANCH  16  25
ENDBRANCH   1  19
TORSDOF 5
ENDMDL
MODEL 8
REMARK VINA RESULT:      -6.9      2.482      3.291
REMARK  Name = 
REMARK  8 active torsions:
REMARK  status: ('A' for Active; 'I' for Inactive)
REMARK    1  A    between atoms: C_1  and  O_2
REMARK    2  A    between atoms: O_2  and  C_3
REMARK    3  A    between atoms: C_6  and  N_7
REMARK    4  A    between atoms: N_10  and  C_11
REMARK    5  A    between atoms: C_11  and  C_12
REMARK    6  A    between atoms: C_15  and  C_16
REMARK    7  A    between atoms: C_15  and  C_17
REMARK    8  A    between atoms: C_19  and  C_20
REMARK                            x       y       z     vdW  Elec       q    Type
REMARK                         _______ _______ _______ _____ _____    ______ ____
ROOT
ATOM      1  C   UNL     1       3.922   7.597  18.551  0.00  0.00    +0.000 C 
ENDROOT
BRANCH   1   2
ATOM      2  C   UNL     1       4.762   6.669  17.642  0.00  0.00    +0.000 C 
ATOM      3  N   UNL     1       5.975   7.075  17.406  0.00  0.00    +0.000 NA
ATOM      4  O   UNL     1       6.766   6.465  16.421  0.00  0.00    +0.000 OA
ATOM      5  C   UNL     1       6.396   5.198  15.885  0.00  0.00    +0.000 C 
ATOM      6  C   UNL     1       7.170   4.105  16.634  0.00  0.00    +0.000 C 
ATOM      7  C   UNL     1       6.929   5.204  14.437  0.00  0.00    +0.000 C 
ATOM      8  C   UNL     1       4.885   4.993  15.801  0.00  0.00    +0.000 C 
ATOM      9  C   UNL     1       4.109   5.453  17.032  0.00  0.00    +0.000 C 
BRANCH   9  10
ATOM     10  C   UNL     1       3.857   4.241  17.918  0.00  0.00    +0.000 A 
ATOM     11  C   UNL     1       4.553   3.998  19.105  0.00  0.00    +0.000 A 
ATOM     12  C   UNL     1       4.557   2.717  19.667  0.00  0.00    +0.000 A 
ATOM     13  C   UNL     1       3.831   1.682  19.079  0.00  0.00    +0.000 A 
ATOM     14  C   UNL     1       3.052   1.935  17.956  0.00  0.00    +0.000 A 
ATOM     15  C   UNL     1       3.056   3.207  17.387  0.00  0.00    +0.000 A 
ENDBRANCH   9  10
ENDBRANCH   1   2
BRANCH   1  19
ATOM     16  N   UNL     1       1.027   9.899  18.991  0.00  0.00    +0.000 N 
ATOM     17  C   UNL     1       1.438   9.037  20.113  0.00  0.00    +0.000 C 
ATOM     18  C   UNL     1       1.741   7.565  19.698  0.00  0.00    +0.000 C 
ATOM     19  N   UNL     1       2.466   7.334  18.414  0.00  0.00    +0.000 NA
ATOM     20  C   UNL     1       1.804   8.182  17.392  0.00  0.00    +0.000 C 
ATOM     21  C   UNL     1       1.758   9.685  17.730  0.00  0.00    +0.000 C 
BRANCH  16  25
ATOM     22  C   UNL     1      -2.916  11.382  18.609  0.00  0.00    +0.000 A 
ATOM     23  C   UNL     1      -2.417  10.437  17.719  0.00  0.00    +0.000 A 
ATOM     24  C   UNL     1      -1.103   9.976  17.857  0.00  0.00    +0.000 A 
ATOM     25  C   UNL     1      -0.242  10.451  18.864  0.00  0.00    +0.000 A 
ATOM     26  C   UNL     1      -0.747  11.445  19.706  0.00  0.00    +0.000 A 
ATOM     27  C   UNL     1      -2.074  11.902  19.585  0.00  0.00    +0.000 A 
BRANCH  22  29
ATOM     28  C   UNL     1      -4.629  11.763  17.034  0.00  0.00    +0.000 C 
ATOM     29  O   UNL     1      -4.218  11.747  18.396  0.00  0.00    +0.000 OA
ENDBRANCH  22  29
ENDBRANCH  16  25
ENDBRANCH   1  19
TORSDOF 5
ENDMDL
MODEL 9
REMARK VINA RESULT:      -6.8      2.062      3.068
REMARK  Name = 
REMARK  8 active torsions:
REMARK  status: ('A' for Active; 'I' for Inactive)
REMARK    1  A    between atoms: C_1  and  O_2
REMARK    2  A    between atoms: O_2  and  C_3
REMARK    3  A    between atoms: C_6  and  N_7
REMARK    4  A    between atoms: N_10  and  C_11
REMARK    5  A    between atoms: C_11  and  C_12
REMARK    6  A    between atoms: C_15  and  C_16
REMARK    7  A    between atoms: C_15  and  C_17
REMARK    8  A    between atoms: C_19  and  C_20
REMARK                            x       y       z     vdW  Elec       q    Type
REMARK                         _______ _______ _______ _____ _____    ______ ____
ROOT
ATOM      1  C   UNL     1       4.081   7.345  18.492  0.00  0.00    +0.000 C 
ENDROOT
BRANCH   1   2
ATOM      2  C   UNL     1       4.920   6.496  17.509  0.00  0.00    +0.000 C 
ATOM      3  N   UNL     1       6.140   6.907  17.324  0.00  0.00    +0.000 NA
ATOM      4  O   UNL     1       6.934   6.381  16.294  0.00  0.00    +0.000 OA
ATOM      5  C   UNL     1       6.556   5.174  15.638  0.00  0.00    +0.000 C 
ATOM      6  C   UNL     1       7.309   4.008  16.290  0.00  0.00    +0.000 C 
ATOM      7  C   UNL     1       7.105   5.309  14.203  0.00  0.00    +0.000 C 
ATOM      8  C   UNL     1       5.043   4.997  15.521  0.00  0.00    +0.000 C 
ATOM      9  C   UNL     1       4.259   5.350  16.782  0.00  0.00    +0.000 C 
BRANCH   9  10
ATOM     10  C   UNL     1       3.984   4.064  17.549  0.00  0.00    +0.000 A 
ATOM     11  C   UNL     1       2.917   3.210  17.260  0.00  0.00    +0.000 A 
ATOM     12  C   UNL     1       2.492   2.272  18.207  0.00  0.00    +0.000 A 
ATOM     13  C   UNL     1       3.155   2.144  19.427  0.00  0.00    +0.000 A 
ATOM     14  C   UNL     1       4.281   2.917  19.685  0.00  0.00    +0.000 A 
ATOM     15  C   UNL     1       4.699   3.861  18.749  0.00  0.00    +0.000 A 
ENDBRANCH   9  10
ENDBRANCH   1   2
BRANCH   1  19
ATOM     16  N   UNL     1       1.252   9.617  19.340  0.00  0.00    +0.000 N 
ATOM     17  C   UNL     1       1.592   8.517  20.259  0.00  0.00    +0.000 C 
ATOM     18  C   UNL     1       1.859   7.158  19.543  0.00  0.00    +0.000 C 
ATOM     19  N   UNL     1       2.622   7.180  18.260  0.00  0.00    +0.000 NA
ATOM     20  C   UNL     1       2.028   8.255  17.429  0.00  0.00    +0.000 C 
ATOM     21  C   UNL     1       2.021   9.650  18.084  0.00  0.00    +0.000 C 
BRANCH  16  25
ATOM     22  C   UNL     1      -2.435  11.687  19.257  0.00  0.00    +0.000 A 
ATOM     23  C   UNL     1      -1.587  11.779  20.356  0.00  0.00    +0.000 A 
ATOM     24  C   UNL     1      -0.380  11.069  20.365  0.00  0.00    +0.000 A 
ATOM     25  C   UNL     1       0.010  10.236  19.300  0.00  0.00    +0.000 A 
ATOM     26  C   UNL     1      -0.889  10.112  18.237  0.00  0.00    +0.000 A 
ATOM     27  C   UNL     1      -2.097  10.836  18.211  0.00  0.00    +0.000 A 
BRANCH  22  29
ATOM     28  C   UNL     1      -3.807  13.050  20.608  0.00  0.00    +0.000 C 
ATOM     29  O   UNL     1      -3.576  12.438  19.344  0.00  0.00    +0.000 OA
ENDBRANCH  22  29
ENDBRANCH  16  25
ENDBRANCH   1  19
TORSDOF 5
ENDMDL
