MODEL 1
REMARK VINA RESULT:      -7.2      0.000      0.000
REMARK  Name = 
REMARK  8 active torsions:
REMARK  status: ('A' for Active; 'I' for Inactive)
REMARK    1  A    between atoms: C_1  and  C_2
REMARK    2  A    between atoms: C_2  and  O_3
REMARK    3  A    between atoms: O_3  and  C_4
REMARK    4  A    between atoms: C_4  and  C_6
REMARK    5  A    between atoms: C_6  and  C_7
REMARK    6  A    between atoms: C_7  and  N_8
REMARK    7  A    between atoms: C_19  and  O_20
REMARK    8  A    between atoms: C_21  and  O_22
REMARK                            x       y       z     vdW  Elec       q    Type
REMARK                         _______ _______ _______ _____ _____    ______ ____
ROOT
ATOM      1  N   UNL     1       6.826   5.446  15.836  0.00  0.00    +0.000 N 
ATOM      2  C   UNL     1       5.648   6.113  16.041  0.00  0.00    +0.000 C 
ATOM      3  O   UNL     1       4.876   6.508  15.181  0.00  0.00    +0.000 OA
ATOM      4  C   UNL     1       5.351   6.124  17.523  0.00  0.00    +0.000 C 
ATOM      5  C   UNL     1       6.753   5.909  18.099  0.00  0.00    +0.000 C 
ATOM      6  C   UNL     1       6.811   5.338  19.507  0.00  0.00    +0.000 C 
ATOM      7  C   UNL     1       5.823   4.202  19.745  0.00  0.00    +0.000 C 
ATOM      8  C   UNL     1       4.405   4.609  19.336  0.00  0.00    +0.000 C 
ATOM      9  C   UNL     1       3.398   3.499  19.628  0.00  0.00    +0.000 C 
ATOM     10  O   UNL     1       3.682   2.507  20.291  0.00  0.00    +0.000 OA
ATOM     11  C   UNL     1       1.982   3.742  19.159  0.00  0.00    +0.000 C 
ATOM     12  C   UNL     1       1.975   4.122  17.688  0.00  0.00    +0.000 C 
ATOM     13  C   UNL     1       2.932   5.287  17.375  0.00  0.00    +0.000 C 
ATOM     14  C   UNL     1       4.368   4.971  17.842  0.00  0.00    +0.000 C 
ATOM     15  C   UNL     1       7.404   5.073  17.021  0.00  0.00    +0.000 C 
ATOM     16  O   UNL     1       8.282   4.246  17.188  0.00  0.00    +0.000 OA
ENDROOT
BRANCH  12  17
ATOM     17  O   UNL     1       0.644   4.482  17.319  0.00  0.00    +0.000 OA
ATOM     18  H   UNL     1       0.063   3.735  17.567  0.00  0.00    +0.000 HD
ENDBRANCH  12  17
BRANCH  13  19
ATOM     19  O   UNL     1       2.444   6.495  17.962  0.00  0.00    +0.000 OA
ATOM     20  H   UNL     1       2.949   6.721  18.761  0.00  0.00    +0.000 HD
ENDBRANCH  13  19
BRANCH   1  21
ATOM     21  C   UNL     1       7.213   4.915  14.540  0.00  0.00    +0.000 C 
BRANCH  21  22
ATOM     22  C   UNL     1       6.395   3.702  14.118  0.00  0.00    +0.000 C 
BRANCH  22  23
ATOM     23  C   UNL     1       6.199   3.713  12.629  0.00  0.00    +0.000 C 
ATOM     24  O   UNL     1       7.094   3.821  11.803  0.00  0.00    +0.000 OA
BRANCH  23  25
ATOM     25  O   UNL     1       4.866   3.680  12.351  0.00  0.00    +0.000 OA
BRANCH  25  27
ATOM     26  C   UNL     1       3.383   3.540  10.495  0.00  0.00    +0.000 C 
ATOM     27  C   UNL     1       4.500   2.840  11.249  0.00  0.00    +0.000 C 
ENDBRANCH  25  27
ENDBRANCH  23  25
ENDBRANCH  22  23
ENDBRANCH  21  22
ENDBRANCH   1  21
TORSDOF 7
ENDMDL
MODEL 2
REMARK VINA RESULT:      -6.9      0.968      1.050
REMARK  Name = 
REMARK  8 active torsions:
REMARK  status: ('A' for Active; 'I' for Inactive)
REMARK    1  A    between atoms: C_1  and  C_2
REMARK    2  A    between atoms: C_2  and  O_3
REMARK    3  A    between atoms: O_3  and  C_4
REMARK    4  A    between atoms: C_4  and  C_6
REMARK    5  A    between atoms: C_6  and  C_7
REMARK    6  A    between atoms: C_7  and  N_8
REMARK    7  A    between atoms: C_19  and  O_20
REMARK    8  A    between atoms: C_21  and  O_22
REMARK                            x       y       z     vdW  Elec       q    Type
REMARK                         _______ _______ _______ _____ _____    ______ ____
ROOT
ATOM      1  N   UNL     1       6.808   5.469  15.771  0.00  0.00    +0.000 N 
ATOM      2  C   UNL     1       5.626   6.122  16.003  0.00  0.00    +0.000 C 
ATOM      3  O   UNL     1       4.849   6.540  15.159  0.00  0.00    +0.000 OA
ATOM      4  C   UNL     1       5.335   6.080  17.485  0.00  0.00    +0.000 C 
ATOM      5  C   UNL     1       6.740   5.856  18.050  0.00  0.00    +0.000 C 
ATOM      6  C   UNL     1       6.806   5.238  19.437  0.00  0.00    +0.000 C 
ATOM      7  C   UNL     1       5.827   4.088  19.640  0.00  0.00    +0.000 C 
ATOM      8  C   UNL     1       4.405   4.499  19.250  0.00  0.00    +0.000 C 
ATOM      9  C   UNL     1       3.406   3.373  19.507  0.00  0.00    +0.000 C 
ATOM     10  O   UNL     1       3.699   2.361  20.135  0.00  0.00    +0.000 OA
ATOM     11  C   UNL     1       1.988   3.622  19.051  0.00  0.00    +0.000 C 
ATOM     12  C   UNL     1       1.972   4.051  17.594  0.00  0.00    +0.000 C 
ATOM     13  C   UNL     1       2.921   5.232  17.317  0.00  0.00    +0.000 C 
ATOM     14  C   UNL     1       4.360   4.911  17.769  0.00  0.00    +0.000 C 
ATOM     15  C   UNL     1       7.392   5.061  16.941  0.00  0.00    +0.000 C 
ATOM     16  O   UNL     1       8.277   4.235  17.078  0.00  0.00    +0.000 OA
ENDROOT
BRANCH  12  17
ATOM     17  O   UNL     1       0.638   4.414  17.242  0.00  0.00    +0.000 OA
ATOM     18  H   UNL     1       0.646   4.666  16.297  0.00  0.00    +0.000 HD
ENDBRANCH  12  17
BRANCH  13  19
ATOM     19  O   UNL     1       2.426   6.417  17.946  0.00  0.00    +0.000 OA
ATOM     20  H   UNL     1       1.995   6.999  17.299  0.00  0.00    +0.000 HD
ENDBRANCH  13  19
BRANCH   1  21
ATOM     21  C   UNL     1       7.194   4.985  14.457  0.00  0.00    +0.000 C 
BRANCH  21  22
ATOM     22  C   UNL     1       6.272   3.898  13.922  0.00  0.00    +0.000 C 
BRANCH  22  23
ATOM     23  C   UNL     1       6.592   3.623  12.481  0.00  0.00    +0.000 C 
ATOM     24  O   UNL     1       7.272   4.342  11.762  0.00  0.00    +0.000 OA
BRANCH  23  25
ATOM     25  O   UNL     1       5.930   2.503  12.079  0.00  0.00    +0.000 OA
BRANCH  25  27
ATOM     26  C   UNL     1       6.082   0.294  11.205  0.00  0.00    +0.000 C 
ATOM     27  C   UNL     1       6.619   1.711  11.103  0.00  0.00    +0.000 C 
ENDBRANCH  25  27
ENDBRANCH  23  25
ENDBRANCH  22  23
ENDBRANCH  21  22
ENDBRANCH   1  21
TORSDOF 7
ENDMDL
MODEL 3
REMARK VINA RESULT:      -6.8      3.075      6.002
REMARK  Name = 
REMARK  8 active torsions:
REMARK  status: ('A' for Active; 'I' for Inactive)
REMARK    1  A    between atoms: C_1  and  C_2
REMARK    2  A    between atoms: C_2  and  O_3
REMARK    3  A    between atoms: O_3  and  C_4
REMARK    4  A    between atoms: C_4  and  C_6
REMARK    5  A    between atoms: C_6  and  C_7
REMARK    6  A    between atoms: C_7  and  N_8
REMARK    7  A    between atoms: C_19  and  O_20
REMARK    8  A    between atoms: C_21  and  O_22
REMARK                            x       y       z     vdW  Elec       q    Type
REMARK                         _______ _______ _______ _____ _____    ______ ____
ROOT
ATOM      1  N   UNL     1       6.783   6.401  17.740  0.00  0.00    +0.000 N 
ATOM      2  C   UNL     1       6.808   5.348  18.615  0.00  0.00    +0.000 C 
ATOM      3  O   UNL     1       7.165   5.381  19.783  0.00  0.00    +0.000 OA
ATOM      4  C   UNL     1       6.140   4.161  17.962  0.00  0.00    +0.000 C 
ATOM      5  C   UNL     1       6.286   4.526  16.482  0.00  0.00    +0.000 C 
ATOM      6  C   UNL     1       5.296   3.868  15.536  0.00  0.00    +0.000 C 
ATOM      7  C   UNL     1       3.867   3.844  16.067  0.00  0.00    +0.000 C 
ATOM      8  C   UNL     1       3.813   3.250  17.477  0.00  0.00    +0.000 C 
ATOM      9  C   UNL     1       2.379   3.167  17.994  0.00  0.00    +0.000 C 
ATOM     10  O   UNL     1       1.405   3.363  17.274  0.00  0.00    +0.000 OA
ATOM     11  C   UNL     1       2.210   2.704  19.422  0.00  0.00    +0.000 C 
ATOM     12  C   UNL     1       3.083   3.532  20.349  0.00  0.00    +0.000 C 
ATOM     13  C   UNL     1       4.553   3.579  19.889  0.00  0.00    +0.000 C 
ATOM     14  C   UNL     1       4.669   4.091  18.439  0.00  0.00    +0.000 C 
ATOM     15  C   UNL     1       6.246   6.037  16.534  0.00  0.00    +0.000 C 
ATOM     16  O   UNL     1       5.829   6.772  15.657  0.00  0.00    +0.000 OA
ENDROOT
BRANCH  12  17
ATOM     17  O   UNL     1       3.008   2.976  21.661  0.00  0.00    +0.000 OA
ATOM     18  H   UNL     1       2.617   2.084  21.574  0.00  0.00    +0.000 HD
ENDBRANCH  12  17
BRANCH  13  19
ATOM     19  O   UNL     1       5.155   2.291  20.040  0.00  0.00    +0.000 OA
ATOM     20  H   UNL     1       5.783   2.287  20.781  0.00  0.00    +0.000 HD
ENDBRANCH  13  19
BRANCH   1  21
ATOM     21  C   UNL     1       6.978   7.778  18.161  0.00  0.00    +0.000 C 
BRANCH  21  22
ATOM     22  C   UNL     1       8.445   8.181  18.237  0.00  0.00    +0.000 C 
BRANCH  22  23
ATOM     23  C   UNL     1       8.555   9.668  18.415  0.00  0.00    +0.000 C 
ATOM     24  O   UNL     1       8.046  10.504  17.681  0.00  0.00    +0.000 OA
BRANCH  23  25
ATOM     25  O   UNL     1       9.384   9.935  19.462  0.00  0.00    +0.000 OA
BRANCH  25  27
ATOM     26  C   UNL     1      11.139  11.476  19.002  0.00  0.00    +0.000 C 
ATOM     27  C   UNL     1       9.755  11.312  19.604  0.00  0.00    +0.000 C 
ENDBRANCH  25  27
ENDBRANCH  23  25
ENDBRANCH  22  23
ENDBRANCH  21  22
ENDBRANCH   1  21
TORSDOF 7
ENDMDL
MODEL 4
REMARK VINA RESULT:      -6.6      3.079      5.458
REMARK  Name = 
REMARK  8 active torsions:
REMARK  status: ('A' for Active; 'I' for Inactive)
REMARK    1  A    between atoms: C_1  and  C_2
REMARK    2  A    between atoms: C_2  and  O_3
REMARK    3  A    between atoms: O_3  and  C_4
REMARK    4  A    between atoms: C_4  and  C_6
REMARK    5  A    between atoms: C_6  and  C_7
REMARK    6  A    between atoms: C_7  and  N_8
REMARK    7  A    between atoms: C_19  and  O_20
REMARK    8  A    between atoms: C_21  and  O_22
REMARK                            x       y       z     vdW  Elec       q    Type
REMARK                         _______ _______ _______ _____ _____    ______ ____
ROOT
ATOM      1  N   UNL     1       3.921   5.613  17.062  0.00  0.00    +0.000 N 
ATOM      2  C   UNL     1       4.164   4.266  16.998  0.00  0.00    +0.000 C 
ATOM      3  O   UNL     1       5.182   3.730  16.589  0.00  0.00    +0.000 OA
ATOM      4  C   UNL     1       3.038   3.539  17.694  0.00  0.00    +0.000 C 
ATOM      5  C   UNL     1       1.924   4.587  17.614  0.00  0.00    +0.000 C 
ATOM      6  C   UNL     1       0.816   4.457  18.647  0.00  0.00    +0.000 C 
ATOM      7  C   UNL     1       1.322   4.143  20.049  0.00  0.00    +0.000 C 
ATOM      8  C   UNL     1       2.259   2.933  20.041  0.00  0.00    +0.000 C 
ATOM      9  C   UNL     1       2.724   2.574  21.450  0.00  0.00    +0.000 C 
ATOM     10  O   UNL     1       2.232   3.077  22.455  0.00  0.00    +0.000 OA
ATOM     11  C   UNL     1       3.745   1.466  21.555  0.00  0.00    +0.000 C 
ATOM     12  C   UNL     1       4.924   1.752  20.641  0.00  0.00    +0.000 C 
ATOM     13  C   UNL     1       4.490   2.051  19.193  0.00  0.00    +0.000 C 
ATOM     14  C   UNL     1       3.476   3.211  19.143  0.00  0.00    +0.000 C 
ATOM     15  C   UNL     1       2.713   5.876  17.652  0.00  0.00    +0.000 C 
ATOM     16  O   UNL     1       2.328   6.938  18.108  0.00  0.00    +0.000 OA
ENDROOT
BRANCH  12  17
ATOM     17  O   UNL     1       5.795   0.621  20.657  0.00  0.00    +0.000 OA
ATOM     18  H   UNL     1       6.164   0.554  21.561  0.00  0.00    +0.000 HD
ENDBRANCH  12  17
BRANCH  13  19
ATOM     19  O   UNL     1       3.965   0.868  18.585  0.00  0.00    +0.000 OA
ATOM     20  H   UNL     1       4.454   0.649  17.775  0.00  0.00    +0.000 HD
ENDBRANCH  13  19
BRANCH   1  21
ATOM     21  C   UNL     1       4.956   6.609  16.848  0.00  0.00    +0.000 C 
BRANCH  21  22
ATOM     22  C   UNL     1       6.021   6.614  17.937  0.00  0.00    +0.000 C 
BRANCH  22  23
ATOM     23  C   UNL     1       7.371   6.859  17.327  0.00  0.00    +0.000 C 
ATOM     24  O   UNL     1       7.776   6.355  16.289  0.00  0.00    +0.000 OA
BRANCH  23  25
ATOM     25  O   UNL     1       8.102   7.653  18.157  0.00  0.00    +0.000 OA
BRANCH  25  27
ATOM     26  C   UNL     1       8.972   9.764  18.830  0.00  0.00    +0.000 C 
ATOM     27  C   UNL     1       8.039   9.055  17.865  0.00  0.00    +0.000 C 
ENDBRANCH  25  27
ENDBRANCH  23  25
ENDBRANCH  22  23
ENDBRANCH  21  22
ENDBRANCH   1  21
TORSDOF 7
ENDMDL
MODEL 5
REMARK VINA RESULT:      -6.5      4.068      7.854
REMARK  Name = 
REMARK  8 active torsions:
REMARK  status: ('A' for Active; 'I' for Inactive)
REMARK    1  A    between atoms: C_1  and  C_2
REMARK    2  A    between atoms: C_2  and  O_3
REMARK    3  A    between atoms: O_3  and  C_4
REMARK    4  A    between atoms: C_4  and  C_6
REMARK    5  A    between atoms: C_6  and  C_7
REMARK    6  A    between atoms: C_7  and  N_8
REMARK    7  A    between atoms: C_19  and  O_20
REMARK    8  A    between atoms: C_21  and  O_22
REMARK                            x       y       z     vdW  Elec       q    Type
REMARK                         _______ _______ _______ _____ _____    ______ ____
ROOT
ATOM      1  N   UNL     1       1.908   7.116  19.770  0.00  0.00    +0.000 N 
ATOM      2  C   UNL     1       2.444   7.557  18.589  0.00  0.00    +0.000 C 
ATOM      3  O   UNL     1       2.632   8.720  18.266  0.00  0.00    +0.000 OA
ATOM      4  C   UNL     1       2.948   6.364  17.812  0.00  0.00    +0.000 C 
ATOM      5  C   UNL     1       2.112   5.241  18.432  0.00  0.00    +0.000 C 
ATOM      6  C   UNL     1       2.685   3.839  18.304  0.00  0.00    +0.000 C 
ATOM      7  C   UNL     1       4.183   3.765  18.572  0.00  0.00    +0.000 C 
ATOM      8  C   UNL     1       4.946   4.789  17.728  0.00  0.00    +0.000 C 
ATOM      9  C   UNL     1       6.454   4.682  17.945  0.00  0.00    +0.000 C 
ATOM     10  O   UNL     1       6.968   3.754  18.561  0.00  0.00    +0.000 OA
ATOM     11  C   UNL     1       7.304   5.720  17.252  0.00  0.00    +0.000 C 
ATOM     12  C   UNL     1       6.797   7.115  17.577  0.00  0.00    +0.000 C 
ATOM     13  C   UNL     1       5.290   7.274  17.302  0.00  0.00    +0.000 C 
ATOM     14  C   UNL     1       4.469   6.212  18.062  0.00  0.00    +0.000 C 
ATOM     15  C   UNL     1       1.917   5.748  19.843  0.00  0.00    +0.000 C 
ATOM     16  O   UNL     1       1.779   5.059  20.838  0.00  0.00    +0.000 OA
ENDROOT
BRANCH  12  17
ATOM     17  O   UNL     1       7.530   8.057  16.794  0.00  0.00    +0.000 OA
ATOM     18  H   UNL     1       7.611   7.684  15.894  0.00  0.00    +0.000 HD
ENDBRANCH  12  17
BRANCH  13  19
ATOM     19  O   UNL     1       5.039   7.223  15.895  0.00  0.00    +0.000 OA
ATOM     20  H   UNL     1       4.106   7.021  15.717  0.00  0.00    +0.000 HD
ENDBRANCH  13  19
BRANCH   1  21
ATOM     21  C   UNL     1       1.688   7.990  20.909  0.00  0.00    +0.000 C 
BRANCH  21  22
ATOM     22  C   UNL     1       0.340   8.699  20.872  0.00  0.00    +0.000 C 
BRANCH  22  23
ATOM     23  C   UNL     1       0.530  10.166  21.132  0.00  0.00    +0.000 C 
ATOM     24  O   UNL     1       0.756  11.008  20.276  0.00  0.00    +0.000 OA
BRANCH  23  25
ATOM     25  O   UNL     1       0.503  10.391  22.475  0.00  0.00    +0.000 OA
BRANCH  25  27
ATOM     26  C   UNL     1      -1.527  11.517  22.996  0.00  0.00    +0.000 C 
ATOM     27  C   UNL     1      -0.775  10.202  23.095  0.00  0.00    +0.000 C 
ENDBRANCH  25  27
ENDBRANCH  23  25
ENDBRANCH  22  23
ENDBRANCH  21  22
ENDBRANCH   1  21
TORSDOF 7
ENDMDL
MODEL 6
REMARK VINA RESULT:      -6.4      7.616     10.135
REMARK  Name = 
REMARK  8 active torsions:
REMARK  status: ('A' for Active; 'I' for Inactive)
REMARK    1  A    between atoms: C_1  and  C_2
REMARK    2  A    between atoms: C_2  and  O_3
REMARK    3  A    between atoms: O_3  and  C_4
REMARK    4  A    between atoms: C_4  and  C_6
REMARK    5  A    between atoms: C_6  and  C_7
REMARK    6  A    between atoms: C_7  and  N_8
REMARK    7  A    between atoms: C_19  and  O_20
REMARK    8  A    between atoms: C_21  and  O_22
REMARK                            x       y       z     vdW  Elec       q    Type
REMARK                         _______ _______ _______ _____ _____    ______ ____
ROOT
ATOM      1  N   UNL     1       0.458  10.748  21.643  0.00  0.00    +0.000 N 
ATOM      2  C   UNL     1       0.556  11.334  20.410  0.00  0.00    +0.000 C 
ATOM      3  O   UNL     1       1.301  10.997  19.501  0.00  0.00    +0.000 OA
ATOM      4  C   UNL     1      -0.544  12.360  20.274  0.00  0.00    +0.000 C 
ATOM      5  C   UNL     1      -0.852  12.650  21.745  0.00  0.00    +0.000 C 
ATOM      6  C   UNL     1      -2.233  13.217  22.034  0.00  0.00    +0.000 C 
ATOM      7  C   UNL     1      -3.349  12.535  21.253  0.00  0.00    +0.000 C 
ATOM      8  C   UNL     1      -3.032  12.500  19.755  0.00  0.00    +0.000 C 
ATOM      9  C   UNL     1      -4.172  11.872  18.957  0.00  0.00    +0.000 C 
ATOM     10  O   UNL     1      -5.268  11.628  19.451  0.00  0.00    +0.000 OA
ATOM     11  C   UNL     1      -3.924  11.678  17.479  0.00  0.00    +0.000 C 
ATOM     12  C   UNL     1      -2.620  10.930  17.260  0.00  0.00    +0.000 C 
ATOM     13  C   UNL     1      -1.436  11.581  18.000  0.00  0.00    +0.000 C 
ATOM     14  C   UNL     1      -1.729  11.723  19.508  0.00  0.00    +0.000 C 
ATOM     15  C   UNL     1      -0.536  11.320  22.392  0.00  0.00    +0.000 C 
ATOM     16  O   UNL     1      -1.062  10.869  23.394  0.00  0.00    +0.000 OA
ENDROOT
BRANCH  12  17
ATOM     17  O   UNL     1      -2.348  10.892  15.860  0.00  0.00    +0.000 OA
ATOM     18  H   UNL     1      -2.405   9.957  15.580  0.00  0.00    +0.000 HD
ENDBRANCH  12  17
BRANCH  13  19
ATOM     19  O   UNL     1      -1.120  12.843  17.407  0.00  0.00    +0.000 OA
ATOM     20  H   UNL     1      -0.733  13.446  18.062  0.00  0.00    +0.000 HD
ENDBRANCH  13  19
BRANCH   1  21
ATOM     21  C   UNL     1       1.089   9.479  21.963  0.00  0.00    +0.000 C 
BRANCH  21  22
ATOM     22  C   UNL     1       0.448   8.293  21.255  0.00  0.00    +0.000 C 
BRANCH  22  23
ATOM     23  C   UNL     1       1.498   7.515  20.514  0.00  0.00    +0.000 C 
ATOM     24  O   UNL     1       2.038   7.874  19.477  0.00  0.00    +0.000 OA
BRANCH  23  25
ATOM     25  O   UNL     1       1.681   6.313  21.126  0.00  0.00    +0.000 OA
BRANCH  25  27
ATOM     26  C   UNL     1       0.971   4.204  20.281  0.00  0.00    +0.000 C 
ATOM     27  C   UNL     1       2.076   5.245  20.255  0.00  0.00    +0.000 C 
ENDBRANCH  25  27
ENDBRANCH  23  25
ENDBRANCH  22  23
ENDBRANCH  21  22
ENDBRANCH   1  21
TORSDOF 7
ENDMDL
MODEL 7
REMARK VINA RESULT:      -6.4      7.701     10.134
REMARK  Name = 
REMARK  8 active torsions:
REMARK  status: ('A' for Active; 'I' for Inactive)
REMARK    1  A    between atoms: C_1  and  C_2
REMARK    2  A    between atoms: C_2  and  O_3
REMARK    3  A    between atoms: O_3  and  C_4
REMARK    4  A    between atoms: C_4  and  C_6
REMARK    5  A    between atoms: C_6  and  C_7
REMARK    6  A    between atoms: C_7  and  N_8
REMARK    7  A    between atoms: C_19  and  O_20
REMARK    8  A    between atoms: C_21  and  O_22
REMARK                            x       y       z     vdW  Elec       q    Type
REMARK                         _______ _______ _______ _____ _____    ______ ____
ROOT
ATOM      1  N   UNL     1       0.444  10.734  21.634  0.00  0.00    +0.000 N 
ATOM      2  C   UNL     1       0.531  11.384  20.431  0.00  0.00    +0.000 C 
ATOM      3  O   UNL     1       1.276  11.102  19.505  0.00  0.00    +0.000 OA
ATOM      4  C   UNL     1      -0.582  12.403  20.351  0.00  0.00    +0.000 C 
ATOM      5  C   UNL     1      -0.888  12.613  21.836  0.00  0.00    +0.000 C 
ATOM      6  C   UNL     1      -2.274  13.149  22.159  0.00  0.00    +0.000 C 
ATOM      7  C   UNL     1      -3.385  12.494  21.347  0.00  0.00    +0.000 C 
ATOM      8  C   UNL     1      -3.073  12.539  19.848  0.00  0.00    +0.000 C 
ATOM      9  C   UNL     1      -4.209  11.940  19.022  0.00  0.00    +0.000 C 
ATOM     10  O   UNL     1      -5.300  11.658  19.507  0.00  0.00    +0.000 OA
ATOM     11  C   UNL     1      -3.964  11.824  17.536  0.00  0.00    +0.000 C 
ATOM     12  C   UNL     1      -2.652  11.104  17.275  0.00  0.00    +0.000 C 
ATOM     13  C   UNL     1      -1.473  11.730  18.043  0.00  0.00    +0.000 C 
ATOM     14  C   UNL     1      -1.762  11.791  19.557  0.00  0.00    +0.000 C 
ATOM     15  C   UNL     1      -0.554  11.256  22.413  0.00  0.00    +0.000 C 
ATOM     16  O   UNL     1      -1.071  10.748  23.392  0.00  0.00    +0.000 OA
ENDROOT
BRANCH  12  17
ATOM     17  O   UNL     1      -2.386  11.141  15.873  0.00  0.00    +0.000 OA
ATOM     18  H   UNL     1      -2.352  10.214  15.562  0.00  0.00    +0.000 HD
ENDBRANCH  12  17
BRANCH  13  19
ATOM     19  O   UNL     1      -1.174  13.024  17.514  0.00  0.00    +0.000 OA
ATOM     20  H   UNL     1      -0.582  13.513  18.109  0.00  0.00    +0.000 HD
ENDBRANCH  13  19
BRANCH   1  21
ATOM     21  C   UNL     1       1.090   9.458  21.886  0.00  0.00    +0.000 C 
BRANCH  21  22
ATOM     22  C   UNL     1       0.334   8.274  21.298  0.00  0.00    +0.000 C 
BRANCH  22  23
ATOM     23  C   UNL     1       1.308   7.281  20.729  0.00  0.00    +0.000 C 
ATOM     24  O   UNL     1       1.311   6.082  20.970  0.00  0.00    +0.000 OA
BRANCH  23  25
ATOM     25  O   UNL     1       2.237   7.940  19.984  0.00  0.00    +0.000 OA
BRANCH  25  27
ATOM     26  C   UNL     1       2.321   8.485  17.668  0.00  0.00    +0.000 C 
ATOM     27  C   UNL     1       2.487   7.374  18.691  0.00  0.00    +0.000 C 
ENDBRANCH  25  27
ENDBRANCH  23  25
ENDBRANCH  22  23
ENDBRANCH  21  22
ENDBRANCH   1  21
TORSDOF 7
ENDMDL
MODEL 8
REMARK VINA RESULT:      -6.3      3.655      6.388
REMARK  Name = 
REMARK  8 active torsions:
REMARK  status: ('A' for Active; 'I' for Inactive)
REMARK    1  A    between atoms: C_1  and  C_2
REMARK    2  A    between atoms: C_2  and  O_3
REMARK    3  A    between atoms: O_3  and  C_4
REMARK    4  A    between atoms: C_4  and  C_6
REMARK    5  A    between atoms: C_6  and  C_7
REMARK    6  A    between atoms: C_7  and  N_8
REMARK    7  A    between atoms: C_19  and  O_20
REMARK    8  A    between atoms: C_21  and  O_22
REMARK                            x       y       z     vdW  Elec       q    Type
REMARK                         _______ _______ _______ _____ _____    ______ ____
ROOT
ATOM      1  N   UNL     1       2.718   7.913  18.173  0.00  0.00    +0.000 N 
ATOM      2  C   UNL     1       2.643   7.293  19.392  0.00  0.00    +0.000 C 
ATOM      3  O   UNL     1       1.842   7.534  20.283  0.00  0.00    +0.000 OA
ATOM      4  C   UNL     1       3.596   6.121  19.397  0.00  0.00    +0.000 C 
ATOM      5  C   UNL     1       4.573   6.539  18.295  0.00  0.00    +0.000 C 
ATOM      6  C   UNL     1       5.354   5.411  17.638  0.00  0.00    +0.000 C 
ATOM      7  C   UNL     1       4.508   4.180  17.334  0.00  0.00    +0.000 C 
ATOM      8  C   UNL     1       3.741   3.717  18.575  0.00  0.00    +0.000 C 
ATOM      9  C   UNL     1       2.939   2.448  18.296  0.00  0.00    +0.000 C 
ATOM     10  O   UNL     1       3.073   1.795  17.266  0.00  0.00    +0.000 OA
ATOM     11  C   UNL     1       2.049   1.962  19.415  0.00  0.00    +0.000 C 
ATOM     12  C   UNL     1       1.152   3.087  19.900  0.00  0.00    +0.000 C 
ATOM     13  C   UNL     1       1.942   4.361  20.255  0.00  0.00    +0.000 C 
ATOM     14  C   UNL     1       2.805   4.832  19.067  0.00  0.00    +0.000 C 
ATOM     15  C   UNL     1       3.677   7.341  17.379  0.00  0.00    +0.000 C 
ATOM     16  O   UNL     1       3.807   7.459  16.173  0.00  0.00    +0.000 OA
ENDROOT
BRANCH  12  17
ATOM     17  O   UNL     1       0.433   2.633  21.046  0.00  0.00    +0.000 OA
ATOM     18  H   UNL     1      -0.515   2.614  20.804  0.00  0.00    +0.000 HD
ENDBRANCH  12  17
BRANCH  13  19
ATOM     19  O   UNL     1       2.737   4.135  21.422  0.00  0.00    +0.000 OA
ATOM     20  H   UNL     1       3.654   4.421  21.278  0.00  0.00    +0.000 HD
ENDBRANCH  13  19
BRANCH   1  21
ATOM     21  C   UNL     1       1.688   8.813  17.684  0.00  0.00    +0.000 C 
BRANCH  21  22
ATOM     22  C   UNL     1       1.938  10.269  18.052  0.00  0.00    +0.000 C 
BRANCH  22  23
ATOM     23  C   UNL     1       0.929  10.717  19.071  0.00  0.00    +0.000 C 
ATOM     24  O   UNL     1       1.141  11.531  19.959  0.00  0.00    +0.000 OA
BRANCH  23  25
ATOM     25  O   UNL     1      -0.220  10.006  18.907  0.00  0.00    +0.000 OA
BRANCH  25  27
ATOM     26  C   UNL     1      -1.866   9.999  17.188  0.00  0.00    +0.000 C 
ATOM     27  C   UNL     1      -1.326  10.756  18.388  0.00  0.00    +0.000 C 
ENDBRANCH  25  27
ENDBRANCH  23  25
ENDBRANCH  22  23
ENDBRANCH  21  22
ENDBRANCH   1  21
TORSDOF 7
ENDMDL
MODEL 9
REMARK VINA RESULT:      -6.2      4.374      7.660
REMARK  Name = 
REMARK  8 active torsions:
REMARK  status: ('A' for Active; 'I' for Inactive)
REMARK    1  A    between atoms: C_1  and  C_2
REMARK    2  A    between atoms: C_2  and  O_3
REMARK    3  A    between atoms: O_3  and  C_4
REMARK    4  A    between atoms: C_4  and  C_6
REMARK    5  A    between atoms: C_6  and  C_7
REMARK    6  A    between atoms: C_7  and  N_8
REMARK    7  A    between atoms: C_19  and  O_20
REMARK    8  A    between atoms: C_21  and  O_22
REMARK                            x       y       z     vdW  Elec       q    Type
REMARK                         _______ _______ _______ _____ _____    ______ ____
ROOT
ATOM      1  N   UNL     1       1.819   8.543  19.028  0.00  0.00    +0.000 N 
ATOM      2  C   UNL     1       2.024   7.707  20.093  0.00  0.00    +0.000 C 
ATOM      3  O   UNL     1       1.403   7.704  21.145  0.00  0.00    +0.000 OA
ATOM      4  C   UNL     1       3.026   6.650  19.691  0.00  0.00    +0.000 C 
ATOM      5  C   UNL     1       3.738   7.353  18.533  0.00  0.00    +0.000 C 
ATOM      6  C   UNL     1       4.437   6.445  17.535  0.00  0.00    +0.000 C 
ATOM      7  C   UNL     1       3.622   5.215  17.154  0.00  0.00    +0.000 C 
ATOM      8  C   UNL     1       3.145   4.461  18.398  0.00  0.00    +0.000 C 
ATOM      9  C   UNL     1       2.378   3.195  18.025  0.00  0.00    +0.000 C 
ATOM     10  O   UNL     1       2.343   2.757  16.880  0.00  0.00    +0.000 OA
ATOM     11  C   UNL     1       1.758   2.429  19.170  0.00  0.00    +0.000 C 
ATOM     12  C   UNL     1       0.910   3.357  20.024  0.00  0.00    +0.000 C 
ATOM     13  C   UNL     1       1.680   4.613  20.473  0.00  0.00    +0.000 C 
ATOM     14  C   UNL     1       2.261   5.374  19.264  0.00  0.00    +0.000 C 
ATOM     15  C   UNL     1       2.633   8.221  17.974  0.00  0.00    +0.000 C 
ATOM     16  O   UNL     1       2.514   8.569  16.813  0.00  0.00    +0.000 OA
ENDROOT
BRANCH  12  17
ATOM     17  O   UNL     1       0.460   2.634  21.170  0.00  0.00    +0.000 OA
ATOM     18  H   UNL     1      -0.491   2.450  21.040  0.00  0.00    +0.000 HD
ENDBRANCH  12  17
BRANCH  13  19
ATOM     19  O   UNL     1       2.702   4.255  21.406  0.00  0.00    +0.000 OA
ATOM     20  H   UNL     1       3.344   4.976  21.511  0.00  0.00    +0.000 HD
ENDBRANCH  13  19
BRANCH   1  21
ATOM     21  C   UNL     1       0.662   9.415  18.924  0.00  0.00    +0.000 C 
BRANCH  21  22
ATOM     22  C   UNL     1       1.005  10.891  19.080  0.00  0.00    +0.000 C 
BRANCH  22  23
ATOM     23  C   UNL     1       0.803  11.312  20.508  0.00  0.00    +0.000 C 
ATOM     24  O   UNL     1       1.551  12.046  21.137  0.00  0.00    +0.000 OA
BRANCH  23  25
ATOM     25  O   UNL     1      -0.288  10.673  21.015  0.00  0.00    +0.000 OA
BRANCH  25  27
ATOM     26  C   UNL     1      -1.326  11.099  23.113  0.00  0.00    +0.000 C 
ATOM     27  C   UNL     1      -1.243  11.525  21.658  0.00  0.00    +0.000 C 
ENDBRANCH  25  27
ENDBRANCH  23  25
ENDBRANCH  22  23
ENDBRANCH  21  22
ENDBRANCH   1  21
TORSDOF 7
ENDMDL
