MODEL 1
REMARK VINA RESULT:      -7.9      0.000      0.000
REMARK  Name = 
REMARK  2 active torsions:
REMARK  status: ('A' for Active; 'I' for Inactive)
REMARK    1  A    between atoms: C_3  and  C_4
REMARK    2  A    between atoms: N_8  and  C_9
REMARK                            x       y       z     vdW  Elec       q    Type
REMARK                         _______ _______ _______ _____ _____    ______ ____
ROOT
ATOM      1  C   UNL     1       2.605   5.211  18.105  0.00  0.00    +0.000 A 
ATOM      2  C   UNL     1       1.800   4.135  17.779  0.00  0.00    +0.000 A 
ATOM      3  C   UNL     1       2.654   3.227  17.141  0.00  0.00    +0.000 A 
ATOM      4  N   UNL     1       3.910   3.664  17.078  0.00  0.00    +0.000 NA
ATOM      5  N   UNL     1       3.905   4.853  17.744  0.00  0.00    +0.000 N 
ENDROOT
BRANCH   1   8
ATOM      6  O   UNL     1       1.974   5.926  20.822  0.00  0.00    +0.000 OA
ATOM      7  C   UNL     1       1.937   6.801  19.961  0.00  0.00    +0.000 A 
ATOM      8  C   UNL     1       2.276   6.518  18.534  0.00  0.00    +0.000 A 
ATOM      9  C   UNL     1       2.266   7.555  17.685  0.00  0.00    +0.000 A 
ATOM     10  N   UNL     1       1.863   8.833  17.994  0.00  0.00    +0.000 NA
ATOM     11  C   UNL     1       1.539   9.034  19.227  0.00  0.00    +0.000 A 
ATOM     12  N   UNL     1       1.589   8.105  20.223  0.00  0.00    +0.000 N 
ATOM     13  C   UNL     1       1.226   8.546  21.547  0.00  0.00    +0.000 C 
ATOM     14  C   UNL     1       0.932  10.037  21.541  0.00  0.00    +0.000 C 
ATOM     15  S   UNL     1       0.971  10.566  19.810  0.00  0.00    +0.000 S 
ENDBRANCH   1   8
BRANCH   5  16
ATOM     16  C   UNL     1       5.151   5.508  17.995  0.00  0.00    +0.000 A 
ATOM     17  C   UNL     1       5.892   5.155  19.135  0.00  0.00    +0.000 A 
ATOM     18  C   UNL     1       7.131   5.755  19.384  0.00  0.00    +0.000 A 
ATOM     19  C   UNL     1       7.616   6.723  18.513  0.00  0.00    +0.000 A 
ATOM     20  F   UNL     1       8.801   7.295  18.750  0.00  0.00    +0.000 F 
ATOM     21  C   UNL     1       6.877   7.118  17.408  0.00  0.00    +0.000 A 
ATOM     22  C   UNL     1       5.644   6.514  17.150  0.00  0.00    +0.000 A 
ENDBRANCH   5  16
TORSDOF 2
ENDMDL
MODEL 2
REMARK VINA RESULT:      -7.9      0.065      1.032
REMARK  Name = 
REMARK  2 active torsions:
REMARK  status: ('A' for Active; 'I' for Inactive)
REMARK    1  A    between atoms: C_3  and  C_4
REMARK    2  A    between atoms: N_8  and  C_9
REMARK                            x       y       z     vdW  Elec       q    Type
REMARK                         _______ _______ _______ _____ _____    ______ ____
ROOT
ATOM      1  C   UNL     1       2.623   5.169  18.106  0.00  0.00    +0.000 A 
ATOM      2  C   UNL     1       1.810   4.102  17.777  0.00  0.00    +0.000 A 
ATOM      3  C   UNL     1       2.658   3.182  17.149  0.00  0.00    +0.000 A 
ATOM      4  N   UNL     1       3.919   3.605  17.094  0.00  0.00    +0.000 NA
ATOM      5  N   UNL     1       3.922   4.796  17.756  0.00  0.00    +0.000 N 
ENDROOT
BRANCH   1   8
ATOM      6  O   UNL     1       1.976   5.901  20.815  0.00  0.00    +0.000 OA
ATOM      7  C   UNL     1       1.957   6.773  19.951  0.00  0.00    +0.000 A 
ATOM      8  C   UNL     1       2.305   6.482  18.528  0.00  0.00    +0.000 A 
ATOM      9  C   UNL     1       2.315   7.516  17.676  0.00  0.00    +0.000 A 
ATOM     10  N   UNL     1       1.923   8.799  17.978  0.00  0.00    +0.000 NA
ATOM     11  C   UNL     1       1.591   9.008  19.207  0.00  0.00    +0.000 A 
ATOM     12  N   UNL     1       1.621   8.081  20.206  0.00  0.00    +0.000 N 
ATOM     13  C   UNL     1       1.251   8.531  21.526  0.00  0.00    +0.000 C 
ATOM     14  C   UNL     1       0.974  10.025  21.512  0.00  0.00    +0.000 C 
ATOM     15  S   UNL     1       1.035  10.548  19.780  0.00  0.00    +0.000 S 
ENDBRANCH   1   8
BRANCH   5  16
ATOM     16  C   UNL     1       5.173   5.439  18.014  0.00  0.00    +0.000 A 
ATOM     17  C   UNL     1       5.647   6.402  17.107  0.00  0.00    +0.000 A 
ATOM     18  C   UNL     1       6.850   7.071  17.353  0.00  0.00    +0.000 A 
ATOM     19  C   UNL     1       7.590   6.763  18.488  0.00  0.00    +0.000 A 
ATOM     20  F   UNL     1       8.739   7.405  18.726  0.00  0.00    +0.000 F 
ATOM     21  C   UNL     1       7.162   5.782  19.370  0.00  0.00    +0.000 A 
ATOM     22  C   UNL     1       5.957   5.118  19.133  0.00  0.00    +0.000 A 
ENDBRANCH   5  16
TORSDOF 2
ENDMDL
MODEL 3
REMARK VINA RESULT:      -7.0      3.541      5.875
REMARK  Name = 
REMARK  2 active torsions:
REMARK  status: ('A' for Active; 'I' for Inactive)
REMARK    1  A    between atoms: C_3  and  C_4
REMARK    2  A    between atoms: N_8  and  C_9
REMARK                            x       y       z     vdW  Elec       q    Type
REMARK                         _______ _______ _______ _____ _____    ______ ____
ROOT
ATOM      1  C   UNL     1       3.346   3.798  19.735  0.00  0.00    +0.000 A 
ATOM      2  C   UNL     1       3.094   2.631  20.431  0.00  0.00    +0.000 A 
ATOM      3  C   UNL     1       2.192   2.999  21.436  0.00  0.00    +0.000 A 
ATOM      4  N   UNL     1       1.867   4.289  21.385  0.00  0.00    +0.000 NA
ATOM      5  N   UNL     1       2.513   4.773  20.287  0.00  0.00    +0.000 N 
ENDROOT
BRANCH   1   8
ATOM      6  O   UNL     1       3.041   3.500  16.887  0.00  0.00    +0.000 OA
ATOM      7  C   UNL     1       4.115   3.906  17.324  0.00  0.00    +0.000 A 
ATOM      8  C   UNL     1       4.346   4.114  18.784  0.00  0.00    +0.000 A 
ATOM      9  C   UNL     1       5.531   4.620  19.151  0.00  0.00    +0.000 A 
ATOM     10  N   UNL     1       6.590   4.859  18.307  0.00  0.00    +0.000 NA
ATOM     11  C   UNL     1       6.370   4.633  17.056  0.00  0.00    +0.000 A 
ATOM     12  N   UNL     1       5.190   4.208  16.522  0.00  0.00    +0.000 N 
ATOM     13  C   UNL     1       5.139   4.057  15.088  0.00  0.00    +0.000 C 
ATOM     14  C   UNL     1       6.452   4.502  14.467  0.00  0.00    +0.000 C 
ATOM     15  S   UNL     1       7.587   4.839  15.837  0.00  0.00    +0.000 S 
ENDBRANCH   1   8
BRANCH   5  16
ATOM     16  C   UNL     1       2.240   6.110  19.860  0.00  0.00    +0.000 A 
ATOM     17  C   UNL     1       1.719   7.031  20.785  0.00  0.00    +0.000 A 
ATOM     18  C   UNL     1       1.476   8.354  20.402  0.00  0.00    +0.000 A 
ATOM     19  C   UNL     1       1.729   8.751  19.095  0.00  0.00    +0.000 A 
ATOM     20  F   UNL     1       1.501  10.017  18.730  0.00  0.00    +0.000 F 
ATOM     21  C   UNL     1       2.200   7.845  18.156  0.00  0.00    +0.000 A 
ATOM     22  C   UNL     1       2.452   6.524  18.536  0.00  0.00    +0.000 A 
ENDBRANCH   5  16
TORSDOF 2
ENDMDL
MODEL 4
REMARK VINA RESULT:      -6.9      3.414      5.739
REMARK  Name = 
REMARK  2 active torsions:
REMARK  status: ('A' for Active; 'I' for Inactive)
REMARK    1  A    between atoms: C_3  and  C_4
REMARK    2  A    between atoms: N_8  and  C_9
REMARK                            x       y       z     vdW  Elec       q    Type
REMARK                         _______ _______ _______ _____ _____    ______ ____
ROOT
ATOM      1  C   UNL     1       3.086   3.674  19.614  0.00  0.00    +0.000 A 
ATOM      2  C   UNL     1       2.918   2.588  20.452  0.00  0.00    +0.000 A 
ATOM      3  C   UNL     1       2.352   3.117  21.618  0.00  0.00    +0.000 A 
ATOM      4  N   UNL     1       2.148   4.430  21.537  0.00  0.00    +0.000 NA
ATOM      5  N   UNL     1       2.523   4.770  20.273  0.00  0.00    +0.000 N 
ENDROOT
BRANCH   1   8
ATOM      6  O   UNL     1       5.842   4.496  19.481  0.00  0.00    +0.000 OA
ATOM      7  C   UNL     1       5.245   4.271  18.431  0.00  0.00    +0.000 A 
ATOM      8  C   UNL     1       3.823   3.815  18.415  0.00  0.00    +0.000 A 
ATOM      9  C   UNL     1       3.283   3.536  17.220  0.00  0.00    +0.000 A 
ATOM     10  N   UNL     1       3.893   3.741  16.005  0.00  0.00    +0.000 NA
ATOM     11  C   UNL     1       5.108   4.171  16.053  0.00  0.00    +0.000 A 
ATOM     12  N   UNL     1       5.820   4.411  17.191  0.00  0.00    +0.000 N 
ATOM     13  C   UNL     1       7.185   4.849  17.027  0.00  0.00    +0.000 C 
ATOM     14  C   UNL     1       7.555   4.870  15.554  0.00  0.00    +0.000 C 
ATOM     15  S   UNL     1       6.036   4.525  14.631  0.00  0.00    +0.000 S 
ENDBRANCH   1   8
BRANCH   5  16
ATOM     16  C   UNL     1       2.274   6.101  19.813  0.00  0.00    +0.000 A 
ATOM     17  C   UNL     1       1.713   7.036  20.699  0.00  0.00    +0.000 A 
ATOM     18  C   UNL     1       1.492   8.354  20.285  0.00  0.00    +0.000 A 
ATOM     19  C   UNL     1       1.806   8.730  18.984  0.00  0.00    +0.000 A 
ATOM     20  F   UNL     1       1.598   9.991  18.590  0.00  0.00    +0.000 F 
ATOM     21  C   UNL     1       2.317   7.809  18.082  0.00  0.00    +0.000 A 
ATOM     22  C   UNL     1       2.547   6.494  18.494  0.00  0.00    +0.000 A 
ENDBRANCH   5  16
TORSDOF 2
ENDMDL
MODEL 5
REMARK VINA RESULT:      -6.9      3.533      5.917
REMARK  Name = 
REMARK  2 active torsions:
REMARK  status: ('A' for Active; 'I' for Inactive)
REMARK    1  A    between atoms: C_3  and  C_4
REMARK    2  A    between atoms: N_8  and  C_9
REMARK                            x       y       z     vdW  Elec       q    Type
REMARK                         _______ _______ _______ _____ _____    ______ ____
ROOT
ATOM      1  C   UNL     1       3.284   3.793  19.721  0.00  0.00    +0.000 A 
ATOM      2  C   UNL     1       3.005   2.616  20.390  0.00  0.00    +0.000 A 
ATOM      3  C   UNL     1       2.096   2.978  21.392  0.00  0.00    +0.000 A 
ATOM      4  N   UNL     1       1.793   4.275  21.363  0.00  0.00    +0.000 NA
ATOM      5  N   UNL     1       2.460   4.770  20.283  0.00  0.00    +0.000 N 
ENDROOT
BRANCH   1   8
ATOM      6  O   UNL     1       3.023   3.516  16.867  0.00  0.00    +0.000 OA
ATOM      7  C   UNL     1       4.092   3.914  17.323  0.00  0.00    +0.000 A 
ATOM      8  C   UNL     1       4.300   4.110  18.788  0.00  0.00    +0.000 A 
ATOM      9  C   UNL     1       5.481   4.609  19.178  0.00  0.00    +0.000 A 
ATOM     10  N   UNL     1       6.555   4.848  18.353  0.00  0.00    +0.000 NA
ATOM     11  C   UNL     1       6.354   4.632  17.097  0.00  0.00    +0.000 A 
ATOM     12  N   UNL     1       5.181   4.217  16.541  0.00  0.00    +0.000 N 
ATOM     13  C   UNL     1       5.152   4.076  15.105  0.00  0.00    +0.000 C 
ATOM     14  C   UNL     1       6.477   4.520  14.509  0.00  0.00    +0.000 C 
ATOM     15  S   UNL     1       7.591   4.841  15.899  0.00  0.00    +0.000 S 
ENDBRANCH   1   8
BRANCH   5  16
ATOM     16  C   UNL     1       2.214   6.120  19.879  0.00  0.00    +0.000 A 
ATOM     17  C   UNL     1       2.482   6.496  18.552  0.00  0.00    +0.000 A 
ATOM     18  C   UNL     1       2.217   7.800  18.123  0.00  0.00    +0.000 A 
ATOM     19  C   UNL     1       1.711   8.732  19.020  0.00  0.00    +0.000 A 
ATOM     20  F   UNL     1       1.454   9.979  18.609  0.00  0.00    +0.000 F 
ATOM     21  C   UNL     1       1.484   8.392  20.346  0.00  0.00    +0.000 A 
ATOM     22  C   UNL     1       1.739   7.088  20.777  0.00  0.00    +0.000 A 
ENDBRANCH   5  16
TORSDOF 2
ENDMDL
MODEL 6
REMARK VINA RESULT:      -6.8      1.060      1.553
REMARK  Name = 
REMARK  2 active torsions:
REMARK  status: ('A' for Active; 'I' for Inactive)
REMARK    1  A    between atoms: C_3  and  C_4
REMARK    2  A    between atoms: N_8  and  C_9
REMARK                            x       y       z     vdW  Elec       q    Type
REMARK                         _______ _______ _______ _____ _____    ______ ____
ROOT
ATOM      1  C   UNL     1       3.817   5.239  17.665  0.00  0.00    +0.000 A 
ATOM      2  C   UNL     1       3.278   4.041  17.237  0.00  0.00    +0.000 A 
ATOM      3  C   UNL     1       4.351   3.344  16.669  0.00  0.00    +0.000 A 
ATOM      4  N   UNL     1       5.496   4.022  16.743  0.00  0.00    +0.000 NA
ATOM      5  N   UNL     1       5.191   5.158  17.429  0.00  0.00    +0.000 N 
ENDROOT
BRANCH   1   8
ATOM      6  O   UNL     1       2.694   5.664  20.282  0.00  0.00    +0.000 OA
ATOM      7  C   UNL     1       2.615   6.569  19.455  0.00  0.00    +0.000 A 
ATOM      8  C   UNL     1       3.195   6.438  18.085  0.00  0.00    +0.000 A 
ATOM      9  C   UNL     1       3.111   7.507  17.281  0.00  0.00    +0.000 A 
ATOM     10  N   UNL     1       2.439   8.670  17.571  0.00  0.00    +0.000 NA
ATOM     11  C   UNL     1       1.916   8.736  18.749  0.00  0.00    +0.000 A 
ATOM     12  N   UNL     1       1.999   7.771  19.708  0.00  0.00    +0.000 N 
ATOM     13  C   UNL     1       1.380   8.059  20.979  0.00  0.00    +0.000 C 
ATOM     14  C   UNL     1       0.818   9.470  20.981  0.00  0.00    +0.000 C 
ATOM     15  S   UNL     1       0.998  10.103  19.294  0.00  0.00    +0.000 S 
ENDBRANCH   1   8
BRANCH   5  16
ATOM     16  C   UNL     1       6.252   6.035  17.817  0.00  0.00    +0.000 A 
ATOM     17  C   UNL     1       6.482   7.203  17.070  0.00  0.00    +0.000 A 
ATOM     18  C   UNL     1       7.489   8.095  17.450  0.00  0.00    +0.000 A 
ATOM     19  C   UNL     1       8.282   7.811  18.555  0.00  0.00    +0.000 A 
ATOM     20  F   UNL     1       9.244   8.665  18.920  0.00  0.00    +0.000 F 
ATOM     21  C   UNL     1       8.101   6.640  19.276  0.00  0.00    +0.000 A 
ATOM     22  C   UNL     1       7.089   5.750  18.907  0.00  0.00    +0.000 A 
ENDBRANCH   5  16
TORSDOF 2
ENDMDL
MODEL 7
REMARK VINA RESULT:      -6.8      2.989      3.906
REMARK  Name = 
REMARK  2 active torsions:
REMARK  status: ('A' for Active; 'I' for Inactive)
REMARK    1  A    between atoms: C_3  and  C_4
REMARK    2  A    between atoms: N_8  and  C_9
REMARK                            x       y       z     vdW  Elec       q    Type
REMARK                         _______ _______ _______ _____ _____    ______ ____
ROOT
ATOM      1  C   UNL     1       5.156   4.362  16.071  0.00  0.00    +0.000 A 
ATOM      2  C   UNL     1       5.043   3.618  14.912  0.00  0.00    +0.000 A 
ATOM      3  C   UNL     1       6.040   4.116  14.064  0.00  0.00    +0.000 A 
ATOM      4  N   UNL     1       6.755   5.086  14.632  0.00  0.00    +0.000 NA
ATOM      5  N   UNL     1       6.269   5.188  15.901  0.00  0.00    +0.000 N 
ENDROOT
BRANCH   1   8
ATOM      6  O   UNL     1       4.252   2.168  17.703  0.00  0.00    +0.000 OA
ATOM      7  C   UNL     1       3.844   3.298  17.959  0.00  0.00    +0.000 A 
ATOM      8  C   UNL     1       4.285   4.492  17.178  0.00  0.00    +0.000 A 
ATOM      9  C   UNL     1       3.830   5.688  17.579  0.00  0.00    +0.000 A 
ATOM     10  N   UNL     1       2.906   5.894  18.576  0.00  0.00    +0.000 NA
ATOM     11  C   UNL     1       2.517   4.837  19.205  0.00  0.00    +0.000 A 
ATOM     12  N   UNL     1       2.959   3.569  18.975  0.00  0.00    +0.000 N 
ATOM     13  C   UNL     1       2.428   2.528  19.822  0.00  0.00    +0.000 C 
ATOM     14  C   UNL     1       1.512   3.127  20.876  0.00  0.00    +0.000 C 
ATOM     15  S   UNL     1       1.331   4.882  20.470  0.00  0.00    +0.000 S 
ENDBRANCH   1   8
BRANCH   5  16
ATOM     16  C   UNL     1       6.941   6.042  16.830  0.00  0.00    +0.000 A 
ATOM     17  C   UNL     1       7.492   5.484  17.996  0.00  0.00    +0.000 A 
ATOM     18  C   UNL     1       8.186   6.291  18.904  0.00  0.00    +0.000 A 
ATOM     19  C   UNL     1       8.306   7.654  18.662  0.00  0.00    +0.000 A 
ATOM     20  F   UNL     1       8.971   8.425  19.529  0.00  0.00    +0.000 F 
ATOM     21  C   UNL     1       7.729   8.230  17.541  0.00  0.00    +0.000 A 
ATOM     22  C   UNL     1       7.043   7.426  16.627  0.00  0.00    +0.000 A 
ENDBRANCH   5  16
TORSDOF 2
ENDMDL
MODEL 8
REMARK VINA RESULT:      -6.8      2.982      4.023
REMARK  Name = 
REMARK  2 active torsions:
REMARK  status: ('A' for Active; 'I' for Inactive)
REMARK    1  A    between atoms: C_3  and  C_4
REMARK    2  A    between atoms: N_8  and  C_9
REMARK                            x       y       z     vdW  Elec       q    Type
REMARK                         _______ _______ _______ _____ _____    ______ ____
ROOT
ATOM      1  C   UNL     1       5.153   4.359  16.081  0.00  0.00    +0.000 A 
ATOM      2  C   UNL     1       5.017   3.633  14.913  0.00  0.00    +0.000 A 
ATOM      3  C   UNL     1       6.024   4.117  14.068  0.00  0.00    +0.000 A 
ATOM      4  N   UNL     1       6.765   5.060  14.646  0.00  0.00    +0.000 NA
ATOM      5  N   UNL     1       6.286   5.158  15.917  0.00  0.00    +0.000 N 
ENDROOT
BRANCH   1   8
ATOM      6  O   UNL     1       4.210   2.169  17.696  0.00  0.00    +0.000 OA
ATOM      7  C   UNL     1       3.826   3.304  17.964  0.00  0.00    +0.000 A 
ATOM      8  C   UNL     1       4.289   4.496  17.192  0.00  0.00    +0.000 A 
ATOM      9  C   UNL     1       3.860   5.697  17.605  0.00  0.00    +0.000 A 
ATOM     10  N   UNL     1       2.944   5.913  18.608  0.00  0.00    +0.000 NA
ATOM     11  C   UNL     1       2.535   4.859  19.229  0.00  0.00    +0.000 A 
ATOM     12  N   UNL     1       2.951   3.583  18.986  0.00  0.00    +0.000 N 
ATOM     13  C   UNL     1       2.401   2.546  19.825  0.00  0.00    +0.000 C 
ATOM     14  C   UNL     1       1.502   3.154  20.888  0.00  0.00    +0.000 C 
ATOM     15  S   UNL     1       1.355   4.916  20.499  0.00  0.00    +0.000 S 
ENDBRANCH   1   8
BRANCH   5  16
ATOM     16  C   UNL     1       6.982   5.983  16.855  0.00  0.00    +0.000 A 
ATOM     17  C   UNL     1       7.138   7.352  16.578  0.00  0.00    +0.000 A 
ATOM     18  C   UNL     1       7.783   8.188  17.495  0.00  0.00    +0.000 A 
ATOM     19  C   UNL     1       8.293   7.655  18.673  0.00  0.00    +0.000 A 
ATOM     20  F   UNL     1       8.907   8.455  19.551  0.00  0.00    +0.000 F 
ATOM     21  C   UNL     1       8.189   6.299  18.942  0.00  0.00    +0.000 A 
ATOM     22  C   UNL     1       7.538   5.462  18.033  0.00  0.00    +0.000 A 
ENDBRANCH   5  16
TORSDOF 2
ENDMDL
MODEL 9
REMARK VINA RESULT:      -6.8      3.412      5.780
REMARK  Name = 
REMARK  2 active torsions:
REMARK  status: ('A' for Active; 'I' for Inactive)
REMARK    1  A    between atoms: C_3  and  C_4
REMARK    2  A    between atoms: N_8  and  C_9
REMARK                            x       y       z     vdW  Elec       q    Type
REMARK                         _______ _______ _______ _____ _____    ______ ____
ROOT
ATOM      1  C   UNL     1       3.071   3.675  19.614  0.00  0.00    +0.000 A 
ATOM      2  C   UNL     1       2.892   2.583  20.442  0.00  0.00    +0.000 A 
ATOM      3  C   UNL     1       2.329   3.107  21.613  0.00  0.00    +0.000 A 
ATOM      4  N   UNL     1       2.138   4.423  21.543  0.00  0.00    +0.000 NA
ATOM      5  N   UNL     1       2.517   4.770  20.281  0.00  0.00    +0.000 N 
ENDROOT
BRANCH   1   8
ATOM      6  O   UNL     1       5.834   4.476  19.490  0.00  0.00    +0.000 OA
ATOM      7  C   UNL     1       5.236   4.263  18.438  0.00  0.00    +0.000 A 
ATOM      8  C   UNL     1       3.811   3.819  18.417  0.00  0.00    +0.000 A 
ATOM      9  C   UNL     1       3.271   3.552  17.220  0.00  0.00    +0.000 A 
ATOM     10  N   UNL     1       3.883   3.761  16.006  0.00  0.00    +0.000 NA
ATOM     11  C   UNL     1       5.101   4.182  16.060  0.00  0.00    +0.000 A 
ATOM     12  N   UNL     1       5.814   4.408  17.200  0.00  0.00    +0.000 N 
ATOM     13  C   UNL     1       7.182   4.837  17.040  0.00  0.00    +0.000 C 
ATOM     14  C   UNL     1       7.554   4.866  15.568  0.00  0.00    +0.000 C 
ATOM     15  S   UNL     1       6.034   4.539  14.641  0.00  0.00    +0.000 S 
ENDBRANCH   1   8
BRANCH   5  16
ATOM     16  C   UNL     1       2.281   6.107  19.832  0.00  0.00    +0.000 A 
ATOM     17  C   UNL     1       2.608   6.452  18.510  0.00  0.00    +0.000 A 
ATOM     18  C   UNL     1       2.354   7.742  18.035  0.00  0.00    +0.000 A 
ATOM     19  C   UNL     1       1.800   8.692  18.884  0.00  0.00    +0.000 A 
ATOM     20  F   UNL     1       1.554   9.926  18.429  0.00  0.00    +0.000 F 
ATOM     21  C   UNL     1       1.514   8.384  20.205  0.00  0.00    +0.000 A 
ATOM     22  C   UNL     1       1.757   7.093  20.681  0.00  0.00    +0.000 A 
ENDBRANCH   5  16
TORSDOF 2
ENDMDL
