MODEL 1
REMARK VINA RESULT:      -8.0      0.000      0.000
REMARK  Name = 
REMARK  6 active torsions:
REMARK  status: ('A' for Active; 'I' for Inactive)
REMARK    1  A    between atoms: C_4  and  C_5
REMARK    2  A    between atoms: C_7  and  C_8
REMARK    3  A    between atoms: N_12  and  C_13
REMARK    4  A    between atoms: C_13  and  C_14
REMARK    5  A    between atoms: C_14  and  C_15
REMARK    6  A    between atoms: C_15  and  N_16
REMARK                            x       y       z     vdW  Elec       q    Type
REMARK                         _______ _______ _______ _____ _____    ______ ____
ROOT
ATOM      1  C   UNL     1       6.727   5.908  16.528  0.00  0.00    +0.000 A 
ATOM      2  N   UNL     1       7.257   5.360  15.448  0.00  0.00    +0.000 NA
ATOM      3  C   UNL     1       6.336   4.464  14.982  0.00  0.00    +0.000 A 
ATOM      4  C   UNL     1       5.216   4.468  15.775  0.00  0.00    +0.000 A 
ATOM      5  N   UNL     1       5.455   5.422  16.734  0.00  0.00    +0.000 N 
ENDROOT
BRANCH   1   8
ATOM      6  C   UNL     1       8.313   8.671  18.150  0.00  0.00    +0.000 A 
ATOM      7  N   UNL     1       7.636   8.229  17.101  0.00  0.00    +0.000 NA
ATOM      8  C   UNL     1       7.475   6.888  17.362  0.00  0.00    +0.000 A 
ATOM      9  C   UNL     1       8.083   6.565  18.550  0.00  0.00    +0.000 A 
ATOM     10  O   UNL     1       8.626   7.699  19.068  0.00  0.00    +0.000 OA
BRANCH   6  14
ATOM     11  C   UNL     1       9.627  12.620  19.133  0.00  0.00    +0.000 A 
ATOM     12  C   UNL     1       9.910  11.551  19.979  0.00  0.00    +0.000 A 
ATOM     13  C   UNL     1       9.473  10.264  19.652  0.00  0.00    +0.000 A 
ATOM     14  C   UNL     1       8.746  10.029  18.475  0.00  0.00    +0.000 A 
ATOM     15  C   UNL     1       8.469  11.119  17.634  0.00  0.00    +0.000 A 
ATOM     16  C   UNL     1       8.906  12.405  17.960  0.00  0.00    +0.000 A 
ENDBRANCH   6  14
ENDBRANCH   1   8
BRANCH   5  17
ATOM     17  C   UNL     1       4.508   5.781  17.771  0.00  0.00    +0.000 C 
BRANCH  17  18
ATOM     18  C   UNL     1       4.822   5.183  19.144  0.00  0.00    +0.000 C 
BRANCH  18  19
ATOM     19  C   UNL     1       4.398   3.720  19.283  0.00  0.00    +0.000 C 
BRANCH  19  20
ATOM     20  N   UNL     1       3.019   3.602  19.728  0.00  0.00    +0.000 N 
ATOM     21  C   UNL     1       2.281   4.566  20.354  0.00  0.00    +0.000 A 
ATOM     22  C   UNL     1       1.043   4.011  20.575  0.00  0.00    +0.000 A 
ATOM     23  C   UNL     1       1.135   2.712  20.044  0.00  0.00    +0.000 A 
ATOM     24  N   UNL     1       2.342   2.455  19.532  0.00  0.00    +0.000 NA
ENDBRANCH  19  20
ENDBRANCH  18  19
ENDBRANCH  17  18
ENDBRANCH   5  17
TORSDOF 6
ENDMDL
MODEL 2
REMARK VINA RESULT:      -8.0      1.135      1.396
REMARK  Name = 
REMARK  6 active torsions:
REMARK  status: ('A' for Active; 'I' for Inactive)
REMARK    1  A    between atoms: C_4  and  C_5
REMARK    2  A    between atoms: C_7  and  C_8
REMARK    3  A    between atoms: N_12  and  C_13
REMARK    4  A    between atoms: C_13  and  C_14
REMARK    5  A    between atoms: C_14  and  C_15
REMARK    6  A    between atoms: C_15  and  N_16
REMARK                            x       y       z     vdW  Elec       q    Type
REMARK                         _______ _______ _______ _____ _____    ______ ____
ROOT
ATOM      1  C   UNL     1       6.670   5.746  16.572  0.00  0.00    +0.000 A 
ATOM      2  N   UNL     1       7.291   4.804  15.883  0.00  0.00    +0.000 NA
ATOM      3  C   UNL     1       6.313   4.019  15.339  0.00  0.00    +0.000 A 
ATOM      4  C   UNL     1       5.071   4.489  15.685  0.00  0.00    +0.000 A 
ATOM      5  N   UNL     1       5.306   5.616  16.436  0.00  0.00    +0.000 N 
ENDROOT
BRANCH   1   8
ATOM      6  C   UNL     1       8.250   8.564  18.103  0.00  0.00    +0.000 A 
ATOM      7  N   UNL     1       7.579   8.085  17.067  0.00  0.00    +0.000 NA
ATOM      8  C   UNL     1       7.414   6.754  17.375  0.00  0.00    +0.000 A 
ATOM      9  C   UNL     1       8.015   6.474  18.577  0.00  0.00    +0.000 A 
ATOM     10  O   UNL     1       8.556   7.625  19.058  0.00  0.00    +0.000 OA
BRANCH   6  14
ATOM     11  C   UNL     1       9.566  12.544  18.948  0.00  0.00    +0.000 A 
ATOM     12  C   UNL     1       9.921  11.490  19.786  0.00  0.00    +0.000 A 
ATOM     13  C   UNL     1       9.483  10.193  19.505  0.00  0.00    +0.000 A 
ATOM     14  C   UNL     1       8.683   9.932  18.382  0.00  0.00    +0.000 A 
ATOM     15  C   UNL     1       8.334  11.007  17.548  0.00  0.00    +0.000 A 
ATOM     16  C   UNL     1       8.772  12.303  17.829  0.00  0.00    +0.000 A 
ENDBRANCH   6  14
ENDBRANCH   1   8
BRANCH   5  17
ATOM     17  C   UNL     1       4.260   6.454  16.986  0.00  0.00    +0.000 C 
BRANCH  17  18
ATOM     18  C   UNL     1       3.931   6.169  18.453  0.00  0.00    +0.000 C 
BRANCH  18  19
ATOM     19  C   UNL     1       2.626   5.394  18.645  0.00  0.00    +0.000 C 
BRANCH  19  20
ATOM     20  N   UNL     1       2.808   3.971  18.414  0.00  0.00    +0.000 N 
ATOM     21  C   UNL     1       3.729   3.160  19.016  0.00  0.00    +0.000 A 
ATOM     22  C   UNL     1       3.524   1.904  18.495  0.00  0.00    +0.000 A 
ATOM     23  C   UNL     1       2.458   2.063  17.592  0.00  0.00    +0.000 A 
ATOM     24  N   UNL     1       2.022   3.324  17.534  0.00  0.00    +0.000 NA
ENDBRANCH  19  20
ENDBRANCH  18  19
ENDBRANCH  17  18
ENDBRANCH   5  17
TORSDOF 6
ENDMDL
MODEL 3
REMARK VINA RESULT:      -7.9      0.807      1.430
REMARK  Name = 
REMARK  6 active torsions:
REMARK  status: ('A' for Active; 'I' for Inactive)
REMARK    1  A    between atoms: C_4  and  C_5
REMARK    2  A    between atoms: C_7  and  C_8
REMARK    3  A    between atoms: N_12  and  C_13
REMARK    4  A    between atoms: C_13  and  C_14
REMARK    5  A    between atoms: C_14  and  C_15
REMARK    6  A    between atoms: C_15  and  N_16
REMARK                            x       y       z     vdW  Elec       q    Type
REMARK                         _______ _______ _______ _____ _____    ______ ____
ROOT
ATOM      1  C   UNL     1       6.654   5.729  16.698  0.00  0.00    +0.000 A 
ATOM      2  N   UNL     1       7.252   4.761  16.025  0.00  0.00    +0.000 NA
ATOM      3  C   UNL     1       6.255   3.984  15.505  0.00  0.00    +0.000 A 
ATOM      4  C   UNL     1       5.025   4.485  15.848  0.00  0.00    +0.000 A 
ATOM      5  N   UNL     1       5.287   5.622  16.574  0.00  0.00    +0.000 N 
ENDROOT
BRANCH   1   8
ATOM      6  C   UNL     1       8.279   8.551  18.172  0.00  0.00    +0.000 A 
ATOM      7  N   UNL     1       7.574   8.070  17.160  0.00  0.00    +0.000 NA
ATOM      8  C   UNL     1       7.423   6.739  17.475  0.00  0.00    +0.000 A 
ATOM      9  C   UNL     1       8.065   6.461  18.656  0.00  0.00    +0.000 A 
ATOM     10  O   UNL     1       8.619   7.613  19.117  0.00  0.00    +0.000 OA
BRANCH   6  14
ATOM     11  C   UNL     1       9.517  12.578  18.908  0.00  0.00    +0.000 A 
ATOM     12  C   UNL     1       8.745  12.270  17.791  0.00  0.00    +0.000 A 
ATOM     13  C   UNL     1       8.349  10.950  17.555  0.00  0.00    +0.000 A 
ATOM     14  C   UNL     1       8.719   9.920  18.435  0.00  0.00    +0.000 A 
ATOM     15  C   UNL     1       9.498  10.250  19.556  0.00  0.00    +0.000 A 
ATOM     16  C   UNL     1       9.894  11.568  19.791  0.00  0.00    +0.000 A 
ENDBRANCH   6  14
ENDBRANCH   1   8
BRANCH   5  17
ATOM     17  C   UNL     1       4.261   6.492  17.113  0.00  0.00    +0.000 C 
BRANCH  17  18
ATOM     18  C   UNL     1       3.227   5.779  17.987  0.00  0.00    +0.000 C 
BRANCH  18  19
ATOM     19  C   UNL     1       3.794   5.278  19.316  0.00  0.00    +0.000 C 
BRANCH  19  20
ATOM     20  N   UNL     1       2.931   4.281  19.925  0.00  0.00    +0.000 N 
ATOM     21  C   UNL     1       2.649   3.038  19.432  0.00  0.00    +0.000 A 
ATOM     22  C   UNL     1       1.802   2.453  20.343  0.00  0.00    +0.000 A 
ATOM     23  C   UNL     1       1.636   3.421  21.349  0.00  0.00    +0.000 A 
ATOM     24  N   UNL     1       2.318   4.542  21.095  0.00  0.00    +0.000 NA
ENDBRANCH  19  20
ENDBRANCH  18  19
ENDBRANCH  17  18
ENDBRANCH   5  17
TORSDOF 6
ENDMDL
MODEL 4
REMARK VINA RESULT:      -7.8      0.907      1.522
REMARK  Name = 
REMARK  6 active torsions:
REMARK  status: ('A' for Active; 'I' for Inactive)
REMARK    1  A    between atoms: C_4  and  C_5
REMARK    2  A    between atoms: C_7  and  C_8
REMARK    3  A    between atoms: N_12  and  C_13
REMARK    4  A    between atoms: C_13  and  C_14
REMARK    5  A    between atoms: C_14  and  C_15
REMARK    6  A    between atoms: C_15  and  N_16
REMARK                            x       y       z     vdW  Elec       q    Type
REMARK                         _______ _______ _______ _____ _____    ______ ____
ROOT
ATOM      1  C   UNL     1       6.352   5.796  16.636  0.00  0.00    +0.000 A 
ATOM      2  N   UNL     1       6.407   5.696  15.319  0.00  0.00    +0.000 NA
ATOM      3  C   UNL     1       5.559   4.681  14.975  0.00  0.00    +0.000 A 
ATOM      4  C   UNL     1       4.960   4.156  16.092  0.00  0.00    +0.000 A 
ATOM      5  N   UNL     1       5.438   4.900  17.144  0.00  0.00    +0.000 N 
ENDROOT
BRANCH   1   8
ATOM      6  C   UNL     1       8.159   8.512  18.098  0.00  0.00    +0.000 A 
ATOM      7  N   UNL     1       7.359   8.095  17.128  0.00  0.00    +0.000 NA
ATOM      8  C   UNL     1       7.206   6.753  17.390  0.00  0.00    +0.000 A 
ATOM      9  C   UNL     1       7.941   6.405  18.496  0.00  0.00    +0.000 A 
ATOM     10  O   UNL     1       8.559   7.523  18.962  0.00  0.00    +0.000 OA
BRANCH   6  14
ATOM     11  C   UNL     1       9.544  12.475  18.912  0.00  0.00    +0.000 A 
ATOM     12  C   UNL     1       8.752  12.220  17.796  0.00  0.00    +0.000 A 
ATOM     13  C   UNL     1       8.307  10.921  17.535  0.00  0.00    +0.000 A 
ATOM     14  C   UNL     1       8.649   9.859  18.387  0.00  0.00    +0.000 A 
ATOM     15  C   UNL     1       9.449  10.135  19.507  0.00  0.00    +0.000 A 
ATOM     16  C   UNL     1       9.894  11.433  19.768  0.00  0.00    +0.000 A 
ENDBRANCH   6  14
ENDBRANCH   1   8
BRANCH   5  17
ATOM     17  C   UNL     1       5.037   4.703  18.522  0.00  0.00    +0.000 C 
BRANCH  17  18
ATOM     18  C   UNL     1       4.059   5.754  19.049  0.00  0.00    +0.000 C 
BRANCH  18  19
ATOM     19  C   UNL     1       2.671   5.670  18.411  0.00  0.00    +0.000 C 
BRANCH  19  20
ATOM     20  N   UNL     1       1.918   4.533  18.915  0.00  0.00    +0.000 N 
ATOM     21  C   UNL     1       1.437   3.486  18.182  0.00  0.00    +0.000 A 
ATOM     22  C   UNL     1       0.803   2.656  19.076  0.00  0.00    +0.000 A 
ATOM     23  C   UNL     1       0.959   3.291  20.322  0.00  0.00    +0.000 A 
ATOM     24  N   UNL     1       1.633   4.441  20.227  0.00  0.00    +0.000 NA
ENDBRANCH  19  20
ENDBRANCH  18  19
ENDBRANCH  17  18
ENDBRANCH   5  17
TORSDOF 6
ENDMDL
MODEL 5
REMARK VINA RESULT:      -7.5      0.704      1.032
REMARK  Name = 
REMARK  6 active torsions:
REMARK  status: ('A' for Active; 'I' for Inactive)
REMARK    1  A    between atoms: C_4  and  C_5
REMARK    2  A    between atoms: C_7  and  C_8
REMARK    3  A    between atoms: N_12  and  C_13
REMARK    4  A    between atoms: C_13  and  C_14
REMARK    5  A    between atoms: C_14  and  C_15
REMARK    6  A    between atoms: C_15  and  N_16
REMARK                            x       y       z     vdW  Elec       q    Type
REMARK                         _______ _______ _______ _____ _____    ______ ____
ROOT
ATOM      1  C   UNL     1       6.409   5.834  16.558  0.00  0.00    +0.000 A 
ATOM      2  N   UNL     1       6.453   5.787  15.238  0.00  0.00    +0.000 NA
ATOM      3  C   UNL     1       5.632   4.760  14.863  0.00  0.00    +0.000 A 
ATOM      4  C   UNL     1       5.063   4.173  15.965  0.00  0.00    +0.000 A 
ATOM      5  N   UNL     1       5.529   4.891  17.040  0.00  0.00    +0.000 N 
ENDROOT
BRANCH   1   8
ATOM      6  C   UNL     1       8.171   8.544  18.084  0.00  0.00    +0.000 A 
ATOM      7  N   UNL     1       7.397   8.132  17.092  0.00  0.00    +0.000 NA
ATOM      8  C   UNL     1       7.242   6.788  17.341  0.00  0.00    +0.000 A 
ATOM      9  C   UNL     1       7.949   6.434  18.462  0.00  0.00    +0.000 A 
ATOM     10  O   UNL     1       8.551   7.549  18.952  0.00  0.00    +0.000 OA
BRANCH   6  14
ATOM     11  C   UNL     1       9.622  12.456  19.024  0.00  0.00    +0.000 A 
ATOM     12  C   UNL     1       9.925  11.374  19.847  0.00  0.00    +0.000 A 
ATOM     13  C   UNL     1       9.443  10.100  19.535  0.00  0.00    +0.000 A 
ATOM     14  C   UNL     1       8.651   9.890  18.395  0.00  0.00    +0.000 A 
ATOM     15  C   UNL     1       8.355  10.992  17.577  0.00  0.00    +0.000 A 
ATOM     16  C   UNL     1       8.836  12.266  17.889  0.00  0.00    +0.000 A 
ENDBRANCH   6  14
ENDBRANCH   1   8
BRANCH   5  17
ATOM     17  C   UNL     1       5.150   4.628  18.413  0.00  0.00    +0.000 C 
BRANCH  17  18
ATOM     18  C   UNL     1       4.873   3.155  18.719  0.00  0.00    +0.000 C 
BRANCH  18  19
ATOM     19  C   UNL     1       4.165   2.931  20.056  0.00  0.00    +0.000 C 
BRANCH  19  20
ATOM     20  N   UNL     1       2.721   3.026  19.919  0.00  0.00    +0.000 N 
ATOM     21  C   UNL     1       1.943   2.359  19.015  0.00  0.00    +0.000 A 
ATOM     22  C   UNL     1       0.650   2.753  19.264  0.00  0.00    +0.000 A 
ATOM     23  C   UNL     1       0.754   3.657  20.337  0.00  0.00    +0.000 A 
ATOM     24  N   UNL     1       2.017   3.832  20.736  0.00  0.00    +0.000 NA
ENDBRANCH  19  20
ENDBRANCH  18  19
ENDBRANCH  17  18
ENDBRANCH   5  17
TORSDOF 6
ENDMDL
MODEL 6
REMARK VINA RESULT:      -7.4      3.674      6.868
REMARK  Name = 
REMARK  6 active torsions:
REMARK  status: ('A' for Active; 'I' for Inactive)
REMARK    1  A    between atoms: C_4  and  C_5
REMARK    2  A    between atoms: C_7  and  C_8
REMARK    3  A    between atoms: N_12  and  C_13
REMARK    4  A    between atoms: C_13  and  C_14
REMARK    5  A    between atoms: C_14  and  C_15
REMARK    6  A    between atoms: C_15  and  N_16
REMARK                            x       y       z     vdW  Elec       q    Type
REMARK                         _______ _______ _______ _____ _____    ______ ____
ROOT
ATOM      1  C   UNL     1       3.112   4.938  19.160  0.00  0.00    +0.000 A 
ATOM      2  N   UNL     1       2.359   3.872  18.947  0.00  0.00    +0.000 NA
ATOM      3  C   UNL     1       3.219   2.826  18.764  0.00  0.00    +0.000 A 
ATOM      4  C   UNL     1       4.520   3.247  18.878  0.00  0.00    +0.000 A 
ATOM      5  N   UNL     1       4.443   4.587  19.173  0.00  0.00    +0.000 N 
ENDROOT
BRANCH   1   8
ATOM      6  C   UNL     1       1.561   8.014  20.117  0.00  0.00    +0.000 A 
ATOM      7  N   UNL     1       1.803   6.745  20.410  0.00  0.00    +0.000 NA
ATOM      8  C   UNL     1       2.525   6.296  19.329  0.00  0.00    +0.000 A 
ATOM      9  C   UNL     1       2.672   7.305  18.411  0.00  0.00    +0.000 A 
ATOM     10  O   UNL     1       2.058   8.415  18.901  0.00  0.00    +0.000 OA
BRANCH   6  14
ATOM     11  C   UNL     1      -0.443  10.975  22.464  0.00  0.00    +0.000 A 
ATOM     12  C   UNL     1      -0.308   9.672  22.937  0.00  0.00    +0.000 A 
ATOM     13  C   UNL     1       0.345   8.709  22.161  0.00  0.00    +0.000 A 
ATOM     14  C   UNL     1       0.871   9.037  20.901  0.00  0.00    +0.000 A 
ATOM     15  C   UNL     1       0.725  10.355  20.441  0.00  0.00    +0.000 A 
ATOM     16  C   UNL     1       0.073  11.317  21.215  0.00  0.00    +0.000 A 
ENDBRANCH   6  14
ENDBRANCH   1   8
BRANCH   5  17
ATOM     17  C   UNL     1       5.597   5.430  19.411  0.00  0.00    +0.000 C 
BRANCH  17  18
ATOM     18  C   UNL     1       6.712   5.278  18.374  0.00  0.00    +0.000 C 
BRANCH  18  19
ATOM     19  C   UNL     1       6.553   6.204  17.167  0.00  0.00    +0.000 C 
BRANCH  19  20
ATOM     20  N   UNL     1       6.435   5.454  15.928  0.00  0.00    +0.000 N 
ATOM     21  C   UNL     1       5.375   4.683  15.540  0.00  0.00    +0.000 A 
ATOM     22  C   UNL     1       5.705   4.180  14.305  0.00  0.00    +0.000 A 
ATOM     23  C   UNL     1       6.981   4.706  14.035  0.00  0.00    +0.000 A 
ATOM     24  N   UNL     1       7.433   5.480  15.026  0.00  0.00    +0.000 NA
ENDBRANCH  19  20
ENDBRANCH  18  19
ENDBRANCH  17  18
ENDBRANCH   5  17
TORSDOF 6
ENDMDL
MODEL 7
REMARK VINA RESULT:      -7.4      1.295      1.959
REMARK  Name = 
REMARK  6 active torsions:
REMARK  status: ('A' for Active; 'I' for Inactive)
REMARK    1  A    between atoms: C_4  and  C_5
REMARK    2  A    between atoms: C_7  and  C_8
REMARK    3  A    between atoms: N_12  and  C_13
REMARK    4  A    between atoms: C_13  and  C_14
REMARK    5  A    between atoms: C_14  and  C_15
REMARK    6  A    between atoms: C_15  and  N_16
REMARK                            x       y       z     vdW  Elec       q    Type
REMARK                         _______ _______ _______ _____ _____    ______ ____
ROOT
ATOM      1  C   UNL     1       6.833   5.595  16.419  0.00  0.00    +0.000 A 
ATOM      2  N   UNL     1       7.186   5.417  15.157  0.00  0.00    +0.000 NA
ATOM      3  C   UNL     1       6.445   4.365  14.697  0.00  0.00    +0.000 A 
ATOM      4  C   UNL     1       5.613   3.895  15.681  0.00  0.00    +0.000 A 
ATOM      5  N   UNL     1       5.835   4.712  16.764  0.00  0.00    +0.000 N 
ENDROOT
BRANCH   1   8
ATOM      6  C   UNL     1       8.237   8.434  18.076  0.00  0.00    +0.000 A 
ATOM      7  N   UNL     1       7.676   7.943  16.981  0.00  0.00    +0.000 NA
ATOM      8  C   UNL     1       7.487   6.615  17.283  0.00  0.00    +0.000 A 
ATOM      9  C   UNL     1       7.965   6.348  18.542  0.00  0.00    +0.000 A 
ATOM     10  O   UNL     1       8.449   7.506  19.065  0.00  0.00    +0.000 OA
BRANCH   6  14
ATOM     11  C   UNL     1       9.349  12.472  18.945  0.00  0.00    +0.000 A 
ATOM     12  C   UNL     1       8.616  12.172  17.799  0.00  0.00    +0.000 A 
ATOM     13  C   UNL     1       8.261  10.849  17.520  0.00  0.00    +0.000 A 
ATOM     14  C   UNL     1       8.634   9.808  18.384  0.00  0.00    +0.000 A 
ATOM     15  C   UNL     1       9.372  10.128  19.534  0.00  0.00    +0.000 A 
ATOM     16  C   UNL     1       9.727  11.450  19.813  0.00  0.00    +0.000 A 
ENDBRANCH   6  14
ENDBRANCH   1   8
BRANCH   5  17
ATOM     17  C   UNL     1       5.134   4.590  18.026  0.00  0.00    +0.000 C 
BRANCH  17  18
ATOM     18  C   UNL     1       3.876   3.720  17.966  0.00  0.00    +0.000 C 
BRANCH  18  19
ATOM     19  C   UNL     1       2.596   4.516  17.705  0.00  0.00    +0.000 C 
BRANCH  19  20
ATOM     20  N   UNL     1       2.327   5.463  18.774  0.00  0.00    +0.000 N 
ATOM     21  C   UNL     1       1.923   5.163  20.045  0.00  0.00    +0.000 A 
ATOM     22  C   UNL     1       1.804   6.367  20.698  0.00  0.00    +0.000 A 
ATOM     23  C   UNL     1       2.159   7.330  19.737  0.00  0.00    +0.000 A 
ATOM     24  N   UNL     1       2.473   6.784  18.559  0.00  0.00    +0.000 NA
ENDBRANCH  19  20
ENDBRANCH  18  19
ENDBRANCH  17  18
ENDBRANCH   5  17
TORSDOF 6
ENDMDL
MODEL 8
REMARK VINA RESULT:      -7.3      4.317      6.423
REMARK  Name = 
REMARK  6 active torsions:
REMARK  status: ('A' for Active; 'I' for Inactive)
REMARK    1  A    between atoms: C_4  and  C_5
REMARK    2  A    between atoms: C_7  and  C_8
REMARK    3  A    between atoms: N_12  and  C_13
REMARK    4  A    between atoms: C_13  and  C_14
REMARK    5  A    between atoms: C_14  and  C_15
REMARK    6  A    between atoms: C_15  and  N_16
REMARK                            x       y       z     vdW  Elec       q    Type
REMARK                         _______ _______ _______ _____ _____    ______ ____
ROOT
ATOM      1  C   UNL     1       3.910   4.006  18.755  0.00  0.00    +0.000 A 
ATOM      2  N   UNL     1       3.991   3.097  19.712  0.00  0.00    +0.000 NA
ATOM      3  C   UNL     1       2.918   3.308  20.533  0.00  0.00    +0.000 A 
ATOM      4  C   UNL     1       2.157   4.352  20.070  0.00  0.00    +0.000 A 
ATOM      5  N   UNL     1       2.772   4.764  18.913  0.00  0.00    +0.000 N 
ENDROOT
BRANCH   1   8
ATOM      6  C   UNL     1       5.974   4.250  15.847  0.00  0.00    +0.000 A 
ATOM      7  N   UNL     1       4.783   3.966  16.352  0.00  0.00    +0.000 NA
ATOM      8  C   UNL     1       4.957   4.139  17.706  0.00  0.00    +0.000 A 
ATOM      9  C   UNL     1       6.255   4.499  17.969  0.00  0.00    +0.000 A 
ATOM     10  O   UNL     1       6.921   4.574  16.787  0.00  0.00    +0.000 OA
BRANCH   6  14
ATOM     11  C   UNL     1       7.303   4.387  11.784  0.00  0.00    +0.000 A 
ATOM     12  C   UNL     1       7.865   5.231  12.740  0.00  0.00    +0.000 A 
ATOM     13  C   UNL     1       7.421   5.182  14.064  0.00  0.00    +0.000 A 
ATOM     14  C   UNL     1       6.410   4.289  14.452  0.00  0.00    +0.000 A 
ATOM     15  C   UNL     1       5.855   3.447  13.475  0.00  0.00    +0.000 A 
ATOM     16  C   UNL     1       6.298   3.495  12.151  0.00  0.00    +0.000 A 
ENDBRANCH   6  14
ENDBRANCH   1   8
BRANCH   5  17
ATOM     17  C   UNL     1       2.277   5.836  18.072  0.00  0.00    +0.000 C 
BRANCH  17  18
ATOM     18  C   UNL     1       3.000   7.170  18.263  0.00  0.00    +0.000 C 
BRANCH  18  19
ATOM     19  C   UNL     1       2.076   8.385  18.161  0.00  0.00    +0.000 C 
BRANCH  19  20
ATOM     20  N   UNL     1       1.510   8.737  19.453  0.00  0.00    +0.000 N 
ATOM     21  C   UNL     1       1.610   8.017  20.609  0.00  0.00    +0.000 A 
ATOM     22  C   UNL     1       0.932   8.737  21.564  0.00  0.00    +0.000 A 
ATOM     23  C   UNL     1       0.461   9.875  20.884  0.00  0.00    +0.000 A 
ATOM     24  N   UNL     1       0.806   9.876  19.593  0.00  0.00    +0.000 NA
ENDBRANCH  19  20
ENDBRANCH  18  19
ENDBRANCH  17  18
ENDBRANCH   5  17
TORSDOF 6
ENDMDL
MODEL 9
REMARK VINA RESULT:      -7.3      4.252      5.238
REMARK  Name = 
REMARK  6 active torsions:
REMARK  status: ('A' for Active; 'I' for Inactive)
REMARK    1  A    between atoms: C_4  and  C_5
REMARK    2  A    between atoms: C_7  and  C_8
REMARK    3  A    between atoms: N_12  and  C_13
REMARK    4  A    between atoms: C_13  and  C_14
REMARK    5  A    between atoms: C_14  and  C_15
REMARK    6  A    between atoms: C_15  and  N_16
REMARK                            x       y       z     vdW  Elec       q    Type
REMARK                         _______ _______ _______ _____ _____    ______ ____
ROOT
ATOM      1  C   UNL     1       4.869   5.584  16.817  0.00  0.00    +0.000 A 
ATOM      2  N   UNL     1       5.904   6.194  16.265  0.00  0.00    +0.000 NA
ATOM      3  C   UNL     1       6.514   5.268  15.466  0.00  0.00    +0.000 A 
ATOM      4  C   UNL     1       5.840   4.074  15.513  0.00  0.00    +0.000 A 
ATOM      5  N   UNL     1       4.767   4.295  16.343  0.00  0.00    +0.000 N 
ENDROOT
BRANCH   1   8
ATOM      6  C   UNL     1       2.597   7.540  18.763  0.00  0.00    +0.000 A 
ATOM      7  N   UNL     1       3.215   7.368  17.605  0.00  0.00    +0.000 NA
ATOM      8  C   UNL     1       3.999   6.258  17.819  0.00  0.00    +0.000 A 
ATOM      9  C   UNL     1       3.843   5.816  19.109  0.00  0.00    +0.000 A 
ATOM     10  O   UNL     1       2.946   6.628  19.729  0.00  0.00    +0.000 OA
BRANCH   6  14
ATOM     11  C   UNL     1      -0.354  10.448  19.825  0.00  0.00    +0.000 A 
ATOM     12  C   UNL     1       0.143  10.389  18.526  0.00  0.00    +0.000 A 
ATOM     13  C   UNL     1       1.111   9.438  18.189  0.00  0.00    +0.000 A 
ATOM     14  C   UNL     1       1.595   8.534  19.147  0.00  0.00    +0.000 A 
ATOM     15  C   UNL     1       1.082   8.608  20.452  0.00  0.00    +0.000 A 
ATOM     16  C   UNL     1       0.115   9.558  20.789  0.00  0.00    +0.000 A 
ENDBRANCH   6  14
ENDBRANCH   1   8
BRANCH   5  17
ATOM     17  C   UNL     1       3.763   3.296  16.651  0.00  0.00    +0.000 C 
BRANCH  17  18
ATOM     18  C   UNL     1       4.096   2.422  17.861  0.00  0.00    +0.000 C 
BRANCH  18  19
ATOM     19  C   UNL     1       2.870   1.757  18.489  0.00  0.00    +0.000 C 
BRANCH  19  20
ATOM     20  N   UNL     1       2.335   2.547  19.586  0.00  0.00    +0.000 N 
ATOM     21  C   UNL     1       1.180   3.277  19.575  0.00  0.00    +0.000 A 
ATOM     22  C   UNL     1       1.078   3.843  20.824  0.00  0.00    +0.000 A 
ATOM     23  C   UNL     1       2.218   3.392  21.513  0.00  0.00    +0.000 A 
ATOM     24  N   UNL     1       2.992   2.606  20.759  0.00  0.00    +0.000 NA
ENDBRANCH  19  20
ENDBRANCH  18  19
ENDBRANCH  17  18
ENDBRANCH   5  17
TORSDOF 6
ENDMDL
