MODEL 1
REMARK VINA RESULT:      -7.1      0.000      0.000
REMARK  Name = 
REMARK  11 active torsions:
REMARK  status: ('A' for Active; 'I' for Inactive)
REMARK    1  A    between atoms: C_1  and  O_2
REMARK    2  A    between atoms: O_2  and  N_3
REMARK    3  A    between atoms: C_4  and  C_6
REMARK    4  A    between atoms: C_11  and  C_12
REMARK    5  A    between atoms: C_13  and  N_14
REMARK    6  A    between atoms: C_15  and  C_17
REMARK    7  A    between atoms: C_19  and  C_20
REMARK    8  A    between atoms: C_20  and  O_21
REMARK    9  A    between atoms: O_21  and  C_22
REMARK   10  A    between atoms: C_22  and  C_23
REMARK   11  A    between atoms: N_26  and  C_27
REMARK                            x       y       z     vdW  Elec       q    Type
REMARK                         _______ _______ _______ _____ _____    ______ ____
ROOT
ATOM      1  N   UNL     1       2.450   8.476  19.434  0.00  0.00    +0.000 N 
ATOM      2  C   UNL     1       2.296   7.655  18.322  0.00  0.00    +0.000 C 
ATOM      3  O   UNL     1       1.248   7.616  17.679  0.00  0.00    +0.000 OA
ATOM      4  H   UNL     1       3.403   8.718  19.671  0.00  0.00    +0.000 HD
ENDROOT
BRANCH   1  12
ATOM      5  C   UNL     1       1.245  10.669  19.534  0.00  0.00    +0.000 A 
ATOM      6  C   UNL     1       0.185  11.430  20.071  0.00  0.00    +0.000 A 
ATOM      7  C   UNL     1      -0.678  10.878  21.003  0.00  0.00    +0.000 A 
ATOM      8 CL   UNL     1      -1.938  11.838  21.674  0.00  0.00    +0.000 Cl
ATOM      9  C   UNL     1      -0.524   9.555  21.399  0.00  0.00    +0.000 A 
ATOM     10  C   UNL     1       0.504   8.759  20.860  0.00  0.00    +0.000 A 
ATOM     11  C   UNL     1       0.659   7.360  21.399  0.00  0.00    +0.000 C 
ATOM     12  C   UNL     1       1.408   9.314  19.920  0.00  0.00    +0.000 A 
BRANCH   5  14
ATOM     13  N   UNL     1       2.351  12.663  18.744  0.00  0.00    +0.000 N 
ATOM     14  C   UNL     1       2.043  11.343  18.461  0.00  0.00    +0.000 C 
ATOM     15  O   UNL     1       2.297  10.761  17.413  0.00  0.00    +0.000 OA
ATOM     16  H   UNL     1       2.505  12.930  19.710  0.00  0.00    +0.000 HD
BRANCH  13  18
ATOM     17  C   UNL     1       3.018  14.742  18.018  0.00  0.00    +0.000 C 
ATOM     18  O   UNL     1       3.169  13.338  17.812  0.00  0.00    +0.000 OA
ENDBRANCH  13  18
ENDBRANCH   5  14
ENDBRANCH   1  12
BRANCH   2  19
ATOM     19  C   UNL     1       3.468   6.875  17.971  0.00  0.00    +0.000 A 
ATOM     20  C   UNL     1       4.586   7.224  17.221  0.00  0.00    +0.000 A 
ATOM     21  C   UNL     1       5.532   6.197  17.439  0.00  0.00    +0.000 A 
ATOM     22  N   UNL     1       5.009   5.210  18.165  0.00  0.00    +0.000 NA
ATOM     23  N   UNL     1       3.766   5.635  18.522  0.00  0.00    +0.000 N 
BRANCH  23  24
ATOM     24  C   UNL     1       2.912   4.753  19.250  0.00  0.00    +0.000 A 
ATOM     25  N   UNL     1       2.879   4.893  20.612  0.00  0.00    +0.000 NA
ATOM     26  C   UNL     1       2.011   4.110  21.290  0.00  0.00    +0.000 A 
ATOM     27  C   UNL     1       1.156   3.203  20.688  0.00  0.00    +0.000 A 
ATOM     28  C   UNL     1       1.206   3.068  19.305  0.00  0.00    +0.000 A 
ATOM     29  C   UNL     1       2.097   3.845  18.563  0.00  0.00    +0.000 A 
ATOM     30 CL   UNL     1       2.201   3.489  16.872  0.00  0.00    +0.000 Cl
ENDBRANCH  23  24
BRANCH  21  31
ATOM     31  C   UNL     1       6.972   6.119  17.030  0.00  0.00    +0.000 C 
BRANCH  31  32
ATOM     32  O   UNL     1       7.292   4.868  16.392  0.00  0.00    +0.000 OA
BRANCH  32  33
ATOM     33  C   UNL     1       7.124   4.850  15.047  0.00  0.00    +0.000 C 
ATOM     34  C   UNL     1       6.027   3.907  14.656  0.00  0.00    +0.000 C 
ATOM     35  O   UNL     1       7.763   5.518  14.245  0.00  0.00    +0.000 OA
ENDBRANCH  32  33
ENDBRANCH  31  32
ENDBRANCH  21  31
ENDBRANCH   2  19
TORSDOF 8
ENDMDL
MODEL 2
REMARK VINA RESULT:      -7.0      2.004      2.429
REMARK  Name = 
REMARK  11 active torsions:
REMARK  status: ('A' for Active; 'I' for Inactive)
REMARK    1  A    between atoms: C_1  and  O_2
REMARK    2  A    between atoms: O_2  and  N_3
REMARK    3  A    between atoms: C_4  and  C_6
REMARK    4  A    between atoms: C_11  and  C_12
REMARK    5  A    between atoms: C_13  and  N_14
REMARK    6  A    between atoms: C_15  and  C_17
REMARK    7  A    between atoms: C_19  and  C_20
REMARK    8  A    between atoms: C_20  and  O_21
REMARK    9  A    between atoms: O_21  and  C_22
REMARK   10  A    between atoms: C_22  and  C_23
REMARK   11  A    between atoms: N_26  and  C_27
REMARK                            x       y       z     vdW  Elec       q    Type
REMARK                         _______ _______ _______ _____ _____    ______ ____
ROOT
ATOM      1  N   UNL     1       1.462   9.077  19.654  0.00  0.00    +0.000 N 
ATOM      2  C   UNL     1       1.600   7.698  19.760  0.00  0.00    +0.000 C 
ATOM      3  O   UNL     1       0.900   7.027  20.517  0.00  0.00    +0.000 OA
ATOM      4  H   UNL     1       1.794   9.486  18.791  0.00  0.00    +0.000 HD
ENDROOT
BRANCH   1  12
ATOM      5  C   UNL     1      -0.561  10.541  19.856  0.00  0.00    +0.000 A 
ATOM      6  C   UNL     1      -1.446  11.251  20.693  0.00  0.00    +0.000 A 
ATOM      7  C   UNL     1      -1.251  11.279  22.065  0.00  0.00    +0.000 A 
ATOM      8 CL   UNL     1      -2.321  12.185  23.060  0.00  0.00    +0.000 Cl
ATOM      9  C   UNL     1      -0.193  10.582  22.633  0.00  0.00    +0.000 A 
ATOM     10  C   UNL     1       0.692   9.838  21.829  0.00  0.00    +0.000 A 
ATOM     11  C   UNL     1       1.864   9.176  22.507  0.00  0.00    +0.000 C 
ATOM     12  C   UNL     1       0.518   9.815  20.423  0.00  0.00    +0.000 A 
BRANCH   5  14
ATOM     13  N   UNL     1      -1.953  11.378  18.072  0.00  0.00    +0.000 N 
ATOM     14  C   UNL     1      -0.936  10.501  18.407  0.00  0.00    +0.000 C 
ATOM     15  O   UNL     1      -0.422   9.685  17.651  0.00  0.00    +0.000 OA
ATOM     16  H   UNL     1      -2.019  12.259  18.571  0.00  0.00    +0.000 HD
BRANCH  13  18
ATOM     17  C   UNL     1      -3.634  10.953  16.559  0.00  0.00    +0.000 C 
ATOM     18  O   UNL     1      -2.306  11.451  16.706  0.00  0.00    +0.000 OA
ENDBRANCH  13  18
ENDBRANCH   5  14
ENDBRANCH   1  12
BRANCH   2  19
ATOM     19  C   UNL     1       2.610   7.116  18.895  0.00  0.00    +0.000 A 
ATOM     20  C   UNL     1       3.448   7.718  17.963  0.00  0.00    +0.000 A 
ATOM     21  C   UNL     1       4.415   6.744  17.629  0.00  0.00    +0.000 A 
ATOM     22  N   UNL     1       4.137   5.575  18.203  0.00  0.00    +0.000 NA
ATOM     23  N   UNL     1       3.060   5.806  19.004  0.00  0.00    +0.000 N 
BRANCH  23  24
ATOM     24  C   UNL     1       2.467   4.713  19.704  0.00  0.00    +0.000 A 
ATOM     25  N   UNL     1       2.836   4.530  21.010  0.00  0.00    +0.000 NA
ATOM     26  C   UNL     1       2.214   3.543  21.693  0.00  0.00    +0.000 A 
ATOM     27  C   UNL     1       1.228   2.734  21.154  0.00  0.00    +0.000 A 
ATOM     28  C   UNL     1       0.869   2.929  19.824  0.00  0.00    +0.000 A 
ATOM     29  C   UNL     1       1.495   3.927  19.075  0.00  0.00    +0.000 A 
ATOM     30 CL   UNL     1       1.099   3.982  17.390  0.00  0.00    +0.000 Cl
ENDBRANCH  23  24
BRANCH  21  31
ATOM     31  C   UNL     1       5.663   6.877  16.809  0.00  0.00    +0.000 C 
BRANCH  31  32
ATOM     32  O   UNL     1       5.648   6.024  15.648  0.00  0.00    +0.000 OA
BRANCH  32  33
ATOM     33  C   UNL     1       6.707   5.186  15.538  0.00  0.00    +0.000 C 
ATOM     34  C   UNL     1       6.830   4.658  14.142  0.00  0.00    +0.000 C 
ATOM     35  O   UNL     1       7.479   4.899  16.443  0.00  0.00    +0.000 OA
ENDBRANCH  32  33
ENDBRANCH  31  32
ENDBRANCH  21  31
ENDBRANCH   2  19
TORSDOF 8
ENDMDL
MODEL 3
REMARK VINA RESULT:      -7.0      2.209      2.778
REMARK  Name = 
REMARK  11 active torsions:
REMARK  status: ('A' for Active; 'I' for Inactive)
REMARK    1  A    between atoms: C_1  and  O_2
REMARK    2  A    between atoms: O_2  and  N_3
REMARK    3  A    between atoms: C_4  and  C_6
REMARK    4  A    between atoms: C_11  and  C_12
REMARK    5  A    between atoms: C_13  and  N_14
REMARK    6  A    between atoms: C_15  and  C_17
REMARK    7  A    between atoms: C_19  and  C_20
REMARK    8  A    between atoms: C_20  and  O_21
REMARK    9  A    between atoms: O_21  and  C_22
REMARK   10  A    between atoms: C_22  and  C_23
REMARK   11  A    between atoms: N_26  and  C_27
REMARK                            x       y       z     vdW  Elec       q    Type
REMARK                         _______ _______ _______ _____ _____    ______ ____
ROOT
ATOM      1  N   UNL     1       1.428   9.115  19.583  0.00  0.00    +0.000 N 
ATOM      2  C   UNL     1       1.584   7.740  19.718  0.00  0.00    +0.000 C 
ATOM      3  O   UNL     1       0.906   7.080  20.505  0.00  0.00    +0.000 OA
ATOM      4  H   UNL     1       1.737   9.507  18.704  0.00  0.00    +0.000 HD
ENDROOT
BRANCH   1  12
ATOM      5  C   UNL     1      -0.597  10.575  19.791  0.00  0.00    +0.000 A 
ATOM      6  C   UNL     1      -1.474  11.294  20.629  0.00  0.00    +0.000 A 
ATOM      7  C   UNL     1      -1.260  11.342  21.997  0.00  0.00    +0.000 A 
ATOM      8 CL   UNL     1      -2.321  12.260  22.994  0.00  0.00    +0.000 Cl
ATOM      9  C   UNL     1      -0.192  10.657  22.562  0.00  0.00    +0.000 A 
ATOM     10  C   UNL     1       0.684   9.905  21.757  0.00  0.00    +0.000 A 
ATOM     11  C   UNL     1       1.868   9.257  22.429  0.00  0.00    +0.000 C 
ATOM     12  C   UNL     1       0.492   9.861  20.353  0.00  0.00    +0.000 A 
BRANCH   5  14
ATOM     13  N   UNL     1      -1.980  11.418  18.002  0.00  0.00    +0.000 N 
ATOM     14  C   UNL     1      -0.992  10.512  18.347  0.00  0.00    +0.000 C 
ATOM     15  O   UNL     1      -0.516   9.660  17.607  0.00  0.00    +0.000 OA
ATOM     16  H   UNL     1      -2.008  12.313  18.479  0.00  0.00    +0.000 HD
BRANCH  13  18
ATOM     17  C   UNL     1      -3.660  10.928  16.508  0.00  0.00    +0.000 C 
ATOM     18  O   UNL     1      -2.347  11.470  16.639  0.00  0.00    +0.000 OA
ENDBRANCH  13  18
ENDBRANCH   5  14
ENDBRANCH   1  12
BRANCH   2  19
ATOM     19  C   UNL     1       2.582   7.149  18.846  0.00  0.00    +0.000 A 
ATOM     20  C   UNL     1       3.409   7.741  17.898  0.00  0.00    +0.000 A 
ATOM     21  C   UNL     1       4.371   6.762  17.561  0.00  0.00    +0.000 A 
ATOM     22  N   UNL     1       4.098   5.600  18.151  0.00  0.00    +0.000 NA
ATOM     23  N   UNL     1       3.032   5.840  18.963  0.00  0.00    +0.000 N 
BRANCH  23  24
ATOM     24  C   UNL     1       2.447   4.754  19.681  0.00  0.00    +0.000 A 
ATOM     25  N   UNL     1       2.825   4.590  20.987  0.00  0.00    +0.000 NA
ATOM     26  C   UNL     1       2.210   3.610  21.687  0.00  0.00    +0.000 A 
ATOM     27  C   UNL     1       1.224   2.791  21.165  0.00  0.00    +0.000 A 
ATOM     28  C   UNL     1       0.856   2.966  19.836  0.00  0.00    +0.000 A 
ATOM     29  C   UNL     1       1.474   3.956  19.069  0.00  0.00    +0.000 A 
ATOM     30 CL   UNL     1       1.067   3.988  17.386  0.00  0.00    +0.000 Cl
ENDBRANCH  23  24
BRANCH  21  31
ATOM     31  C   UNL     1       5.608   6.886  16.724  0.00  0.00    +0.000 C 
BRANCH  31  32
ATOM     32  O   UNL     1       6.686   6.068  17.219  0.00  0.00    +0.000 OA
BRANCH  32  33
ATOM     33  C   UNL     1       7.518   6.683  18.094  0.00  0.00    +0.000 C 
ATOM     34  C   UNL     1       7.841   8.073  17.642  0.00  0.00    +0.000 C 
ATOM     35  O   UNL     1       7.946   6.189  19.129  0.00  0.00    +0.000 OA
ENDBRANCH  32  33
ENDBRANCH  31  32
ENDBRANCH  21  31
ENDBRANCH   2  19
TORSDOF 8
ENDMDL
MODEL 4
REMARK VINA RESULT:      -7.0      7.345      9.792
REMARK  Name = 
REMARK  11 active torsions:
REMARK  status: ('A' for Active; 'I' for Inactive)
REMARK    1  A    between atoms: C_1  and  O_2
REMARK    2  A    between atoms: O_2  and  N_3
REMARK    3  A    between atoms: C_4  and  C_6
REMARK    4  A    between atoms: C_11  and  C_12
REMARK    5  A    between atoms: C_13  and  N_14
REMARK    6  A    between atoms: C_15  and  C_17
REMARK    7  A    between atoms: C_19  and  C_20
REMARK    8  A    between atoms: C_20  and  O_21
REMARK    9  A    between atoms: O_21  and  C_22
REMARK   10  A    between atoms: C_22  and  C_23
REMARK   11  A    between atoms: N_26  and  C_27
REMARK                            x       y       z     vdW  Elec       q    Type
REMARK                         _______ _______ _______ _____ _____    ______ ____
ROOT
ATOM      1  N   UNL     1       8.748  13.059  21.361  0.00  0.00    +0.000 N 
ATOM      2  C   UNL     1       9.734  12.196  20.896  0.00  0.00    +0.000 C 
ATOM      3  O   UNL     1      10.801  12.042  21.489  0.00  0.00    +0.000 OA
ATOM      4  H   UNL     1       7.809  12.863  21.044  0.00  0.00    +0.000 HD
ENDROOT
BRANCH   1  12
ATOM      5  C   UNL     1       8.304  13.511  23.785  0.00  0.00    +0.000 A 
ATOM      6  C   UNL     1       8.508  14.344  24.905  0.00  0.00    +0.000 A 
ATOM      7  C   UNL     1       9.259  15.503  24.794  0.00  0.00    +0.000 A 
ATOM      8 CL   UNL     1       9.458  16.523  26.165  0.00  0.00    +0.000 Cl
ATOM      9  C   UNL     1       9.844  15.842  23.581  0.00  0.00    +0.000 A 
ATOM     10  C   UNL     1       9.687  15.017  22.452  0.00  0.00    +0.000 A 
ATOM     11  C   UNL     1      10.281  15.492  21.151  0.00  0.00    +0.000 C 
ATOM     12  C   UNL     1       8.905  13.838  22.542  0.00  0.00    +0.000 A 
BRANCH   5  14
ATOM     13  N   UNL     1       6.307  12.431  24.601  0.00  0.00    +0.000 N 
ATOM     14  C   UNL     1       7.564  12.237  24.055  0.00  0.00    +0.000 C 
ATOM     15  O   UNL     1       8.102  11.152  23.873  0.00  0.00    +0.000 OA
ATOM     16  H   UNL     1       5.781  13.256  24.332  0.00  0.00    +0.000 HD
BRANCH  13  18
ATOM     17  C   UNL     1       5.288  11.139  26.210  0.00  0.00    +0.000 C 
ATOM     18  O   UNL     1       5.519  11.277  24.809  0.00  0.00    +0.000 OA
ENDBRANCH  13  18
ENDBRANCH   5  14
ENDBRANCH   1  12
BRANCH   2  19
ATOM     19  C   UNL     1       9.397  11.481  19.679  0.00  0.00    +0.000 A 
ATOM     20  C   UNL     1       9.183  10.123  19.467  0.00  0.00    +0.000 A 
ATOM     21  C   UNL     1       8.608  10.020  18.180  0.00  0.00    +0.000 A 
ATOM     22  N   UNL     1       8.579  11.205  17.573  0.00  0.00    +0.000 NA
ATOM     23  N   UNL     1       9.024  12.103  18.494  0.00  0.00    +0.000 N 
BRANCH  23  24
ATOM     24  C   UNL     1       9.184  13.469  18.113  0.00  0.00    +0.000 A 
ATOM     25  N   UNL     1       8.109  14.299  18.286  0.00  0.00    +0.000 NA
ATOM     26  C   UNL     1       8.290  15.607  17.999  0.00  0.00    +0.000 A 
ATOM     27  C   UNL     1       9.489  16.145  17.564  0.00  0.00    +0.000 A 
ATOM     28  C   UNL     1      10.570  15.287  17.387  0.00  0.00    +0.000 A 
ATOM     29  C   UNL     1      10.427  13.925  17.658  0.00  0.00    +0.000 A 
ATOM     30 CL   UNL     1      11.775  12.917  17.252  0.00  0.00    +0.000 Cl
ENDBRANCH  23  24
BRANCH  21  31
ATOM     31  C   UNL     1       8.013   8.830  17.491  0.00  0.00    +0.000 C 
BRANCH  31  32
ATOM     32  O   UNL     1       8.084   7.639  18.298  0.00  0.00    +0.000 OA
BRANCH  32  33
ATOM     33  C   UNL     1       7.553   6.529  17.731  0.00  0.00    +0.000 C 
ATOM     34  C   UNL     1       7.603   5.367  18.676  0.00  0.00    +0.000 C 
ATOM     35  O   UNL     1       7.078   6.467  16.606  0.00  0.00    +0.000 OA
ENDBRANCH  32  33
ENDBRANCH  31  32
ENDBRANCH  21  31
ENDBRANCH   2  19
TORSDOF 8
ENDMDL
MODEL 5
REMARK VINA RESULT:      -6.9      3.316      5.956
REMARK  Name = 
REMARK  11 active torsions:
REMARK  status: ('A' for Active; 'I' for Inactive)
REMARK    1  A    between atoms: C_1  and  O_2
REMARK    2  A    between atoms: O_2  and  N_3
REMARK    3  A    between atoms: C_4  and  C_6
REMARK    4  A    between atoms: C_11  and  C_12
REMARK    5  A    between atoms: C_13  and  N_14
REMARK    6  A    between atoms: C_15  and  C_17
REMARK    7  A    between atoms: C_19  and  C_20
REMARK    8  A    between atoms: C_20  and  O_21
REMARK    9  A    between atoms: O_21  and  C_22
REMARK   10  A    between atoms: C_22  and  C_23
REMARK   11  A    between atoms: N_26  and  C_27
REMARK                            x       y       z     vdW  Elec       q    Type
REMARK                         _______ _______ _______ _____ _____    ______ ____
ROOT
ATOM      1  N   UNL     1       3.387   6.216  18.138  0.00  0.00    +0.000 N 
ATOM      2  C   UNL     1       4.636   5.706  18.474  0.00  0.00    +0.000 C 
ATOM      3  O   UNL     1       5.024   5.644  19.640  0.00  0.00    +0.000 OA
ATOM      4  H   UNL     1       3.012   5.906  17.251  0.00  0.00    +0.000 HD
ENDROOT
BRANCH   1  12
ATOM      5  C   UNL     1       1.836   5.904  20.081  0.00  0.00    +0.000 A 
ATOM      6  C   UNL     1       0.941   6.484  21.003  0.00  0.00    +0.000 A 
ATOM      7  C   UNL     1       0.647   7.837  20.946  0.00  0.00    +0.000 A 
ATOM      8 CL   UNL     1      -0.480   8.513  22.056  0.00  0.00    +0.000 Cl
ATOM      9  C   UNL     1       1.257   8.643  19.994  0.00  0.00    +0.000 A 
ATOM     10  C   UNL     1       2.179   8.102  19.078  0.00  0.00    +0.000 A 
ATOM     11  C   UNL     1       2.736   9.022  18.022  0.00  0.00    +0.000 C 
ATOM     12  C   UNL     1       2.475   6.716  19.110  0.00  0.00    +0.000 A 
BRANCH   5  14
ATOM     13  N   UNL     1       1.699   3.625  19.300  0.00  0.00    +0.000 N 
ATOM     14  C   UNL     1       2.150   4.457  20.309  0.00  0.00    +0.000 C 
ATOM     15  O   UNL     1       2.679   4.091  21.352  0.00  0.00    +0.000 OA
ATOM     16  H   UNL     1       1.683   3.979  18.349  0.00  0.00    +0.000 HD
BRANCH  13  18
ATOM     17  C   UNL     1       3.134   1.991  18.548  0.00  0.00    +0.000 C 
ATOM     18  O   UNL     1       2.029   2.256  19.409  0.00  0.00    +0.000 OA
ENDBRANCH  13  18
ENDBRANCH   5  14
ENDBRANCH   1  12
BRANCH   2  19
ATOM     19  C   UNL     1       5.427   5.236  17.352  0.00  0.00    +0.000 A 
ATOM     20  C   UNL     1       5.185   4.202  16.454  0.00  0.00    +0.000 A 
ATOM     21  C   UNL     1       6.121   4.372  15.409  0.00  0.00    +0.000 A 
ATOM     22  N   UNL     1       6.974   5.358  15.686  0.00  0.00    +0.000 NA
ATOM     23  N   UNL     1       6.533   5.910  16.849  0.00  0.00    +0.000 N 
BRANCH  23  24
ATOM     24  C   UNL     1       7.295   6.955  17.455  0.00  0.00    +0.000 A 
ATOM     25  N   UNL     1       7.181   8.208  16.914  0.00  0.00    +0.000 NA
ATOM     26  C   UNL     1       7.841   9.209  17.539  0.00  0.00    +0.000 A 
ATOM     27  C   UNL     1       8.598   9.038  18.685  0.00  0.00    +0.000 A 
ATOM     28  C   UNL     1       8.708   7.758  19.218  0.00  0.00    +0.000 A 
ATOM     29  C   UNL     1       8.055   6.690  18.600  0.00  0.00    +0.000 A 
ATOM     30 CL   UNL     1       8.386   5.115  19.239  0.00  0.00    +0.000 Cl
ENDBRANCH  23  24
BRANCH  21  31
ATOM     31  C   UNL     1       6.223   3.664  14.092  0.00  0.00    +0.000 C 
BRANCH  31  32
ATOM     32  O   UNL     1       5.209   4.092  13.163  0.00  0.00    +0.000 OA
BRANCH  32  33
ATOM     33  C   UNL     1       5.044   3.288  12.084  0.00  0.00    +0.000 C 
ATOM     34  C   UNL     1       6.309   2.554  11.763  0.00  0.00    +0.000 C 
ATOM     35  O   UNL     1       4.004   3.156  11.453  0.00  0.00    +0.000 OA
ENDBRANCH  32  33
ENDBRANCH  31  32
ENDBRANCH  21  31
ENDBRANCH   2  19
TORSDOF 8
ENDMDL
MODEL 6
REMARK VINA RESULT:      -6.8      0.978      1.628
REMARK  Name = 
REMARK  11 active torsions:
REMARK  status: ('A' for Active; 'I' for Inactive)
REMARK    1  A    between atoms: C_1  and  O_2
REMARK    2  A    between atoms: O_2  and  N_3
REMARK    3  A    between atoms: C_4  and  C_6
REMARK    4  A    between atoms: C_11  and  C_12
REMARK    5  A    between atoms: C_13  and  N_14
REMARK    6  A    between atoms: C_15  and  C_17
REMARK    7  A    between atoms: C_19  and  C_20
REMARK    8  A    between atoms: C_20  and  O_21
REMARK    9  A    between atoms: O_21  and  C_22
REMARK   10  A    between atoms: C_22  and  C_23
REMARK   11  A    between atoms: N_26  and  C_27
REMARK                            x       y       z     vdW  Elec       q    Type
REMARK                         _______ _______ _______ _____ _____    ______ ____
ROOT
ATOM      1  N   UNL     1       2.340   8.434  19.482  0.00  0.00    +0.000 N 
ATOM      2  C   UNL     1       2.136   7.668  18.339  0.00  0.00    +0.000 C 
ATOM      3  O   UNL     1       1.082   7.707  17.706  0.00  0.00    +0.000 OA
ATOM      4  H   UNL     1       3.305   8.619  19.718  0.00  0.00    +0.000 HD
ENDROOT
BRANCH   1  12
ATOM      5  C   UNL     1       1.217  10.667  19.647  0.00  0.00    +0.000 A 
ATOM      6  C   UNL     1       0.204  11.457  20.228  0.00  0.00    +0.000 A 
ATOM      7  C   UNL     1      -0.647  10.924  21.182  0.00  0.00    +0.000 A 
ATOM      8 CL   UNL     1      -1.849  11.920  21.905  0.00  0.00    +0.000 Cl
ATOM      9  C   UNL     1      -0.528   9.592  21.557  0.00  0.00    +0.000 A 
ATOM     10  C   UNL     1       0.452   8.767  20.974  0.00  0.00    +0.000 A 
ATOM     11  C   UNL     1       0.575   7.356  21.491  0.00  0.00    +0.000 C 
ATOM     12  C   UNL     1       1.345   9.302  20.011  0.00  0.00    +0.000 A 
BRANCH   5  14
ATOM     13  N   UNL     1       2.316  12.649  18.818  0.00  0.00    +0.000 N 
ATOM     14  C   UNL     1       2.004  11.326  18.557  0.00  0.00    +0.000 C 
ATOM     15  O   UNL     1       2.245  10.730  17.513  0.00  0.00    +0.000 OA
ATOM     16  H   UNL     1       2.482  12.928  19.780  0.00  0.00    +0.000 HD
BRANCH  13  18
ATOM     17  C   UNL     1       2.984  14.717  18.063  0.00  0.00    +0.000 C 
ATOM     18  O   UNL     1       3.125  13.312  17.869  0.00  0.00    +0.000 OA
ENDBRANCH  13  18
ENDBRANCH   5  14
ENDBRANCH   1  12
BRANCH   2  19
ATOM     19  C   UNL     1       3.265   6.845  17.944  0.00  0.00    +0.000 A 
ATOM     20  C   UNL     1       4.336   7.135  17.107  0.00  0.00    +0.000 A 
ATOM     21  C   UNL     1       5.273   6.096  17.306  0.00  0.00    +0.000 A 
ATOM     22  N   UNL     1       4.779   5.154  18.108  0.00  0.00    +0.000 NA
ATOM     23  N   UNL     1       3.573   5.623  18.528  0.00  0.00    +0.000 N 
BRANCH  23  24
ATOM     24  C   UNL     1       2.752   4.793  19.349  0.00  0.00    +0.000 A 
ATOM     25  N   UNL     1       3.079   4.702  20.676  0.00  0.00    +0.000 NA
ATOM     26  C   UNL     1       2.254   3.980  21.465  0.00  0.00    +0.000 A 
ATOM     27  C   UNL     1       1.106   3.352  21.013  0.00  0.00    +0.000 A 
ATOM     28  C   UNL     1       0.791   3.448  19.662  0.00  0.00    +0.000 A 
ATOM     29  C   UNL     1       1.621   4.172  18.805  0.00  0.00    +0.000 A 
ATOM     30 CL   UNL     1       1.236   4.096  17.119  0.00  0.00    +0.000 Cl
ENDBRANCH  23  24
BRANCH  21  31
ATOM     31  C   UNL     1       6.680   5.967  16.805  0.00  0.00    +0.000 C 
BRANCH  31  32
ATOM     32  O   UNL     1       7.533   5.284  17.743  0.00  0.00    +0.000 OA
BRANCH  32  33
ATOM     33  C   UNL     1       7.792   5.965  18.885  0.00  0.00    +0.000 C 
ATOM     34  C   UNL     1       8.234   7.365  18.587  0.00  0.00    +0.000 C 
ATOM     35  O   UNL     1       7.672   5.519  20.018  0.00  0.00    +0.000 OA
ENDBRANCH  32  33
ENDBRANCH  31  32
ENDBRANCH  21  31
ENDBRANCH   2  19
TORSDOF 8
ENDMDL
MODEL 7
REMARK VINA RESULT:      -6.7      1.948      2.383
REMARK  Name = 
REMARK  11 active torsions:
REMARK  status: ('A' for Active; 'I' for Inactive)
REMARK    1  A    between atoms: C_1  and  O_2
REMARK    2  A    between atoms: O_2  and  N_3
REMARK    3  A    between atoms: C_4  and  C_6
REMARK    4  A    between atoms: C_11  and  C_12
REMARK    5  A    between atoms: C_13  and  N_14
REMARK    6  A    between atoms: C_15  and  C_17
REMARK    7  A    between atoms: C_19  and  C_20
REMARK    8  A    between atoms: C_20  and  O_21
REMARK    9  A    between atoms: O_21  and  C_22
REMARK   10  A    between atoms: C_22  and  C_23
REMARK   11  A    between atoms: N_26  and  C_27
REMARK                            x       y       z     vdW  Elec       q    Type
REMARK                         _______ _______ _______ _____ _____    ______ ____
ROOT
ATOM      1  N   UNL     1       2.352   6.945  18.459  0.00  0.00    +0.000 N 
ATOM      2  C   UNL     1       3.702   6.614  18.458  0.00  0.00    +0.000 C 
ATOM      3  O   UNL     1       4.457   6.942  19.373  0.00  0.00    +0.000 OA
ATOM      4  H   UNL     1       1.755   6.356  17.895  0.00  0.00    +0.000 HD
ENDROOT
BRANCH   1  12
ATOM      5  C   UNL     1       1.593   9.109  19.468  0.00  0.00    +0.000 A 
ATOM      6  C   UNL     1       0.987   9.777  20.552  0.00  0.00    +0.000 A 
ATOM      7  C   UNL     1       0.576   9.075  21.673  0.00  0.00    +0.000 A 
ATOM      8 CL   UNL     1      -0.122   9.919  23.000  0.00  0.00    +0.000 Cl
ATOM      9  C   UNL     1       0.732   7.696  21.728  0.00  0.00    +0.000 A 
ATOM     10  C   UNL     1       1.304   6.994  20.651  0.00  0.00    +0.000 A 
ATOM     11  C   UNL     1       1.516   5.511  20.816  0.00  0.00    +0.000 C 
ATOM     12  C   UNL     1       1.748   7.700  19.504  0.00  0.00    +0.000 A 
BRANCH   5  14
ATOM     13  N   UNL     1       1.745  11.317  18.506  0.00  0.00    +0.000 N 
ATOM     14  C   UNL     1       1.898   9.961  18.274  0.00  0.00    +0.000 C 
ATOM     15  O   UNL     1       2.166   9.449  17.194  0.00  0.00    +0.000 OA
ATOM     16  H   UNL     1       1.951  11.678  19.432  0.00  0.00    +0.000 HD
BRANCH  13  18
ATOM     17  C   UNL     1       2.738  13.331  18.002  0.00  0.00    +0.000 C 
ATOM     18  O   UNL     1       2.092  12.186  17.448  0.00  0.00    +0.000 OA
ENDBRANCH  13  18
ENDBRANCH   5  14
ENDBRANCH   1  12
BRANCH   2  19
ATOM     19  C   UNL     1       4.140   5.836  17.313  0.00  0.00    +0.000 A 
ATOM     20  C   UNL     1       4.991   6.179  16.269  0.00  0.00    +0.000 A 
ATOM     21  C   UNL     1       5.294   4.968  15.605  0.00  0.00    +0.000 A 
ATOM     22  N   UNL     1       4.588   3.957  16.109  0.00  0.00    +0.000 NA
ATOM     23  N   UNL     1       3.912   4.473  17.172  0.00  0.00    +0.000 N 
BRANCH  23  24
ATOM     24  C   UNL     1       2.994   3.642  17.883  0.00  0.00    +0.000 A 
ATOM     25  N   UNL     1       1.693   3.636  17.455  0.00  0.00    +0.000 NA
ATOM     26  C   UNL     1       0.845   2.788  18.079  0.00  0.00    +0.000 A 
ATOM     27  C   UNL     1       1.221   1.929  19.098  0.00  0.00    +0.000 A 
ATOM     28  C   UNL     1       2.545   1.953  19.524  0.00  0.00    +0.000 A 
ATOM     29  C   UNL     1       3.455   2.822  18.919  0.00  0.00    +0.000 A 
ATOM     30 CL   UNL     1       5.033   2.895  19.628  0.00  0.00    +0.000 Cl
ENDBRANCH  23  24
BRANCH  21  31
ATOM     31  C   UNL     1       6.289   4.696  14.518  0.00  0.00    +0.000 C 
BRANCH  31  32
ATOM     32  O   UNL     1       5.877   3.616  13.659  0.00  0.00    +0.000 OA
BRANCH  32  33
ATOM     33  C   UNL     1       6.481   3.585  12.446  0.00  0.00    +0.000 C 
ATOM     34  C   UNL     1       6.011   2.412  11.642  0.00  0.00    +0.000 C 
ATOM     35  O   UNL     1       7.293   4.405  12.039  0.00  0.00    +0.000 OA
ENDBRANCH  32  33
ENDBRANCH  31  32
ENDBRANCH  21  31
ENDBRANCH   2  19
TORSDOF 8
ENDMDL
MODEL 8
REMARK VINA RESULT:      -6.6      4.533      7.099
REMARK  Name = 
REMARK  11 active torsions:
REMARK  status: ('A' for Active; 'I' for Inactive)
REMARK    1  A    between atoms: C_1  and  O_2
REMARK    2  A    between atoms: O_2  and  N_3
REMARK    3  A    between atoms: C_4  and  C_6
REMARK    4  A    between atoms: C_11  and  C_12
REMARK    5  A    between atoms: C_13  and  N_14
REMARK    6  A    between atoms: C_15  and  C_17
REMARK    7  A    between atoms: C_19  and  C_20
REMARK    8  A    between atoms: C_20  and  O_21
REMARK    9  A    between atoms: O_21  and  C_22
REMARK   10  A    between atoms: C_22  and  C_23
REMARK   11  A    between atoms: N_26  and  C_27
REMARK                            x       y       z     vdW  Elec       q    Type
REMARK                         _______ _______ _______ _____ _____    ______ ____
ROOT
ATOM      1  N   UNL     1      -2.825  10.910  18.443  0.00  0.00    +0.000 N 
ATOM      2  C   UNL     1      -1.561  11.422  18.176  0.00  0.00    +0.000 C 
ATOM      3  O   UNL     1      -1.397  12.554  17.722  0.00  0.00    +0.000 OA
ATOM      4  H   UNL     1      -2.860  10.162  19.123  0.00  0.00    +0.000 HD
ENDROOT
BRANCH   1  12
ATOM      5  C   UNL     1      -4.706  12.384  19.192  0.00  0.00    +0.000 A 
ATOM      6  C   UNL     1      -5.888  13.079  18.861  0.00  0.00    +0.000 A 
ATOM      7  C   UNL     1      -6.408  13.015  17.579  0.00  0.00    +0.000 A 
ATOM      8 CL   UNL     1      -7.873  13.838  17.211  0.00  0.00    +0.000 Cl
ATOM      9  C   UNL     1      -5.753  12.285  16.596  0.00  0.00    +0.000 A 
ATOM     10  C   UNL     1      -4.554  11.605  16.884  0.00  0.00    +0.000 A 
ATOM     11  C   UNL     1      -3.945  10.768  15.790  0.00  0.00    +0.000 C 
ATOM     12  C   UNL     1      -4.019  11.644  18.197  0.00  0.00    +0.000 A 
BRANCH   5  14
ATOM     13  N   UNL     1      -5.075  12.235  21.572  0.00  0.00    +0.000 N 
ATOM     14  C   UNL     1      -4.189  12.615  20.579  0.00  0.00    +0.000 C 
ATOM     15  O   UNL     1      -3.114  13.173  20.759  0.00  0.00    +0.000 OA
ATOM     16  H   UNL     1      -5.686  11.443  21.403  0.00  0.00    +0.000 HD
BRANCH  13  18
ATOM     17  C   UNL     1      -5.414  13.341  23.562  0.00  0.00    +0.000 C 
ATOM     18  O   UNL     1      -4.624  12.351  22.906  0.00  0.00    +0.000 OA
ENDBRANCH  13  18
ENDBRANCH   5  14
ENDBRANCH   1  12
BRANCH   2  19
ATOM     19  C   UNL     1      -0.459  10.533  18.495  0.00  0.00    +0.000 A 
ATOM     20  C   UNL     1       0.218   9.620  17.694  0.00  0.00    +0.000 A 
ATOM     21  C   UNL     1       1.368   9.246  18.424  0.00  0.00    +0.000 A 
ATOM     22  N   UNL     1       1.355   9.779  19.645  0.00  0.00    +0.000 NA
ATOM     23  N   UNL     1       0.264  10.592  19.680  0.00  0.00    +0.000 N 
BRANCH  23  24
ATOM     24  C   UNL     1      -0.071  11.254  20.899  0.00  0.00    +0.000 A 
ATOM     25  N   UNL     1       0.122  12.609  20.951  0.00  0.00    +0.000 NA
ATOM     26  C   UNL     1      -0.270  13.243  22.078  0.00  0.00    +0.000 A 
ATOM     27  C   UNL     1      -0.862  12.607  23.157  0.00  0.00    +0.000 A 
ATOM     28  C   UNL     1      -1.045  11.230  23.090  0.00  0.00    +0.000 A 
ATOM     29  C   UNL     1      -0.643  10.529  21.952  0.00  0.00    +0.000 A 
ATOM     30 CL   UNL     1      -0.762   8.804  22.031  0.00  0.00    +0.000 Cl
ENDBRANCH  23  24
BRANCH  21  31
ATOM     31  C   UNL     1       2.548   8.426  17.996  0.00  0.00    +0.000 C 
BRANCH  31  32
ATOM     32  O   UNL     1       2.300   7.012  18.108  0.00  0.00    +0.000 OA
BRANCH  32  33
ATOM     33  C   UNL     1       3.379   6.265  18.447  0.00  0.00    +0.000 C 
ATOM     34  C   UNL     1       4.266   6.035  17.262  0.00  0.00    +0.000 C 
ATOM     35  O   UNL     1       3.621   5.840  19.568  0.00  0.00    +0.000 OA
ENDBRANCH  32  33
ENDBRANCH  31  32
ENDBRANCH  21  31
ENDBRANCH   2  19
TORSDOF 8
ENDMDL
MODEL 9
REMARK VINA RESULT:      -6.5      1.891      2.256
REMARK  Name = 
REMARK  11 active torsions:
REMARK  status: ('A' for Active; 'I' for Inactive)
REMARK    1  A    between atoms: C_1  and  O_2
REMARK    2  A    between atoms: O_2  and  N_3
REMARK    3  A    between atoms: C_4  and  C_6
REMARK    4  A    between atoms: C_11  and  C_12
REMARK    5  A    between atoms: C_13  and  N_14
REMARK    6  A    between atoms: C_15  and  C_17
REMARK    7  A    between atoms: C_19  and  C_20
REMARK    8  A    between atoms: C_20  and  O_21
REMARK    9  A    between atoms: O_21  and  C_22
REMARK   10  A    between atoms: C_22  and  C_23
REMARK   11  A    between atoms: N_26  and  C_27
REMARK                            x       y       z     vdW  Elec       q    Type
REMARK                         _______ _______ _______ _____ _____    ______ ____
ROOT
ATOM      1  N   UNL     1       2.415   7.038  18.431  0.00  0.00    +0.000 N 
ATOM      2  C   UNL     1       3.691   6.497  18.549  0.00  0.00    +0.000 C 
ATOM      3  O   UNL     1       4.349   6.594  19.583  0.00  0.00    +0.000 OA
ATOM      4  H   UNL     1       1.825   6.619  17.725  0.00  0.00    +0.000 HD
ENDROOT
BRANCH   1  12
ATOM      5  C   UNL     1       1.620   9.164  19.491  0.00  0.00    +0.000 A 
ATOM      6  C   UNL     1       0.989   9.795  20.583  0.00  0.00    +0.000 A 
ATOM      7  C   UNL     1       0.563   9.055  21.674  0.00  0.00    +0.000 A 
ATOM      8 CL   UNL     1      -0.168   9.853  23.012  0.00  0.00    +0.000 Cl
ATOM      9  C   UNL     1       0.727   7.676  21.690  0.00  0.00    +0.000 A 
ATOM     10  C   UNL     1       1.325   7.012  20.602  0.00  0.00    +0.000 A 
ATOM     11  C   UNL     1       1.545   5.526  20.726  0.00  0.00    +0.000 C 
ATOM     12  C   UNL     1       1.786   7.756  19.487  0.00  0.00    +0.000 A 
BRANCH   5  14
ATOM     13  N   UNL     1       1.925  11.403  18.643  0.00  0.00    +0.000 N 
ATOM     14  C   UNL     1       1.942  10.054  18.330  0.00  0.00    +0.000 C 
ATOM     15  O   UNL     1       2.108   9.585  17.210  0.00  0.00    +0.000 OA
ATOM     16  H   UNL     1       2.209  11.690  19.574  0.00  0.00    +0.000 HD
BRANCH  13  18
ATOM     17  C   UNL     1       2.590  13.563  18.208  0.00  0.00    +0.000 C 
ATOM     18  O   UNL     1       2.296  12.299  17.616  0.00  0.00    +0.000 OA
ENDBRANCH  13  18
ENDBRANCH   5  14
ENDBRANCH   1  12
BRANCH   2  19
ATOM     19  C   UNL     1       4.168   5.794  17.372  0.00  0.00    +0.000 A 
ATOM     20  C   UNL     1       4.914   6.255  16.293  0.00  0.00    +0.000 A 
ATOM     21  C   UNL     1       5.337   5.101  15.596  0.00  0.00    +0.000 A 
ATOM     22  N   UNL     1       4.795   4.001  16.117  0.00  0.00    +0.000 NA
ATOM     23  N   UNL     1       4.112   4.414  17.220  0.00  0.00    +0.000 N 
BRANCH  23  24
ATOM     24  C   UNL     1       3.347   3.463  17.960  0.00  0.00    +0.000 A 
ATOM     25  N   UNL     1       4.037   2.573  18.739  0.00  0.00    +0.000 NA
ATOM     26  C   UNL     1       3.307   1.727  19.499  0.00  0.00    +0.000 A 
ATOM     27  C   UNL     1       1.924   1.726  19.544  0.00  0.00    +0.000 A 
ATOM     28  C   UNL     1       1.238   2.632  18.742  0.00  0.00    +0.000 A 
ATOM     29  C   UNL     1       1.949   3.517  17.929  0.00  0.00    +0.000 A 
ATOM     30 CL   UNL     1       1.009   4.490  16.849  0.00  0.00    +0.000 Cl
ENDBRANCH  23  24
BRANCH  21  31
ATOM     31  C   UNL     1       6.303   4.972  14.458  0.00  0.00    +0.000 C 
BRANCH  31  32
ATOM     32  O   UNL     1       6.328   3.639  13.911  0.00  0.00    +0.000 OA
BRANCH  32  33
ATOM     33  C   UNL     1       6.188   3.568  12.565  0.00  0.00    +0.000 C 
ATOM     34  C   UNL     1       7.281   4.322  11.871  0.00  0.00    +0.000 C 
ATOM     35  O   UNL     1       5.303   2.962  11.977  0.00  0.00    +0.000 OA
ENDBRANCH  32  33
ENDBRANCH  31  32
ENDBRANCH  21  31
ENDBRANCH   2  19
TORSDOF 8
ENDMDL
