MODEL 1
REMARK VINA RESULT:      -8.4      0.000      0.000
REMARK  Name = 
REMARK  6 active torsions:
REMARK  status: ('A' for Active; 'I' for Inactive)
REMARK    1  A    between atoms: C_2  and  C_3
REMARK    2  A    between atoms: C_3  and  O_4
REMARK    3  A    between atoms: O_4  and  C_5
REMARK    4  A    between atoms: C_7  and  C_8
REMARK    5  A    between atoms: C_21  and  O_22
REMARK    6  A    between atoms: O_22  and  C_23
REMARK                            x       y       z     vdW  Elec       q    Type
REMARK                         _______ _______ _______ _____ _____    ______ ____
ROOT
ATOM      1  C   UNL     1       6.970   6.086  16.369  0.00  0.00    +0.000 A 
ATOM      2  C   UNL     1       5.946   5.700  17.249  0.00  0.00    +0.000 A 
ATOM      3  C   UNL     1       5.184   4.550  16.996  0.00  0.00    +0.000 A 
ATOM      4  C   UNL     1       5.362   3.832  15.815  0.00  0.00    +0.000 A 
ATOM      5  C   UNL     1       6.351   4.232  14.923  0.00  0.00    +0.000 A 
ATOM      6  C   UNL     1       7.178   5.335  15.194  0.00  0.00    +0.000 A 
ENDROOT
BRANCH   3   7
ATOM      7  C   UNL     1       4.356   3.984  18.081  0.00  0.00    +0.000 A 
ATOM      8  N   UNL     1       3.250   4.521  18.493  0.00  0.00    +0.000 NA
ATOM      9  C   UNL     1       2.593   3.885  19.574  0.00  0.00    +0.000 A 
ATOM     10  C   UNL     1       1.282   4.234  19.898  0.00  0.00    +0.000 A 
ATOM     11  C   UNL     1       0.612   3.590  20.949  0.00  0.00    +0.000 A 
ATOM     12  C   UNL     1       1.259   2.615  21.711  0.00  0.00    +0.000 A 
ATOM     13  C   UNL     1       2.573   2.268  21.415  0.00  0.00    +0.000 A 
ATOM     14  C   UNL     1       3.209   2.889  20.338  0.00  0.00    +0.000 A 
ATOM     15  C   UNL     1       4.541   2.447  19.913  0.00  0.00    +0.000 A 
ATOM     16  O   UNL     1       5.270   1.764  20.619  0.00  0.00    +0.000 OA
ATOM     17  N   UNL     1       4.924   2.882  18.678  0.00  0.00    +0.000 N 
ATOM     18  H   UNL     1       5.840   2.564  18.393  0.00  0.00    +0.000 HD
ENDBRANCH   3   7
BRANCH   6  19
ATOM     19  O   UNL     1       8.121   5.481  14.212  0.00  0.00    +0.000 OA
ATOM     20  C   UNL     1       7.800   5.164  12.871  0.00  0.00    +0.000 C 
ENDBRANCH   6  19
BRANCH   1  21
ATOM     21  O   UNL     1       7.766   7.184  16.615  0.00  0.00    +0.000 OA
BRANCH  21  22
ATOM     22  C   UNL     1       7.922   7.541  17.995  0.00  0.00    +0.000 C 
BRANCH  22  24
ATOM     23  C   UNL     1       8.731  10.077  18.204  0.00  0.00    +0.000 C 
ATOM     24  C   UNL     1       8.314   8.953  18.135  0.00  0.00    +0.000 C 
ENDBRANCH  22  24
ENDBRANCH  21  22
ENDBRANCH   1  21
TORSDOF 5
ENDMDL
MODEL 2
REMARK VINA RESULT:      -7.9      1.451      1.959
REMARK  Name = 
REMARK  6 active torsions:
REMARK  status: ('A' for Active; 'I' for Inactive)
REMARK    1  A    between atoms: C_2  and  C_3
REMARK    2  A    between atoms: C_3  and  O_4
REMARK    3  A    between atoms: O_4  and  C_5
REMARK    4  A    between atoms: C_7  and  C_8
REMARK    5  A    between atoms: C_21  and  O_22
REMARK    6  A    between atoms: O_22  and  C_23
REMARK                            x       y       z     vdW  Elec       q    Type
REMARK                         _______ _______ _______ _____ _____    ______ ____
ROOT
ATOM      1  C   UNL     1       6.969   6.102  16.291  0.00  0.00    +0.000 A 
ATOM      2  C   UNL     1       5.850   5.865  17.106  0.00  0.00    +0.000 A 
ATOM      3  C   UNL     1       4.907   4.887  16.756  0.00  0.00    +0.000 A 
ATOM      4  C   UNL     1       5.011   4.209  15.543  0.00  0.00    +0.000 A 
ATOM      5  C   UNL     1       6.098   4.467  14.715  0.00  0.00    +0.000 A 
ATOM      6  C   UNL     1       7.096   5.386  15.082  0.00  0.00    +0.000 A 
ENDROOT
BRANCH   3   7
ATOM      7  C   UNL     1       3.938   4.427  17.773  0.00  0.00    +0.000 A 
ATOM      8  N   UNL     1       4.275   3.755  18.830  0.00  0.00    +0.000 NA
ATOM      9  C   UNL     1       3.227   3.345  19.688  0.00  0.00    +0.000 A 
ATOM     10  C   UNL     1       3.517   2.861  20.964  0.00  0.00    +0.000 A 
ATOM     11  C   UNL     1       2.483   2.478  21.832  0.00  0.00    +0.000 A 
ATOM     12  C   UNL     1       1.150   2.541  21.421  0.00  0.00    +0.000 A 
ATOM     13  C   UNL     1       0.844   3.001  20.145  0.00  0.00    +0.000 A 
ATOM     14  C   UNL     1       1.882   3.419  19.309  0.00  0.00    +0.000 A 
ATOM     15  C   UNL     1       1.584   4.040  18.015  0.00  0.00    +0.000 A 
ATOM     16  O   UNL     1       0.490   3.956  17.475  0.00  0.00    +0.000 OA
ATOM     17  N   UNL     1       2.631   4.696  17.438  0.00  0.00    +0.000 N 
ATOM     18  H   UNL     1       2.412   5.127  16.551  0.00  0.00    +0.000 HD
ENDBRANCH   3   7
BRANCH   6  19
ATOM     19  O   UNL     1       8.097   5.408  14.148  0.00  0.00    +0.000 OA
ATOM     20  C   UNL     1       7.802   5.139  12.790  0.00  0.00    +0.000 C 
ENDBRANCH   6  19
BRANCH   1  21
ATOM     21  O   UNL     1       7.937   7.022  16.632  0.00  0.00    +0.000 OA
BRANCH  21  22
ATOM     22  C   UNL     1       7.880   7.514  17.977  0.00  0.00    +0.000 C 
BRANCH  22  24
ATOM     23  C   UNL     1       8.664  10.057  18.180  0.00  0.00    +0.000 C 
ATOM     24  C   UNL     1       8.361   8.902  18.054  0.00  0.00    +0.000 C 
ENDBRANCH  22  24
ENDBRANCH  21  22
ENDBRANCH   1  21
TORSDOF 5
ENDMDL
MODEL 3
REMARK VINA RESULT:      -7.8      2.306      4.245
REMARK  Name = 
REMARK  6 active torsions:
REMARK  status: ('A' for Active; 'I' for Inactive)
REMARK    1  A    between atoms: C_2  and  C_3
REMARK    2  A    between atoms: C_3  and  O_4
REMARK    3  A    between atoms: O_4  and  C_5
REMARK    4  A    between atoms: C_7  and  C_8
REMARK    5  A    between atoms: C_21  and  O_22
REMARK    6  A    between atoms: O_22  and  C_23
REMARK                            x       y       z     vdW  Elec       q    Type
REMARK                         _______ _______ _______ _____ _____    ______ ____
ROOT
ATOM      1  C   UNL     1       5.941   4.482  14.347  0.00  0.00    +0.000 A 
ATOM      2  C   UNL     1       5.039   4.011  15.316  0.00  0.00    +0.000 A 
ATOM      3  C   UNL     1       5.357   4.083  16.681  0.00  0.00    +0.000 A 
ATOM      4  C   UNL     1       6.613   4.528  17.090  0.00  0.00    +0.000 A 
ATOM      5  C   UNL     1       7.522   4.961  16.131  0.00  0.00    +0.000 A 
ATOM      6  C   UNL     1       7.196   4.971  14.764  0.00  0.00    +0.000 A 
ENDROOT
BRANCH   3   7
ATOM      7  C   UNL     1       4.283   3.898  17.679  0.00  0.00    +0.000 A 
ATOM      8  N   UNL     1       4.441   3.247  18.789  0.00  0.00    +0.000 NA
ATOM      9  C   UNL     1       3.305   3.117  19.622  0.00  0.00    +0.000 A 
ATOM     10  C   UNL     1       3.449   2.674  20.937  0.00  0.00    +0.000 A 
ATOM     11  C   UNL     1       2.332   2.569  21.780  0.00  0.00    +0.000 A 
ATOM     12  C   UNL     1       1.053   2.870  21.305  0.00  0.00    +0.000 A 
ATOM     13  C   UNL     1       0.888   3.293  19.991  0.00  0.00    +0.000 A 
ATOM     14  C   UNL     1       2.016   3.434  19.179  0.00  0.00    +0.000 A 
ATOM     15  C   UNL     1       1.893   4.011  17.837  0.00  0.00    +0.000 A 
ATOM     16  O   UNL     1       0.822   4.112  17.254  0.00  0.00    +0.000 OA
ATOM     17  N   UNL     1       3.070   4.402  17.269  0.00  0.00    +0.000 N 
ATOM     18  H   UNL     1       2.971   4.805  16.348  0.00  0.00    +0.000 HD
ENDBRANCH   3   7
BRANCH   6  19
ATOM     19  O   UNL     1       8.217   5.513  14.030  0.00  0.00    +0.000 OA
ATOM     20  C   UNL     1       8.155   5.501  12.616  0.00  0.00    +0.000 C 
ENDBRANCH   6  19
BRANCH   1  21
ATOM     21  O   UNL     1       5.638   4.468  13.003  0.00  0.00    +0.000 OA
BRANCH  21  22
ATOM     22  C   UNL     1       5.445   3.171  12.423  0.00  0.00    +0.000 C 
BRANCH  22  24
ATOM     23  C   UNL     1       3.430   3.236  10.673  0.00  0.00    +0.000 C 
ATOM     24  C   UNL     1       4.375   3.196  11.413  0.00  0.00    +0.000 C 
ENDBRANCH  22  24
ENDBRANCH  21  22
ENDBRANCH   1  21
TORSDOF 5
ENDMDL
MODEL 4
REMARK VINA RESULT:      -7.7      1.879      3.805
REMARK  Name = 
REMARK  6 active torsions:
REMARK  status: ('A' for Active; 'I' for Inactive)
REMARK    1  A    between atoms: C_2  and  C_3
REMARK    2  A    between atoms: C_3  and  O_4
REMARK    3  A    between atoms: O_4  and  C_5
REMARK    4  A    between atoms: C_7  and  C_8
REMARK    5  A    between atoms: C_21  and  O_22
REMARK    6  A    between atoms: O_22  and  C_23
REMARK                            x       y       z     vdW  Elec       q    Type
REMARK                         _______ _______ _______ _____ _____    ______ ____
ROOT
ATOM      1  C   UNL     1       5.690   4.444  14.510  0.00  0.00    +0.000 A 
ATOM      2  C   UNL     1       4.959   3.847  15.551  0.00  0.00    +0.000 A 
ATOM      3  C   UNL     1       5.452   3.855  16.864  0.00  0.00    +0.000 A 
ATOM      4  C   UNL     1       6.720   4.364  17.138  0.00  0.00    +0.000 A 
ATOM      5  C   UNL     1       7.462   4.924  16.104  0.00  0.00    +0.000 A 
ATOM      6  C   UNL     1       6.956   4.997  14.795  0.00  0.00    +0.000 A 
ENDROOT
BRANCH   3   7
ATOM      7  C   UNL     1       4.536   3.529  17.977  0.00  0.00    +0.000 A 
ATOM      8  N   UNL     1       3.424   4.160  18.198  0.00  0.00    +0.000 NA
ATOM      9  C   UNL     1       2.677   3.761  19.332  0.00  0.00    +0.000 A 
ATOM     10  C   UNL     1       1.360   4.193  19.489  0.00  0.00    +0.000 A 
ATOM     11  C   UNL     1       0.601   3.780  20.594  0.00  0.00    +0.000 A 
ATOM     12  C   UNL     1       1.164   2.960  21.575  0.00  0.00    +0.000 A 
ATOM     13  C   UNL     1       2.481   2.535  21.445  0.00  0.00    +0.000 A 
ATOM     14  C   UNL     1       3.208   2.921  20.316  0.00  0.00    +0.000 A 
ATOM     15  C   UNL     1       4.549   2.377  20.080  0.00  0.00    +0.000 A 
ATOM     16  O   UNL     1       5.207   1.830  20.954  0.00  0.00    +0.000 OA
ATOM     17  N   UNL     1       5.026   2.554  18.814  0.00  0.00    +0.000 N 
ATOM     18  H   UNL     1       5.947   2.168  18.662  0.00  0.00    +0.000 HD
ENDBRANCH   3   7
BRANCH   6  19
ATOM     19  O   UNL     1       7.831   5.658  13.977  0.00  0.00    +0.000 OA
ATOM     20  C   UNL     1       8.116   5.148  12.687  0.00  0.00    +0.000 C 
ENDBRANCH   6  19
BRANCH   1  21
ATOM     21  O   UNL     1       5.210   4.494  13.219  0.00  0.00    +0.000 OA
BRANCH  21  22
ATOM     22  C   UNL     1       5.303   3.272  12.475  0.00  0.00    +0.000 C 
BRANCH  22  24
ATOM     23  C   UNL     1       3.419   3.232  10.583  0.00  0.00    +0.000 C 
ATOM     24  C   UNL     1       4.248   3.194  11.452  0.00  0.00    +0.000 C 
ENDBRANCH  22  24
ENDBRANCH  21  22
ENDBRANCH   1  21
TORSDOF 5
ENDMDL
MODEL 5
REMARK VINA RESULT:      -7.6      4.247      5.409
REMARK  Name = 
REMARK  6 active torsions:
REMARK  status: ('A' for Active; 'I' for Inactive)
REMARK    1  A    between atoms: C_2  and  C_3
REMARK    2  A    between atoms: C_3  and  O_4
REMARK    3  A    between atoms: O_4  and  C_5
REMARK    4  A    between atoms: C_7  and  C_8
REMARK    5  A    between atoms: C_21  and  O_22
REMARK    6  A    between atoms: O_22  and  C_23
REMARK                            x       y       z     vdW  Elec       q    Type
REMARK                         _______ _______ _______ _____ _____    ______ ____
ROOT
ATOM      1  C   UNL     1       5.100   6.476  16.957  0.00  0.00    +0.000 A 
ATOM      2  C   UNL     1       4.160   7.392  17.457  0.00  0.00    +0.000 A 
ATOM      3  C   UNL     1       2.976   6.942  18.059  0.00  0.00    +0.000 A 
ATOM      4  C   UNL     1       2.666   5.583  18.078  0.00  0.00    +0.000 A 
ATOM      5  C   UNL     1       3.578   4.675  17.551  0.00  0.00    +0.000 A 
ATOM      6  C   UNL     1       4.806   5.098  17.014  0.00  0.00    +0.000 A 
ENDROOT
BRANCH   3   7
ATOM      7  C   UNL     1       2.175   7.888  18.864  0.00  0.00    +0.000 A 
ATOM      8  N   UNL     1       1.926   7.723  20.126  0.00  0.00    +0.000 NA
ATOM      9  C   UNL     1       1.104   8.692  20.748  0.00  0.00    +0.000 A 
ATOM     10  C   UNL     1       1.008   8.739  22.139  0.00  0.00    +0.000 A 
ATOM     11  C   UNL     1       0.219   9.714  22.767  0.00  0.00    +0.000 A 
ATOM     12  C   UNL     1      -0.513  10.631  22.009  0.00  0.00    +0.000 A 
ATOM     13  C   UNL     1      -0.446  10.587  20.621  0.00  0.00    +0.000 A 
ATOM     14  C   UNL     1       0.379   9.637  20.014  0.00  0.00    +0.000 A 
ATOM     15  C   UNL     1       0.581   9.654  18.562  0.00  0.00    +0.000 A 
ATOM     16  O   UNL     1      -0.154  10.263  17.796  0.00  0.00    +0.000 OA
ATOM     17  N   UNL     1       1.637   8.913  18.120  0.00  0.00    +0.000 N 
ATOM     18  H   UNL     1       1.771   8.939  17.119  0.00  0.00    +0.000 HD
ENDBRANCH   3   7
BRANCH   6  19
ATOM     19  O   UNL     1       5.561   4.021  16.634  0.00  0.00    +0.000 OA
ATOM     20  C   UNL     1       5.881   3.827  15.269  0.00  0.00    +0.000 C 
ENDBRANCH   6  19
BRANCH   1  21
ATOM     21  O   UNL     1       6.294   6.886  16.404  0.00  0.00    +0.000 OA
BRANCH  21  22
ATOM     22  C   UNL     1       7.252   7.426  17.323  0.00  0.00    +0.000 C 
BRANCH  22  24
ATOM     23  C   UNL     1       7.888   5.702  19.260  0.00  0.00    +0.000 C 
ATOM     24  C   UNL     1       7.620   6.436  18.348  0.00  0.00    +0.000 C 
ENDBRANCH  22  24
ENDBRANCH  21  22
ENDBRANCH   1  21
TORSDOF 5
ENDMDL
MODEL 6
REMARK VINA RESULT:      -7.6      0.724      1.088
REMARK  Name = 
REMARK  6 active torsions:
REMARK  status: ('A' for Active; 'I' for Inactive)
REMARK    1  A    between atoms: C_2  and  C_3
REMARK    2  A    between atoms: C_3  and  O_4
REMARK    3  A    between atoms: O_4  and  C_5
REMARK    4  A    between atoms: C_7  and  C_8
REMARK    5  A    between atoms: C_21  and  O_22
REMARK    6  A    between atoms: O_22  and  C_23
REMARK                            x       y       z     vdW  Elec       q    Type
REMARK                         _______ _______ _______ _____ _____    ______ ____
ROOT
ATOM      1  C   UNL     1       6.940   5.863  16.111  0.00  0.00    +0.000 A 
ATOM      2  C   UNL     1       5.930   5.529  17.028  0.00  0.00    +0.000 A 
ATOM      3  C   UNL     1       5.092   4.429  16.797  0.00  0.00    +0.000 A 
ATOM      4  C   UNL     1       5.180   3.712  15.605  0.00  0.00    +0.000 A 
ATOM      5  C   UNL     1       6.155   4.062  14.677  0.00  0.00    +0.000 A 
ATOM      6  C   UNL     1       7.057   5.112  14.922  0.00  0.00    +0.000 A 
ENDROOT
BRANCH   3   7
ATOM      7  C   UNL     1       4.275   3.901  17.910  0.00  0.00    +0.000 A 
ATOM      8  N   UNL     1       3.154   4.432  18.289  0.00  0.00    +0.000 NA
ATOM      9  C   UNL     1       2.510   3.840  19.402  0.00  0.00    +0.000 A 
ATOM     10  C   UNL     1       1.189   4.172  19.704  0.00  0.00    +0.000 A 
ATOM     11  C   UNL     1       0.533   3.569  20.787  0.00  0.00    +0.000 A 
ATOM     12  C   UNL     1       1.202   2.655  21.604  0.00  0.00    +0.000 A 
ATOM     13  C   UNL     1       2.525   2.327  21.330  0.00  0.00    +0.000 A 
ATOM     14  C   UNL     1       3.149   2.904  20.222  0.00  0.00    +0.000 A 
ATOM     15  C   UNL     1       4.494   2.474  19.825  0.00  0.00    +0.000 A 
ATOM     16  O   UNL     1       5.238   1.850  20.569  0.00  0.00    +0.000 OA
ATOM     17  N   UNL     1       4.869   2.850  18.568  0.00  0.00    +0.000 N 
ATOM     18  H   UNL     1       5.794   2.541  18.303  0.00  0.00    +0.000 HD
ENDBRANCH   3   7
BRANCH   6  19
ATOM     19  O   UNL     1       7.967   5.212  13.905  0.00  0.00    +0.000 OA
ATOM     20  C   UNL     1       7.537   5.123  12.560  0.00  0.00    +0.000 C 
ENDBRANCH   6  19
BRANCH   1  21
ATOM     21  O   UNL     1       7.809   6.909  16.333  0.00  0.00    +0.000 OA
BRANCH  21  22
ATOM     22  C   UNL     1       7.683   7.562  17.603  0.00  0.00    +0.000 C 
BRANCH  22  24
ATOM     23  C   UNL     1       8.158   5.901  19.638  0.00  0.00    +0.000 C 
ATOM     24  C   UNL     1       8.003   6.642  18.706  0.00  0.00    +0.000 C 
ENDBRANCH  22  24
ENDBRANCH  21  22
ENDBRANCH   1  21
TORSDOF 5
ENDMDL
MODEL 7
REMARK VINA RESULT:      -7.5      4.137      6.092
REMARK  Name = 
REMARK  6 active torsions:
REMARK  status: ('A' for Active; 'I' for Inactive)
REMARK    1  A    between atoms: C_2  and  C_3
REMARK    2  A    between atoms: C_3  and  O_4
REMARK    3  A    between atoms: O_4  and  C_5
REMARK    4  A    between atoms: C_7  and  C_8
REMARK    5  A    between atoms: C_21  and  O_22
REMARK    6  A    between atoms: O_22  and  C_23
REMARK                            x       y       z     vdW  Elec       q    Type
REMARK                         _______ _______ _______ _____ _____    ______ ____
ROOT
ATOM      1  C   UNL     1       4.597   4.669  19.350  0.00  0.00    +0.000 A 
ATOM      2  C   UNL     1       3.933   5.906  19.404  0.00  0.00    +0.000 A 
ATOM      3  C   UNL     1       2.548   5.964  19.621  0.00  0.00    +0.000 A 
ATOM      4  C   UNL     1       1.795   4.793  19.684  0.00  0.00    +0.000 A 
ATOM      5  C   UNL     1       2.443   3.566  19.595  0.00  0.00    +0.000 A 
ATOM      6  C   UNL     1       3.839   3.484  19.455  0.00  0.00    +0.000 A 
ENDROOT
BRANCH   3   7
ATOM      7  C   UNL     1       1.934   7.252  20.003  0.00  0.00    +0.000 A 
ATOM      8  N   UNL     1       1.239   7.422  21.085  0.00  0.00    +0.000 NA
ATOM      9  C   UNL     1       0.676   8.704  21.289  0.00  0.00    +0.000 A 
ATOM     10  C   UNL     1       0.150   9.046  22.535  0.00  0.00    +0.000 A 
ATOM     11  C   UNL     1      -0.384  10.324  22.756  0.00  0.00    +0.000 A 
ATOM     12  C   UNL     1      -0.432  11.262  21.723  0.00  0.00    +0.000 A 
ATOM     13  C   UNL     1       0.069  10.932  20.469  0.00  0.00    +0.000 A 
ATOM     14  C   UNL     1       0.637   9.670  20.279  0.00  0.00    +0.000 A 
ATOM     15  C   UNL     1       1.300   9.342  19.013  0.00  0.00    +0.000 A 
ATOM     16  O   UNL     1       1.138   9.994  17.990  0.00  0.00    +0.000 OA
ATOM     17  N   UNL     1       2.091   8.231  19.049  0.00  0.00    +0.000 N 
ATOM     18  H   UNL     1       2.548   8.020  18.173  0.00  0.00    +0.000 HD
ENDBRANCH   3   7
BRANCH   6  19
ATOM     19  O   UNL     1       4.249   2.177  19.470  0.00  0.00    +0.000 OA
ATOM     20  C   UNL     1       3.745   1.268  18.510  0.00  0.00    +0.000 C 
ENDBRANCH   6  19
BRANCH   1  21
ATOM     21  O   UNL     1       5.962   4.582  19.185  0.00  0.00    +0.000 OA
BRANCH  21  22
ATOM     22  C   UNL     1       6.440   4.773  17.847  0.00  0.00    +0.000 C 
BRANCH  22  24
ATOM     23  C   UNL     1       7.577   7.183  17.678  0.00  0.00    +0.000 C 
ATOM     24  C   UNL     1       7.086   6.086  17.698  0.00  0.00    +0.000 C 
ENDBRANCH  22  24
ENDBRANCH  21  22
ENDBRANCH   1  21
TORSDOF 5
ENDMDL
MODEL 8
REMARK VINA RESULT:      -7.5      2.398      7.107
REMARK  Name = 
REMARK  6 active torsions:
REMARK  status: ('A' for Active; 'I' for Inactive)
REMARK    1  A    between atoms: C_2  and  C_3
REMARK    2  A    between atoms: C_3  and  O_4
REMARK    3  A    between atoms: O_4  and  C_5
REMARK    4  A    between atoms: C_7  and  C_8
REMARK    5  A    between atoms: C_21  and  O_22
REMARK    6  A    between atoms: O_22  and  C_23
REMARK                            x       y       z     vdW  Elec       q    Type
REMARK                         _______ _______ _______ _____ _____    ______ ____
ROOT
ATOM      1  C   UNL     1       2.782   4.828  19.521  0.00  0.00    +0.000 A 
ATOM      2  C   UNL     1       3.810   5.011  18.581  0.00  0.00    +0.000 A 
ATOM      3  C   UNL     1       4.118   4.002  17.657  0.00  0.00    +0.000 A 
ATOM      4  C   UNL     1       3.481   2.765  17.724  0.00  0.00    +0.000 A 
ATOM      5  C   UNL     1       2.487   2.567  18.676  0.00  0.00    +0.000 A 
ATOM      6  C   UNL     1       2.107   3.590  19.562  0.00  0.00    +0.000 A 
ENDROOT
BRANCH   3   7
ATOM      7  C   UNL     1       4.955   4.334  16.484  0.00  0.00    +0.000 A 
ATOM      8  N   UNL     1       5.026   3.593  15.423  0.00  0.00    +0.000 NA
ATOM      9  C   UNL     1       5.908   4.021  14.402  0.00  0.00    +0.000 A 
ATOM     10  C   UNL     1       5.845   3.439  13.135  0.00  0.00    +0.000 A 
ATOM     11  C   UNL     1       6.695   3.876  12.108  0.00  0.00    +0.000 A 
ATOM     12  C   UNL     1       7.643   4.874  12.346  0.00  0.00    +0.000 A 
ATOM     13  C   UNL     1       7.733   5.451  13.608  0.00  0.00    +0.000 A 
ATOM     14  C   UNL     1       6.850   5.034  14.607  0.00  0.00    +0.000 A 
ATOM     15  C   UNL     1       6.824   5.719  15.903  0.00  0.00    +0.000 A 
ATOM     16  O   UNL     1       7.729   6.448  16.286  0.00  0.00    +0.000 OA
ATOM     17  N   UNL     1       5.727   5.458  16.669  0.00  0.00    +0.000 N 
ATOM     18  H   UNL     1       5.717   5.942  17.556  0.00  0.00    +0.000 HD
ENDBRANCH   3   7
BRANCH   6  19
ATOM     19  O   UNL     1       1.061   3.184  20.346  0.00  0.00    +0.000 OA
ATOM     20  C   UNL     1       1.309   2.637  21.628  0.00  0.00    +0.000 C 
ENDBRANCH   6  19
BRANCH   1  21
ATOM     21  O   UNL     1       2.423   5.818  20.410  0.00  0.00    +0.000 OA
BRANCH  21  22
ATOM     22  C   UNL     1       2.166   7.106  19.836  0.00  0.00    +0.000 C 
BRANCH  22  24
ATOM     23  C   UNL     1       0.948   8.789  21.512  0.00  0.00    +0.000 C 
ATOM     24  C   UNL     1       1.479   7.986  20.794  0.00  0.00    +0.000 C 
ENDBRANCH  22  24
ENDBRANCH  21  22
ENDBRANCH   1  21
TORSDOF 5
ENDMDL
MODEL 9
REMARK VINA RESULT:      -7.4      5.657      7.841
REMARK  Name = 
REMARK  6 active torsions:
REMARK  status: ('A' for Active; 'I' for Inactive)
REMARK    1  A    between atoms: C_2  and  C_3
REMARK    2  A    between atoms: C_3  and  O_4
REMARK    3  A    between atoms: O_4  and  C_5
REMARK    4  A    between atoms: C_7  and  C_8
REMARK    5  A    between atoms: C_21  and  O_22
REMARK    6  A    between atoms: O_22  and  C_23
REMARK                            x       y       z     vdW  Elec       q    Type
REMARK                         _______ _______ _______ _____ _____    ______ ____
ROOT
ATOM      1  C   UNL     1       2.563   5.628  19.962  0.00  0.00    +0.000 A 
ATOM      2  C   UNL     1       1.953   6.693  20.646  0.00  0.00    +0.000 A 
ATOM      3  C   UNL     1       1.738   7.922  20.005  0.00  0.00    +0.000 A 
ATOM      4  C   UNL     1       2.218   8.139  18.715  0.00  0.00    +0.000 A 
ATOM      5  C   UNL     1       2.855   7.098  18.047  0.00  0.00    +0.000 A 
ATOM      6  C   UNL     1       3.012   5.834  18.641  0.00  0.00    +0.000 A 
ENDROOT
BRANCH   3   7
ATOM      7  C   UNL     1       0.812   8.898  20.616  0.00  0.00    +0.000 A 
ATOM      8  N   UNL     1       0.296   9.897  19.970  0.00  0.00    +0.000 NA
ATOM      9  C   UNL     1      -0.538  10.773  20.706  0.00  0.00    +0.000 A 
ATOM     10  C   UNL     1      -1.337  11.702  20.040  0.00  0.00    +0.000 A 
ATOM     11  C   UNL     1      -2.188  12.555  20.759  0.00  0.00    +0.000 A 
ATOM     12  C   UNL     1      -2.222  12.514  22.154  0.00  0.00    +0.000 A 
ATOM     13  C   UNL     1      -1.417  11.607  22.836  0.00  0.00    +0.000 A 
ATOM     14  C   UNL     1      -0.609  10.736  22.103  0.00  0.00    +0.000 A 
ATOM     15  C   UNL     1       0.143   9.677  22.784  0.00  0.00    +0.000 A 
ATOM     16  O   UNL     1       0.349   9.679  23.990  0.00  0.00    +0.000 OA
ATOM     17  N   UNL     1       0.627   8.699  21.965  0.00  0.00    +0.000 N 
ATOM     18  H   UNL     1       1.137   7.971  22.446  0.00  0.00    +0.000 HD
ENDBRANCH   3   7
BRANCH   6  19
ATOM     19  O   UNL     1       3.593   4.959  17.763  0.00  0.00    +0.000 OA
ATOM     20  C   UNL     1       4.988   4.724  17.818  0.00  0.00    +0.000 C 
ENDBRANCH   6  19
BRANCH   1  21
ATOM     21  O   UNL     1       2.746   4.395  20.549  0.00  0.00    +0.000 OA
BRANCH  21  22
ATOM     22  C   UNL     1       1.547   3.691  20.901  0.00  0.00    +0.000 C 
BRANCH  22  24
ATOM     23  C   UNL     1       0.655   2.347  18.774  0.00  0.00    +0.000 C 
ATOM     24  C   UNL     1       1.043   2.903  19.765  0.00  0.00    +0.000 C 
ENDBRANCH  22  24
ENDBRANCH  21  22
ENDBRANCH   1  21
TORSDOF 5
ENDMDL
