MODEL 1
REMARK VINA RESULT:      -9.2      0.000      0.000
REMARK  Name = 
REMARK  5 active torsions:
REMARK  status: ('A' for Active; 'I' for Inactive)
REMARK    1  A    between atoms: N_7  and  C_8
REMARK    2  A    between atoms: C_8  and  C_9
REMARK    3  A    between atoms: C_9  and  C_10
REMARK    4  A    between atoms: N_23  and  C_24
REMARK    5  A    between atoms: C_24  and  C_25
REMARK                            x       y       z     vdW  Elec       q    Type
REMARK                         _______ _______ _______ _____ _____    ______ ____
ROOT
ATOM      1  O   UNL     1       0.984   8.674  21.234  0.00  0.00    +0.000 OA
ATOM      2  C   UNL     1       1.532   8.325  20.203  0.00  0.00    +0.000 C 
ATOM      3  O   UNL     1       1.934   7.044  19.958  0.00  0.00    +0.000 OA
ATOM      4  C   UNL     1       2.504   6.949  18.633  0.00  0.00    +0.000 C 
ATOM      5  C   UNL     1       1.612   6.043  17.764  0.00  0.00    +0.000 C 
ATOM      6  C   UNL     1       1.719   4.568  18.162  0.00  0.00    +0.000 C 
ATOM      7  N   UNL     1       3.105   4.082  18.239  0.00  0.00    +0.000 NA
ATOM      8  C   UNL     1       3.858   4.906  19.195  0.00  0.00    +0.000 C 
ATOM      9  C   UNL     1       3.916   6.381  18.790  0.00  0.00    +0.000 C 
ATOM     10  C   UNL     1       2.504   8.379  18.103  0.00  0.00    +0.000 C 
ATOM     11  N   UNL     1       1.807   9.106  19.117  0.00  0.00    +0.000 N 
ENDROOT
BRANCH   7  12
ATOM     12  C   UNL     1       3.728   3.982  16.904  0.00  0.00    +0.000 C 
BRANCH  12  13
ATOM     13  C   UNL     1       5.159   3.416  16.917  0.00  0.00    +0.000 C 
BRANCH  13  14
ATOM     14  C   UNL     1       6.084   4.213  16.048  0.00  0.00    +0.000 A 
ATOM     15  C   UNL     1       6.920   5.230  16.463  0.00  0.00    +0.000 A 
ATOM     16  N   UNL     1       7.594   5.702  15.372  0.00  0.00    +0.000 N 
ATOM     17  C   UNL     1       7.217   5.011  14.242  0.00  0.00    +0.000 A 
ATOM     18  C   UNL     1       7.642   5.160  12.915  0.00  0.00    +0.000 A 
ATOM     19  C   UNL     1       7.079   4.309  11.957  0.00  0.00    +0.000 A 
ATOM     20  C   UNL     1       6.136   3.361  12.330  0.00  0.00    +0.000 A 
ATOM     21  F   UNL     1       5.615   2.557  11.392  0.00  0.00    +0.000 F 
ATOM     22  C   UNL     1       5.717   3.219  13.651  0.00  0.00    +0.000 A 
ATOM     23  C   UNL     1       6.272   4.065  14.634  0.00  0.00    +0.000 A 
ATOM     24  H   UNL     1       8.266   6.453  15.387  0.00  0.00    +0.000 HD
ENDBRANCH  13  14
ENDBRANCH  12  13
ENDBRANCH   7  12
BRANCH  11  25
ATOM     25  C   UNL     1       1.260  10.430  18.919  0.00  0.00    +0.000 C 
BRANCH  25  26
ATOM     26  C   UNL     1      -0.222  10.471  18.620  0.00  0.00    +0.000 A 
ATOM     27  C   UNL     1      -0.677   9.707  17.529  0.00  0.00    +0.000 A 
ATOM     28  C   UNL     1      -1.993   9.787  17.098  0.00  0.00    +0.000 A 
ATOM     29  C   UNL     1      -2.890  10.619  17.766  0.00  0.00    +0.000 A 
ATOM     30  C   UNL     1      -2.485  11.358  18.886  0.00  0.00    +0.000 A 
ATOM     31  C   UNL     1      -3.416  12.172  19.554  0.00  0.00    +0.000 A 
ATOM     32  C   UNL     1      -3.049  12.912  20.675  0.00  0.00    +0.000 A 
ATOM     33  C   UNL     1      -1.742  12.855  21.137  0.00  0.00    +0.000 A 
ATOM     34  C   UNL     1      -0.800  12.065  20.473  0.00  0.00    +0.000 A 
ATOM     35  C   UNL     1      -1.141  11.291  19.337  0.00  0.00    +0.000 A 
ENDBRANCH  25  26
ENDBRANCH  11  25
TORSDOF 5
ENDMDL
MODEL 2
REMARK VINA RESULT:      -8.2      6.181      8.730
REMARK  Name = 
REMARK  5 active torsions:
REMARK  status: ('A' for Active; 'I' for Inactive)
REMARK    1  A    between atoms: N_7  and  C_8
REMARK    2  A    between atoms: C_8  and  C_9
REMARK    3  A    between atoms: C_9  and  C_10
REMARK    4  A    between atoms: N_23  and  C_24
REMARK    5  A    between atoms: C_24  and  C_25
REMARK                            x       y       z     vdW  Elec       q    Type
REMARK                         _______ _______ _______ _____ _____    ______ ____
ROOT
ATOM      1  O   UNL     1      -0.186  15.383  19.843  0.00  0.00    +0.000 OA
ATOM      2  C   UNL     1       0.900  14.834  19.804  0.00  0.00    +0.000 C 
ATOM      3  O   UNL     1       2.054  15.410  20.252  0.00  0.00    +0.000 OA
ATOM      4  C   UNL     1       3.157  14.487  20.111  0.00  0.00    +0.000 C 
ATOM      5  C   UNL     1       3.682  14.111  21.508  0.00  0.00    +0.000 C 
ATOM      6  C   UNL     1       4.437  15.264  22.176  0.00  0.00    +0.000 C 
ATOM      7  N   UNL     1       5.484  15.849  21.322  0.00  0.00    +0.000 NA
ATOM      8  C   UNL     1       4.883  16.315  20.065  0.00  0.00    +0.000 C 
ATOM      9  C   UNL     1       4.225  15.186  19.268  0.00  0.00    +0.000 C 
ATOM     10  C   UNL     1       2.561  13.270  19.410  0.00  0.00    +0.000 C 
ATOM     11  N   UNL     1       1.165  13.571  19.359  0.00  0.00    +0.000 N 
ENDROOT
BRANCH   7  12
ATOM     12  C   UNL     1       6.625  14.929  21.144  0.00  0.00    +0.000 C 
BRANCH  12  13
ATOM     13  C   UNL     1       7.695  15.437  20.161  0.00  0.00    +0.000 C 
BRANCH  13  14
ATOM     14  C   UNL     1       8.026  14.415  19.116  0.00  0.00    +0.000 A 
ATOM     15  C   UNL     1       7.355  14.218  17.925  0.00  0.00    +0.000 A 
ATOM     16  N   UNL     1       7.962  13.193  17.257  0.00  0.00    +0.000 N 
ATOM     17  C   UNL     1       9.027  12.711  17.986  0.00  0.00    +0.000 A 
ATOM     18  C   UNL     1       9.920  11.672  17.691  0.00  0.00    +0.000 A 
ATOM     19  C   UNL     1      10.919  11.394  18.631  0.00  0.00    +0.000 A 
ATOM     20  C   UNL     1      11.002  12.131  19.804  0.00  0.00    +0.000 A 
ATOM     21  F   UNL     1      11.971  11.845  20.686  0.00  0.00    +0.000 F 
ATOM     22  C   UNL     1      10.110  13.162  20.091  0.00  0.00    +0.000 A 
ATOM     23  C   UNL     1       9.095  13.462  19.158  0.00  0.00    +0.000 A 
ATOM     24  H   UNL     1       7.672  12.834  16.361  0.00  0.00    +0.000 HD
ENDBRANCH  13  14
ENDBRANCH  12  13
ENDBRANCH   7  12
BRANCH  11  25
ATOM     25  C   UNL     1       0.144  12.582  19.090  0.00  0.00    +0.000 C 
BRANCH  25  26
ATOM     26  C   UNL     1       0.242  11.322  19.921  0.00  0.00    +0.000 A 
ATOM     27  C   UNL     1      -0.310  11.362  21.215  0.00  0.00    +0.000 A 
ATOM     28  C   UNL     1      -0.149  10.302  22.095  0.00  0.00    +0.000 A 
ATOM     29  C   UNL     1       0.549   9.166  21.690  0.00  0.00    +0.000 A 
ATOM     30  C   UNL     1       1.071   9.070  20.392  0.00  0.00    +0.000 A 
ATOM     31  C   UNL     1       1.752   7.904  20.003  0.00  0.00    +0.000 A 
ATOM     32  C   UNL     1       2.275   7.772  18.720  0.00  0.00    +0.000 A 
ATOM     33  C   UNL     1       2.132   8.810  17.810  0.00  0.00    +0.000 A 
ATOM     34  C   UNL     1       1.474   9.983  18.188  0.00  0.00    +0.000 A 
ATOM     35  C   UNL     1       0.921  10.147  19.481  0.00  0.00    +0.000 A 
ENDBRANCH  25  26
ENDBRANCH  11  25
TORSDOF 5
ENDMDL
MODEL 3
REMARK VINA RESULT:      -8.1      6.720      8.141
REMARK  Name = 
REMARK  5 active torsions:
REMARK  status: ('A' for Active; 'I' for Inactive)
REMARK    1  A    between atoms: N_7  and  C_8
REMARK    2  A    between atoms: C_8  and  C_9
REMARK    3  A    between atoms: C_9  and  C_10
REMARK    4  A    between atoms: N_23  and  C_24
REMARK    5  A    between atoms: C_24  and  C_25
REMARK                            x       y       z     vdW  Elec       q    Type
REMARK                         _______ _______ _______ _____ _____    ______ ____
ROOT
ATOM      1  O   UNL     1      -0.814  14.958  19.973  0.00  0.00    +0.000 OA
ATOM      2  C   UNL     1       0.245  14.415  19.715  0.00  0.00    +0.000 C 
ATOM      3  O   UNL     1       1.387  15.096  19.406  0.00  0.00    +0.000 OA
ATOM      4  C   UNL     1       2.476  14.168  19.199  0.00  0.00    +0.000 C 
ATOM      5  C   UNL     1       3.536  14.380  20.296  0.00  0.00    +0.000 C 
ATOM      6  C   UNL     1       4.313  15.686  20.109  0.00  0.00    +0.000 C 
ATOM      7  N   UNL     1       4.868  15.848  18.756  0.00  0.00    +0.000 NA
ATOM      8  C   UNL     1       3.779  15.777  17.771  0.00  0.00    +0.000 C 
ATOM      9  C   UNL     1       3.038  14.438  17.801  0.00  0.00    +0.000 C 
ATOM     10  C   UNL     1       1.841  12.786  19.318  0.00  0.00    +0.000 C 
ATOM     11  N   UNL     1       0.501  13.073  19.720  0.00  0.00    +0.000 N 
ENDROOT
BRANCH   7  12
ATOM     12  C   UNL     1       5.977  14.907  18.500  0.00  0.00    +0.000 C 
BRANCH  12  13
ATOM     13  C   UNL     1       7.252  15.202  19.310  0.00  0.00    +0.000 C 
BRANCH  13  14
ATOM     14  C   UNL     1       8.494  14.953  18.511  0.00  0.00    +0.000 A 
ATOM     15  C   UNL     1       9.148  15.869  17.711  0.00  0.00    +0.000 A 
ATOM     16  N   UNL     1      10.233  15.252  17.153  0.00  0.00    +0.000 N 
ATOM     17  C   UNL     1      10.307  13.942  17.574  0.00  0.00    +0.000 A 
ATOM     18  C   UNL     1      11.241  12.948  17.254  0.00  0.00    +0.000 A 
ATOM     19  C   UNL     1      11.066  11.687  17.835  0.00  0.00    +0.000 A 
ATOM     20  C   UNL     1       9.999  11.452  18.691  0.00  0.00    +0.000 A 
ATOM     21  F   UNL     1       9.857  10.235  19.236  0.00  0.00    +0.000 F 
ATOM     22  C   UNL     1       9.074  12.445  19.004  0.00  0.00    +0.000 A 
ATOM     23  C   UNL     1       9.230  13.725  18.432  0.00  0.00    +0.000 A 
ATOM     24  H   UNL     1      10.883  15.688  16.519  0.00  0.00    +0.000 HD
ENDBRANCH  13  14
ENDBRANCH  12  13
ENDBRANCH   7  12
BRANCH  11  25
ATOM     25  C   UNL     1      -0.394  12.086  20.283  0.00  0.00    +0.000 C 
BRANCH  25  26
ATOM     26  C   UNL     1      -1.353  11.458  19.296  0.00  0.00    +0.000 A 
ATOM     27  C   UNL     1      -0.814  10.545  18.370  0.00  0.00    +0.000 A 
ATOM     28  C   UNL     1      -1.589  10.023  17.345  0.00  0.00    +0.000 A 
ATOM     29  C   UNL     1      -2.930  10.386  17.239  0.00  0.00    +0.000 A 
ATOM     30  C   UNL     1      -3.514  11.254  18.170  0.00  0.00    +0.000 A 
ATOM     31  C   UNL     1      -4.875  11.587  18.052  0.00  0.00    +0.000 A 
ATOM     32  C   UNL     1      -5.489  12.440  18.965  0.00  0.00    +0.000 A 
ATOM     33  C   UNL     1      -4.746  12.980  20.006  0.00  0.00    +0.000 A 
ATOM     34  C   UNL     1      -3.388  12.674  20.126  0.00  0.00    +0.000 A 
ATOM     35  C   UNL     1      -2.734  11.802  19.222  0.00  0.00    +0.000 A 
ENDBRANCH  25  26
ENDBRANCH  11  25
TORSDOF 5
ENDMDL
MODEL 4
REMARK VINA RESULT:      -8.1      4.754      9.534
REMARK  Name = 
REMARK  5 active torsions:
REMARK  status: ('A' for Active; 'I' for Inactive)
REMARK    1  A    between atoms: N_7  and  C_8
REMARK    2  A    between atoms: C_8  and  C_9
REMARK    3  A    between atoms: C_9  and  C_10
REMARK    4  A    between atoms: N_23  and  C_24
REMARK    5  A    between atoms: C_24  and  C_25
REMARK                            x       y       z     vdW  Elec       q    Type
REMARK                         _______ _______ _______ _____ _____    ______ ____
ROOT
ATOM      1  O   UNL     1      -0.751   7.988  21.981  0.00  0.00    +0.000 OA
ATOM      2  C   UNL     1      -0.211   8.739  21.187  0.00  0.00    +0.000 C 
ATOM      3  O   UNL     1      -0.718   9.956  20.835  0.00  0.00    +0.000 OA
ATOM      4  C   UNL     1       0.179  10.619  19.915  0.00  0.00    +0.000 C 
ATOM      5  C   UNL     1       0.745  11.884  20.586  0.00  0.00    +0.000 C 
ATOM      6  C   UNL     1      -0.305  12.992  20.716  0.00  0.00    +0.000 C 
ATOM      7  N   UNL     1      -0.999  13.290  19.454  0.00  0.00    +0.000 NA
ATOM      8  C   UNL     1      -1.635  12.066  18.947  0.00  0.00    +0.000 C 
ATOM      9  C   UNL     1      -0.628  10.950  18.658  0.00  0.00    +0.000 C 
ATOM     10  C   UNL     1       1.287   9.604  19.649  0.00  0.00    +0.000 C 
ATOM     11  N   UNL     1       0.980   8.538  20.550  0.00  0.00    +0.000 N 
ENDROOT
BRANCH   7  12
ATOM     12  C   UNL     1      -0.111  13.958  18.482  0.00  0.00    +0.000 C 
BRANCH  12  13
ATOM     13  C   UNL     1       0.871  14.961  19.112  0.00  0.00    +0.000 C 
BRANCH  13  14
ATOM     14  C   UNL     1       2.283  14.714  18.673  0.00  0.00    +0.000 A 
ATOM     15  C   UNL     1       2.729  13.643  17.924  0.00  0.00    +0.000 A 
ATOM     16  N   UNL     1       4.076  13.782  17.740  0.00  0.00    +0.000 N 
ATOM     17  C   UNL     1       4.527  14.930  18.354  0.00  0.00    +0.000 A 
ATOM     18  C   UNL     1       5.822  15.460  18.427  0.00  0.00    +0.000 A 
ATOM     19  C   UNL     1       5.989  16.658  19.131  0.00  0.00    +0.000 A 
ATOM     20  C   UNL     1       4.901  17.280  19.727  0.00  0.00    +0.000 A 
ATOM     21  F   UNL     1       5.091  18.429  20.392  0.00  0.00    +0.000 F 
ATOM     22  C   UNL     1       3.616  16.746  19.651  0.00  0.00    +0.000 A 
ATOM     23  C   UNL     1       3.422  15.540  18.946  0.00  0.00    +0.000 A 
ATOM     24  H   UNL     1       4.661  13.136  17.234  0.00  0.00    +0.000 HD
ENDBRANCH  13  14
ENDBRANCH  12  13
ENDBRANCH   7  12
BRANCH  11  25
ATOM     25  C   UNL     1       1.920   7.500  20.910  0.00  0.00    +0.000 C 
BRANCH  25  26
ATOM     26  C   UNL     1       2.365   6.617  19.765  0.00  0.00    +0.000 A 
ATOM     27  C   UNL     1       3.182   7.206  18.782  0.00  0.00    +0.000 A 
ATOM     28  C   UNL     1       3.527   6.514  17.629  0.00  0.00    +0.000 A 
ATOM     29  C   UNL     1       3.081   5.207  17.448  0.00  0.00    +0.000 A 
ATOM     30  C   UNL     1       2.306   4.571  18.428  0.00  0.00    +0.000 A 
ATOM     31  C   UNL     1       1.887   3.244  18.228  0.00  0.00    +0.000 A 
ATOM     32  C   UNL     1       1.124   2.580  19.185  0.00  0.00    +0.000 A 
ATOM     33  C   UNL     1       0.761   3.238  20.351  0.00  0.00    +0.000 A 
ATOM     34  C   UNL     1       1.153   4.564  20.556  0.00  0.00    +0.000 A 
ATOM     35  C   UNL     1       1.939   5.266  19.609  0.00  0.00    +0.000 A 
ENDBRANCH  25  26
ENDBRANCH  11  25
TORSDOF 5
ENDMDL
MODEL 5
REMARK VINA RESULT:      -8.0      1.451      2.163
REMARK  Name = 
REMARK  5 active torsions:
REMARK  status: ('A' for Active; 'I' for Inactive)
REMARK    1  A    between atoms: N_7  and  C_8
REMARK    2  A    between atoms: C_8  and  C_9
REMARK    3  A    between atoms: C_9  and  C_10
REMARK    4  A    between atoms: N_23  and  C_24
REMARK    5  A    between atoms: C_24  and  C_25
REMARK                            x       y       z     vdW  Elec       q    Type
REMARK                         _______ _______ _______ _____ _____    ______ ____
ROOT
ATOM      1  O   UNL     1       1.462   8.661  21.224  0.00  0.00    +0.000 OA
ATOM      2  C   UNL     1       1.834   8.154  20.180  0.00  0.00    +0.000 C 
ATOM      3  O   UNL     1       2.547   6.992  20.117  0.00  0.00    +0.000 OA
ATOM      4  C   UNL     1       2.790   6.635  18.738  0.00  0.00    +0.000 C 
ATOM      5  C   UNL     1       2.050   5.323  18.418  0.00  0.00    +0.000 C 
ATOM      6  C   UNL     1       2.703   4.109  19.084  0.00  0.00    +0.000 C 
ATOM      7  N   UNL     1       4.149   4.011  18.832  0.00  0.00    +0.000 NA
ATOM      8  C   UNL     1       4.808   5.241  19.294  0.00  0.00    +0.000 C 
ATOM      9  C   UNL     1       4.304   6.492  18.570  0.00  0.00    +0.000 C 
ATOM     10  C   UNL     1       2.218   7.793  17.927  0.00  0.00    +0.000 C 
ATOM     11  N   UNL     1       1.587   8.608  18.916  0.00  0.00    +0.000 N 
ENDROOT
BRANCH   7  12
ATOM     12  C   UNL     1       4.440   3.659  17.428  0.00  0.00    +0.000 C 
BRANCH  12  13
ATOM     13  C   UNL     1       4.375   4.848  16.454  0.00  0.00    +0.000 C 
BRANCH  13  14
ATOM     14  C   UNL     1       5.617   4.960  15.623  0.00  0.00    +0.000 A 
ATOM     15  C   UNL     1       6.783   5.607  15.982  0.00  0.00    +0.000 A 
ATOM     16  N   UNL     1       7.674   5.485  14.953  0.00  0.00    +0.000 N 
ATOM     17  C   UNL     1       7.115   4.765  13.920  0.00  0.00    +0.000 A 
ATOM     18  C   UNL     1       7.658   4.407  12.679  0.00  0.00    +0.000 A 
ATOM     19  C   UNL     1       6.849   3.664  11.811  0.00  0.00    +0.000 A 
ATOM     20  C   UNL     1       5.561   3.309  12.185  0.00  0.00    +0.000 A 
ATOM     21  F   UNL     1       4.809   2.595  11.335  0.00  0.00    +0.000 F 
ATOM     22  C   UNL     1       5.027   3.670  13.420  0.00  0.00    +0.000 A 
ATOM     23  C   UNL     1       5.824   4.418  14.313  0.00  0.00    +0.000 A 
ATOM     24  H   UNL     1       8.604   5.872  14.944  0.00  0.00    +0.000 HD
ENDBRANCH  13  14
ENDBRANCH  12  13
ENDBRANCH   7  12
BRANCH  11  25
ATOM     25  C   UNL     1       0.623   9.640  18.606  0.00  0.00    +0.000 C 
BRANCH  25  26
ATOM     26  C   UNL     1       1.083  11.051  18.895  0.00  0.00    +0.000 A 
ATOM     27  C   UNL     1       2.100  11.575  18.076  0.00  0.00    +0.000 A 
ATOM     28  C   UNL     1       2.678  12.806  18.350  0.00  0.00    +0.000 A 
ATOM     29  C   UNL     1       2.232  13.552  19.439  0.00  0.00    +0.000 A 
ATOM     30  C   UNL     1       1.188  13.085  20.250  0.00  0.00    +0.000 A 
ATOM     31  C   UNL     1       0.744  13.868  21.329  0.00  0.00    +0.000 A 
ATOM     32  C   UNL     1      -0.297  13.437  22.148  0.00  0.00    +0.000 A 
ATOM     33  C   UNL     1      -0.901  12.212  21.904  0.00  0.00    +0.000 A 
ATOM     34  C   UNL     1      -0.458  11.414  20.846  0.00  0.00    +0.000 A 
ATOM     35  C   UNL     1       0.590  11.825  19.987  0.00  0.00    +0.000 A 
ENDBRANCH  25  26
ENDBRANCH  11  25
TORSDOF 5
ENDMDL
MODEL 6
REMARK VINA RESULT:      -8.0      1.549      2.755
REMARK  Name = 
REMARK  5 active torsions:
REMARK  status: ('A' for Active; 'I' for Inactive)
REMARK    1  A    between atoms: N_7  and  C_8
REMARK    2  A    between atoms: C_8  and  C_9
REMARK    3  A    between atoms: C_9  and  C_10
REMARK    4  A    between atoms: N_23  and  C_24
REMARK    5  A    between atoms: C_24  and  C_25
REMARK                            x       y       z     vdW  Elec       q    Type
REMARK                         _______ _______ _______ _____ _____    ______ ____
ROOT
ATOM      1  O   UNL     1       0.881   8.508  21.451  0.00  0.00    +0.000 OA
ATOM      2  C   UNL     1       1.331   8.213  20.359  0.00  0.00    +0.000 C 
ATOM      3  O   UNL     1       2.039   7.071  20.118  0.00  0.00    +0.000 OA
ATOM      4  C   UNL     1       2.390   6.992  18.718  0.00  0.00    +0.000 C 
ATOM      5  C   UNL     1       1.668   5.789  18.083  0.00  0.00    +0.000 C 
ATOM      6  C   UNL     1       2.257   4.450  18.540  0.00  0.00    +0.000 C 
ATOM      7  N   UNL     1       3.718   4.372  18.386  0.00  0.00    +0.000 NA
ATOM      8  C   UNL     1       4.346   5.468  19.136  0.00  0.00    +0.000 C 
ATOM      9  C   UNL     1       3.912   6.850  18.643  0.00  0.00    +0.000 C 
ATOM     10  C   UNL     1       1.894   8.302  18.115  0.00  0.00    +0.000 C 
ATOM     11  N   UNL     1       1.191   8.916  19.197  0.00  0.00    +0.000 N 
ENDROOT
BRANCH   7  12
ATOM     12  C   UNL     1       4.118   4.301  16.967  0.00  0.00    +0.000 C 
BRANCH  12  13
ATOM     13  C   UNL     1       5.434   3.542  16.721  0.00  0.00    +0.000 C 
BRANCH  13  14
ATOM     14  C   UNL     1       6.294   4.226  15.702  0.00  0.00    +0.000 A 
ATOM     15  C   UNL     1       7.218   5.222  15.950  0.00  0.00    +0.000 A 
ATOM     16  N   UNL     1       7.788   5.581  14.761  0.00  0.00    +0.000 N 
ATOM     17  C   UNL     1       7.257   4.837  13.732  0.00  0.00    +0.000 A 
ATOM     18  C   UNL     1       7.539   4.872  12.360  0.00  0.00    +0.000 A 
ATOM     19  C   UNL     1       6.835   3.990  11.533  0.00  0.00    +0.000 A 
ATOM     20  C   UNL     1       5.896   3.123  12.072  0.00  0.00    +0.000 A 
ATOM     21  F   UNL     1       5.237   2.286  11.257  0.00  0.00    +0.000 F 
ATOM     22  C   UNL     1       5.619   3.093  13.438  0.00  0.00    +0.000 A 
ATOM     23  C   UNL     1       6.318   3.972  14.291  0.00  0.00    +0.000 A 
ATOM     24  H   UNL     1       8.492   6.294  14.650  0.00  0.00    +0.000 HD
ENDBRANCH  13  14
ENDBRANCH  12  13
ENDBRANCH   7  12
BRANCH  11  25
ATOM     25  C   UNL     1       0.263  10.012  19.027  0.00  0.00    +0.000 C 
BRANCH  25  26
ATOM     26  C   UNL     1       0.548  11.229  19.880  0.00  0.00    +0.000 A 
ATOM     27  C   UNL     1      -0.204  11.374  21.061  0.00  0.00    +0.000 A 
ATOM     28  C   UNL     1      -0.107  12.522  21.834  0.00  0.00    +0.000 A 
ATOM     29  C   UNL     1       0.763  13.541  21.453  0.00  0.00    +0.000 A 
ATOM     30  C   UNL     1       1.564  13.411  20.310  0.00  0.00    +0.000 A 
ATOM     31  C   UNL     1       2.449  14.445  19.961  0.00  0.00    +0.000 A 
ATOM     32  C   UNL     1       3.265  14.344  18.837  0.00  0.00    +0.000 A 
ATOM     33  C   UNL     1       3.198  13.210  18.041  0.00  0.00    +0.000 A 
ATOM     34  C   UNL     1       2.310  12.181  18.363  0.00  0.00    +0.000 A 
ATOM     35  C   UNL     1       1.473  12.246  19.505  0.00  0.00    +0.000 A 
ENDBRANCH  25  26
ENDBRANCH  11  25
TORSDOF 5
ENDMDL
MODEL 7
REMARK VINA RESULT:      -7.9      6.408      8.544
REMARK  Name = 
REMARK  5 active torsions:
REMARK  status: ('A' for Active; 'I' for Inactive)
REMARK    1  A    between atoms: N_7  and  C_8
REMARK    2  A    between atoms: C_8  and  C_9
REMARK    3  A    between atoms: C_9  and  C_10
REMARK    4  A    between atoms: N_23  and  C_24
REMARK    5  A    between atoms: C_24  and  C_25
REMARK                            x       y       z     vdW  Elec       q    Type
REMARK                         _______ _______ _______ _____ _____    ______ ____
ROOT
ATOM      1  O   UNL     1      -0.784  15.750  18.933  0.00  0.00    +0.000 OA
ATOM      2  C   UNL     1       0.261  15.125  18.888  0.00  0.00    +0.000 C 
ATOM      3  O   UNL     1       1.492  15.704  19.004  0.00  0.00    +0.000 OA
ATOM      4  C   UNL     1       2.522  14.691  18.958  0.00  0.00    +0.000 C 
ATOM      5  C   UNL     1       3.243  14.642  20.318  0.00  0.00    +0.000 C 
ATOM      6  C   UNL     1       4.137  15.864  20.547  0.00  0.00    +0.000 C 
ATOM      7  N   UNL     1       5.061  16.129  19.433  0.00  0.00    +0.000 NA
ATOM      8  C   UNL     1       4.291  16.307  18.194  0.00  0.00    +0.000 C 
ATOM      9  C   UNL     1       3.473  15.068  17.821  0.00  0.00    +0.000 C 
ATOM     10  C   UNL     1       1.777  13.387  18.691  0.00  0.00    +0.000 C 
ATOM     11  N   UNL     1       0.403  13.774  18.758  0.00  0.00    +0.000 N 
ENDROOT
BRANCH   7  12
ATOM     12  C   UNL     1       6.124  15.107  19.345  0.00  0.00    +0.000 C 
BRANCH  12  13
ATOM     13  C   UNL     1       6.664  14.882  17.922  0.00  0.00    +0.000 C 
BRANCH  13  14
ATOM     14  C   UNL     1       8.162  14.853  17.889  0.00  0.00    +0.000 A 
ATOM     15  C   UNL     1       8.998  15.950  17.831  0.00  0.00    +0.000 A 
ATOM     16  N   UNL     1      10.289  15.502  17.814  0.00  0.00    +0.000 N 
ATOM     17  C   UNL     1      10.319  14.126  17.863  0.00  0.00    +0.000 A 
ATOM     18  C   UNL     1      11.414  13.251  17.861  0.00  0.00    +0.000 A 
ATOM     19  C   UNL     1      11.143  11.880  17.916  0.00  0.00    +0.000 A 
ATOM     20  C   UNL     1       9.833  11.425  17.968  0.00  0.00    +0.000 A 
ATOM     21  F   UNL     1       9.603  10.105  18.023  0.00  0.00    +0.000 F 
ATOM     22  C   UNL     1       8.749  12.301  17.968  0.00  0.00    +0.000 A 
ATOM     23  C   UNL     1       8.997  13.688  17.915  0.00  0.00    +0.000 A 
ATOM     24  H   UNL     1      11.105  16.092  17.766  0.00  0.00    +0.000 HD
ENDBRANCH  13  14
ENDBRANCH  12  13
ENDBRANCH   7  12
BRANCH  11  25
ATOM     25  C   UNL     1      -0.685  12.833  18.904  0.00  0.00    +0.000 C 
BRANCH  25  26
ATOM     26  C   UNL     1      -0.928  12.351  20.317  0.00  0.00    +0.000 A 
ATOM     27  C   UNL     1      -1.624  13.219  21.179  0.00  0.00    +0.000 A 
ATOM     28  C   UNL     1      -1.775  12.921  22.526  0.00  0.00    +0.000 A 
ATOM     29  C   UNL     1      -1.252  11.733  23.034  0.00  0.00    +0.000 A 
ATOM     30  C   UNL     1      -0.596  10.822  22.195  0.00  0.00    +0.000 A 
ATOM     31  C   UNL     1      -0.097   9.621  22.730  0.00  0.00    +0.000 A 
ATOM     32  C   UNL     1       0.552   8.690  21.924  0.00  0.00    +0.000 A 
ATOM     33  C   UNL     1       0.720   8.952  20.572  0.00  0.00    +0.000 A 
ATOM     34  C   UNL     1       0.247  10.150  20.029  0.00  0.00    +0.000 A 
ATOM     35  C   UNL     1      -0.427  11.114  20.817  0.00  0.00    +0.000 A 
ENDBRANCH  25  26
ENDBRANCH  11  25
TORSDOF 5
ENDMDL
MODEL 8
REMARK VINA RESULT:      -7.8      1.915      3.416
REMARK  Name = 
REMARK  5 active torsions:
REMARK  status: ('A' for Active; 'I' for Inactive)
REMARK    1  A    between atoms: N_7  and  C_8
REMARK    2  A    between atoms: C_8  and  C_9
REMARK    3  A    between atoms: C_9  and  C_10
REMARK    4  A    between atoms: N_23  and  C_24
REMARK    5  A    between atoms: C_24  and  C_25
REMARK                            x       y       z     vdW  Elec       q    Type
REMARK                         _______ _______ _______ _____ _____    ______ ____
ROOT
ATOM      1  O   UNL     1       1.327  12.703  20.402  0.00  0.00    +0.000 OA
ATOM      2  C   UNL     1       0.896  11.682  19.897  0.00  0.00    +0.000 C 
ATOM      3  O   UNL     1       1.667  10.587  19.632  0.00  0.00    +0.000 OA
ATOM      4  C   UNL     1       0.852   9.529  19.079  0.00  0.00    +0.000 C 
ATOM      5  C   UNL     1       0.827   8.345  20.063  0.00  0.00    +0.000 C 
ATOM      6  C   UNL     1       2.164   7.599  20.110  0.00  0.00    +0.000 C 
ATOM      7  N   UNL     1       2.664   7.213  18.781  0.00  0.00    +0.000 NA
ATOM      8  C   UNL     1       2.798   8.413  17.943  0.00  0.00    +0.000 C 
ATOM      9  C   UNL     1       1.469   9.141  17.734  0.00  0.00    +0.000 C 
ATOM     10  C   UNL     1      -0.537  10.142  18.932  0.00  0.00    +0.000 C 
ATOM     11  N   UNL     1      -0.398  11.424  19.546  0.00  0.00    +0.000 N 
ENDROOT
BRANCH   7  12
ATOM     12  C   UNL     1       1.849   6.140  18.177  0.00  0.00    +0.000 C 
BRANCH  12  13
ATOM     13  C   UNL     1       2.425   4.727  18.371  0.00  0.00    +0.000 C 
BRANCH  13  14
ATOM     14  C   UNL     1       3.921   4.736  18.447  0.00  0.00    +0.000 A 
ATOM     15  C   UNL     1       4.680   4.830  19.597  0.00  0.00    +0.000 A 
ATOM     16  N   UNL     1       5.999   4.809  19.242  0.00  0.00    +0.000 N 
ATOM     17  C   UNL     1       6.125   4.699  17.875  0.00  0.00    +0.000 A 
ATOM     18  C   UNL     1       7.278   4.646  17.080  0.00  0.00    +0.000 A 
ATOM     19  C   UNL     1       7.103   4.535  15.696  0.00  0.00    +0.000 A 
ATOM     20  C   UNL     1       5.827   4.482  15.153  0.00  0.00    +0.000 A 
ATOM     21  F   UNL     1       5.689   4.373  13.823  0.00  0.00    +0.000 F 
ATOM     22  C   UNL     1       4.685   4.536  15.949  0.00  0.00    +0.000 A 
ATOM     23  C   UNL     1       4.836   4.647  17.347  0.00  0.00    +0.000 A 
ATOM     24  H   UNL     1       6.772   4.871  19.885  0.00  0.00    +0.000 HD
ENDBRANCH  13  14
ENDBRANCH  12  13
ENDBRANCH   7  12
BRANCH  11  25
ATOM     25  C   UNL     1      -1.519  12.242  19.952  0.00  0.00    +0.000 C 
BRANCH  25  26
ATOM     26  C   UNL     1      -2.799  11.996  19.184  0.00  0.00    +0.000 A 
ATOM     27  C   UNL     1      -2.675  11.522  17.865  0.00  0.00    +0.000 A 
ATOM     28  C   UNL     1      -3.784  11.397  17.041  0.00  0.00    +0.000 A 
ATOM     29  C   UNL     1      -5.048  11.722  17.530  0.00  0.00    +0.000 A 
ATOM     30  C   UNL     1      -5.217  12.152  18.853  0.00  0.00    +0.000 A 
ATOM     31  C   UNL     1      -6.506  12.452  19.326  0.00  0.00    +0.000 A 
ATOM     32  C   UNL     1      -6.711  12.873  20.638  0.00  0.00    +0.000 A 
ATOM     33  C   UNL     1      -5.625  13.007  21.492  0.00  0.00    +0.000 A 
ATOM     34  C   UNL     1      -4.336  12.731  21.032  0.00  0.00    +0.000 A 
ATOM     35  C   UNL     1      -4.092  12.291  19.707  0.00  0.00    +0.000 A 
ENDBRANCH  25  26
ENDBRANCH  11  25
TORSDOF 5
ENDMDL
MODEL 9
REMARK VINA RESULT:      -7.8      4.283      9.753
REMARK  Name = 
REMARK  5 active torsions:
REMARK  status: ('A' for Active; 'I' for Inactive)
REMARK    1  A    between atoms: N_7  and  C_8
REMARK    2  A    between atoms: C_8  and  C_9
REMARK    3  A    between atoms: C_9  and  C_10
REMARK    4  A    between atoms: N_23  and  C_24
REMARK    5  A    between atoms: C_24  and  C_25
REMARK                            x       y       z     vdW  Elec       q    Type
REMARK                         _______ _______ _______ _____ _____    ______ ____
ROOT
ATOM      1  O   UNL     1      -0.733   8.089  22.185  0.00  0.00    +0.000 OA
ATOM      2  C   UNL     1      -0.220   8.814  21.351  0.00  0.00    +0.000 C 
ATOM      3  O   UNL     1      -0.720  10.035  21.002  0.00  0.00    +0.000 OA
ATOM      4  C   UNL     1       0.142  10.662  20.025  0.00  0.00    +0.000 C 
ATOM      5  C   UNL     1       0.766  11.927  20.642  0.00  0.00    +0.000 C 
ATOM      6  C   UNL     1      -0.253  13.059  20.805  0.00  0.00    +0.000 C 
ATOM      7  N   UNL     1      -1.006  13.349  19.574  0.00  0.00    +0.000 NA
ATOM      8  C   UNL     1      -1.691  12.129  19.123  0.00  0.00    +0.000 C 
ATOM      9  C   UNL     1      -0.722  10.988  18.805  0.00  0.00    +0.000 C 
ATOM     10  C   UNL     1       1.214   9.621  19.723  0.00  0.00    +0.000 C 
ATOM     11  N   UNL     1       0.932   8.577  20.658  0.00  0.00    +0.000 N 
ENDROOT
BRANCH   7  12
ATOM     12  C   UNL     1      -0.156  13.981  18.546  0.00  0.00    +0.000 C 
BRANCH  12  13
ATOM     13  C   UNL     1      -0.148  15.519  18.593  0.00  0.00    +0.000 C 
BRANCH  13  14
ATOM     14  C   UNL     1       0.962  16.048  19.449  0.00  0.00    +0.000 A 
ATOM     15  C   UNL     1       0.820  16.748  20.630  0.00  0.00    +0.000 A 
ATOM     16  N   UNL     1       2.067  17.054  21.099  0.00  0.00    +0.000 N 
ATOM     17  C   UNL     1       3.031  16.564  20.247  0.00  0.00    +0.000 A 
ATOM     18  C   UNL     1       4.428  16.647  20.329  0.00  0.00    +0.000 A 
ATOM     19  C   UNL     1       5.171  16.051  19.304  0.00  0.00    +0.000 A 
ATOM     20  C   UNL     1       4.528  15.409  18.254  0.00  0.00    +0.000 A 
ATOM     21  F   UNL     1       5.265  14.844  17.287  0.00  0.00    +0.000 F 
ATOM     22  C   UNL     1       3.139  15.331  18.179  0.00  0.00    +0.000 A 
ATOM     23  C   UNL     1       2.369  15.923  19.201  0.00  0.00    +0.000 A 
ATOM     24  H   UNL     1       2.256  17.569  21.944  0.00  0.00    +0.000 HD
ENDBRANCH  13  14
ENDBRANCH  12  13
ENDBRANCH   7  12
BRANCH  11  25
ATOM     25  C   UNL     1       1.869   7.527  20.989  0.00  0.00    +0.000 C 
BRANCH  25  26
ATOM     26  C   UNL     1       2.312   6.674  19.820  0.00  0.00    +0.000 A 
ATOM     27  C   UNL     1       3.061   7.308  18.812  0.00  0.00    +0.000 A 
ATOM     28  C   UNL     1       3.395   6.642  17.641  0.00  0.00    +0.000 A 
ATOM     29  C   UNL     1       3.004   5.316  17.465  0.00  0.00    +0.000 A 
ATOM     30  C   UNL     1       2.298   4.637  18.468  0.00  0.00    +0.000 A 
ATOM     31  C   UNL     1       1.934   3.293  18.272  0.00  0.00    +0.000 A 
ATOM     32  C   UNL     1       1.241   2.587  19.252  0.00  0.00    +0.000 A 
ATOM     33  C   UNL     1       0.892   3.219  20.437  0.00  0.00    +0.000 A 
ATOM     34  C   UNL     1       1.229   4.560  20.638  0.00  0.00    +0.000 A 
ATOM     35  C   UNL     1       1.944   5.306  19.669  0.00  0.00    +0.000 A 
ENDBRANCH  25  26
ENDBRANCH  11  25
TORSDOF 5
ENDMDL
