MODEL 1
REMARK VINA RESULT:      -7.5      0.000      0.000
REMARK  Name = 
REMARK  6 active torsions:
REMARK  status: ('A' for Active; 'I' for Inactive)
REMARK    1  A    between atoms: C_2  and  O_3
REMARK    2  A    between atoms: C_2  and  C_4
REMARK    3  A    between atoms: C_4  and  N_5
REMARK    4  A    between atoms: C_4  and  C_16
REMARK    5  A    between atoms: N_5  and  S_6
REMARK    6  A    between atoms: S_6  and  C_9
REMARK                            x       y       z     vdW  Elec       q    Type
REMARK                         _______ _______ _______ _____ _____    ______ ____
ROOT
ATOM      1  N   UNL     1       4.405   4.406  16.209  0.00  0.00    +0.000 NA
ATOM      2  H   UNL     1       3.937   4.436  15.307  0.00  0.00    +0.000 HD
ENDROOT
BRANCH   1   3
ATOM      3  S   UNL     1       3.488   3.754  17.444  0.00  0.00    +0.000 S 
ATOM      4  O   UNL     1       2.300   3.226  16.815  0.00  0.00    +0.000 OA
ATOM      5  O   UNL     1       4.376   2.917  18.226  0.00  0.00    +0.000 OA
BRANCH   3   6
ATOM      6  C   UNL     1       2.971   5.098  18.486  0.00  0.00    +0.000 A 
ATOM      7  C   UNL     1       3.042   6.419  18.041  0.00  0.00    +0.000 A 
ATOM      8  C   UNL     1       2.538   7.443  18.853  0.00  0.00    +0.000 A 
ATOM      9  C   UNL     1       1.969   7.143  20.094  0.00  0.00    +0.000 A 
ATOM     10 CL   UNL     1       1.321   8.401  21.073  0.00  0.00    +0.000 Cl
ATOM     11  C   UNL     1       1.905   5.825  20.540  0.00  0.00    +0.000 A 
ATOM     12  C   UNL     1       2.399   4.800  19.733  0.00  0.00    +0.000 A 
ENDBRANCH   3   6
ENDBRANCH   1   3
BRANCH   1  13
ATOM     13  C   UNL     1       5.885   4.372  16.223  0.00  0.00    +0.000 C 
BRANCH  13  14
ATOM     14  C   UNL     1       6.579   5.402  17.123  0.00  0.00    +0.000 A 
ATOM     15  C   UNL     1       6.577   6.775  16.830  0.00  0.00    +0.000 A 
ATOM     16  C   UNL     1       7.351   7.668  17.580  0.00  0.00    +0.000 A 
ATOM     17  C   UNL     1       8.112   7.211  18.653  0.00  0.00    +0.000 A 
ATOM     18  C   UNL     1       8.050   5.873  19.021  0.00  0.00    +0.000 A 
ATOM     19  C   UNL     1       7.266   4.983  18.283  0.00  0.00    +0.000 A 
ENDBRANCH  13  14
BRANCH  13  21
ATOM     20  O   UNL     1       5.724   3.921  13.831  0.00  0.00    +0.000 OA
ATOM     21  C   UNL     1       6.372   4.392  14.762  0.00  0.00    +0.000 C 
BRANCH  21  22
ATOM     22  O   UNL     1       7.530   5.065  14.547  0.00  0.00    +0.000 OA
ATOM     23  H   UNL     1       8.310   4.658  14.993  0.00  0.00    +0.000 HD
ENDBRANCH  21  22
ENDBRANCH  13  21
ENDBRANCH   1  13
TORSDOF 6
ENDMDL
MODEL 2
REMARK VINA RESULT:      -7.5      0.207      1.079
REMARK  Name = 
REMARK  6 active torsions:
REMARK  status: ('A' for Active; 'I' for Inactive)
REMARK    1  A    between atoms: C_2  and  O_3
REMARK    2  A    between atoms: C_2  and  C_4
REMARK    3  A    between atoms: C_4  and  N_5
REMARK    4  A    between atoms: C_4  and  C_16
REMARK    5  A    between atoms: N_5  and  S_6
REMARK    6  A    between atoms: S_6  and  C_9
REMARK                            x       y       z     vdW  Elec       q    Type
REMARK                         _______ _______ _______ _____ _____    ______ ____
ROOT
ATOM      1  N   UNL     1       4.304   4.371  16.380  0.00  0.00    +0.000 NA
ATOM      2  H   UNL     1       3.819   4.454  15.490  0.00  0.00    +0.000 HD
ENDROOT
BRANCH   1   3
ATOM      3  S   UNL     1       3.397   3.677  17.600  0.00  0.00    +0.000 S 
ATOM      4  O   UNL     1       2.275   3.047  16.947  0.00  0.00    +0.000 OA
ATOM      5  O   UNL     1       4.320   2.926  18.429  0.00  0.00    +0.000 OA
BRANCH   3   6
ATOM      6  C   UNL     1       2.746   4.998  18.595  0.00  0.00    +0.000 A 
ATOM      7  C   UNL     1       2.217   4.748  19.862  0.00  0.00    +0.000 A 
ATOM      8  C   UNL     1       1.801   5.826  20.654  0.00  0.00    +0.000 A 
ATOM      9  C   UNL     1       1.915   7.136  20.180  0.00  0.00    +0.000 A 
ATOM     10 CL   UNL     1       1.433   8.458  21.170  0.00  0.00    +0.000 Cl
ATOM     11  C   UNL     1       2.437   7.383  18.912  0.00  0.00    +0.000 A 
ATOM     12  C   UNL     1       2.860   6.315  18.121  0.00  0.00    +0.000 A 
ENDBRANCH   3   6
ENDBRANCH   1   3
BRANCH   1  13
ATOM     13  C   UNL     1       5.782   4.309  16.363  0.00  0.00    +0.000 C 
BRANCH  13  14
ATOM     14  C   UNL     1       6.516   5.349  17.219  0.00  0.00    +0.000 A 
ATOM     15  C   UNL     1       6.516   6.716  16.900  0.00  0.00    +0.000 A 
ATOM     16  C   UNL     1       7.322   7.616  17.606  0.00  0.00    +0.000 A 
ATOM     17  C   UNL     1       8.116   7.172  18.661  0.00  0.00    +0.000 A 
ATOM     18  C   UNL     1       8.055   5.842  19.056  0.00  0.00    +0.000 A 
ATOM     19  C   UNL     1       7.238   4.946  18.363  0.00  0.00    +0.000 A 
ENDBRANCH  13  14
BRANCH  13  21
ATOM     20  O   UNL     1       5.467   4.085  13.954  0.00  0.00    +0.000 OA
ATOM     21  C   UNL     1       6.237   4.280  14.891  0.00  0.00    +0.000 C 
BRANCH  21  22
ATOM     22  O   UNL     1       7.541   4.590  14.682  0.00  0.00    +0.000 OA
ATOM     23  H   UNL     1       8.106   4.474  15.483  0.00  0.00    +0.000 HD
ENDBRANCH  21  22
ENDBRANCH  13  21
ENDBRANCH   1  13
TORSDOF 6
ENDMDL
MODEL 3
REMARK VINA RESULT:      -7.4      3.051      4.071
REMARK  Name = 
REMARK  6 active torsions:
REMARK  status: ('A' for Active; 'I' for Inactive)
REMARK    1  A    between atoms: C_2  and  O_3
REMARK    2  A    between atoms: C_2  and  C_4
REMARK    3  A    between atoms: C_4  and  N_5
REMARK    4  A    between atoms: C_4  and  C_16
REMARK    5  A    between atoms: N_5  and  S_6
REMARK    6  A    between atoms: S_6  and  C_9
REMARK                            x       y       z     vdW  Elec       q    Type
REMARK                         _______ _______ _______ _____ _____    ______ ____
ROOT
ATOM      1  N   UNL     1       2.702   2.088  19.612  0.00  0.00    +0.000 NA
ATOM      2  H   UNL     1       2.583   1.078  19.612  0.00  0.00    +0.000 HD
ENDROOT
BRANCH   1   3
ATOM      3  S   UNL     1       1.301   2.950  19.907  0.00  0.00    +0.000 S 
ATOM      4  O   UNL     1       0.314   2.422  18.996  0.00  0.00    +0.000 OA
ATOM      5  O   UNL     1       1.099   2.939  21.343  0.00  0.00    +0.000 OA
BRANCH   3   6
ATOM      6  C   UNL     1       1.603   4.635  19.427  0.00  0.00    +0.000 A 
ATOM      7  C   UNL     1       1.908   5.608  20.380  0.00  0.00    +0.000 A 
ATOM      8  C   UNL     1       2.233   6.902  19.955  0.00  0.00    +0.000 A 
ATOM      9  C   UNL     1       2.254   7.214  18.593  0.00  0.00    +0.000 A 
ATOM     10 CL   UNL     1       2.686   8.797  18.075  0.00  0.00    +0.000 Cl
ATOM     11  C   UNL     1       1.942   6.243  17.643  0.00  0.00    +0.000 A 
ATOM     12  C   UNL     1       1.624   4.950  18.059  0.00  0.00    +0.000 A 
ENDBRANCH   3   6
ENDBRANCH   1   3
BRANCH   1  13
ATOM     13  C   UNL     1       4.042   2.630  19.928  0.00  0.00    +0.000 C 
BRANCH  13  14
ATOM     14  C   UNL     1       4.665   3.557  18.876  0.00  0.00    +0.000 A 
ATOM     15  C   UNL     1       5.357   4.727  19.225  0.00  0.00    +0.000 A 
ATOM     16  C   UNL     1       5.774   5.632  18.241  0.00  0.00    +0.000 A 
ATOM     17  C   UNL     1       5.534   5.368  16.894  0.00  0.00    +0.000 A 
ATOM     18  C   UNL     1       4.940   4.169  16.523  0.00  0.00    +0.000 A 
ATOM     19  C   UNL     1       4.538   3.258  17.502  0.00  0.00    +0.000 A 
ENDBRANCH  13  14
BRANCH  13  21
ATOM     20  O   UNL     1       5.539   1.393  21.405  0.00  0.00    +0.000 OA
ATOM     21  C   UNL     1       4.946   1.449  20.331  0.00  0.00    +0.000 C 
BRANCH  21  22
ATOM     22  O   UNL     1       4.965   0.411  19.458  0.00  0.00    +0.000 OA
ATOM     23  H   UNL     1       5.652   0.501  18.755  0.00  0.00    +0.000 HD
ENDBRANCH  21  22
ENDBRANCH  13  21
ENDBRANCH   1  13
TORSDOF 6
ENDMDL
MODEL 4
REMARK VINA RESULT:      -7.3      2.684      5.172
REMARK  Name = 
REMARK  6 active torsions:
REMARK  status: ('A' for Active; 'I' for Inactive)
REMARK    1  A    between atoms: C_2  and  O_3
REMARK    2  A    between atoms: C_2  and  C_4
REMARK    3  A    between atoms: C_4  and  N_5
REMARK    4  A    between atoms: C_4  and  C_16
REMARK    5  A    between atoms: N_5  and  S_6
REMARK    6  A    between atoms: S_6  and  C_9
REMARK                            x       y       z     vdW  Elec       q    Type
REMARK                         _______ _______ _______ _____ _____    ______ ____
ROOT
ATOM      1  N   UNL     1       5.374   3.439  19.377  0.00  0.00    +0.000 NA
ATOM      2  H   UNL     1       6.166   3.471  20.014  0.00  0.00    +0.000 HD
ENDROOT
BRANCH   1   3
ATOM      3  S   UNL     1       5.519   4.428  18.038  0.00  0.00    +0.000 S 
ATOM      4  O   UNL     1       6.855   4.973  18.095  0.00  0.00    +0.000 OA
ATOM      5  O   UNL     1       5.053   3.661  16.900  0.00  0.00    +0.000 OA
BRANCH   3   6
ATOM      6  C   UNL     1       4.394   5.787  18.259  0.00  0.00    +0.000 A 
ATOM      7  C   UNL     1       4.304   6.804  17.307  0.00  0.00    +0.000 A 
ATOM      8  C   UNL     1       3.339   7.807  17.469  0.00  0.00    +0.000 A 
ATOM      9  C   UNL     1       2.478   7.788  18.570  0.00  0.00    +0.000 A 
ATOM     10 CL   UNL     1       1.273   9.004  18.746  0.00  0.00    +0.000 Cl
ATOM     11  C   UNL     1       2.575   6.775  19.523  0.00  0.00    +0.000 A 
ATOM     12  C   UNL     1       3.528   5.770  19.364  0.00  0.00    +0.000 A 
ENDBRANCH   3   6
ENDBRANCH   1   3
BRANCH   1  13
ATOM     13  C   UNL     1       4.541   2.215  19.367  0.00  0.00    +0.000 C 
BRANCH  13  14
ATOM     14  C   UNL     1       3.038   2.415  19.596  0.00  0.00    +0.000 A 
ATOM     15  C   UNL     1       2.097   2.274  18.564  0.00  0.00    +0.000 A 
ATOM     16  C   UNL     1       0.755   2.618  18.767  0.00  0.00    +0.000 A 
ATOM     17  C   UNL     1       0.326   3.076  20.011  0.00  0.00    +0.000 A 
ATOM     18  C   UNL     1       1.221   3.127  21.072  0.00  0.00    +0.000 A 
ATOM     19  C   UNL     1       2.556   2.769  20.875  0.00  0.00    +0.000 A 
ENDBRANCH  13  14
BRANCH  13  21
ATOM     20  O   UNL     1       5.474   1.456  21.489  0.00  0.00    +0.000 OA
ATOM     21  C   UNL     1       5.188   1.196  20.323  0.00  0.00    +0.000 C 
BRANCH  21  22
ATOM     22  O   UNL     1       5.330  -0.058  19.824  0.00  0.00    +0.000 OA
ATOM     23  H   UNL     1       6.089  -0.553  20.215  0.00  0.00    +0.000 HD
ENDBRANCH  21  22
ENDBRANCH  13  21
ENDBRANCH   1  13
TORSDOF 6
ENDMDL
MODEL 5
REMARK VINA RESULT:      -7.3      3.523      6.518
REMARK  Name = 
REMARK  6 active torsions:
REMARK  status: ('A' for Active; 'I' for Inactive)
REMARK    1  A    between atoms: C_2  and  O_3
REMARK    2  A    between atoms: C_2  and  C_4
REMARK    3  A    between atoms: C_4  and  N_5
REMARK    4  A    between atoms: C_4  and  C_16
REMARK    5  A    between atoms: N_5  and  S_6
REMARK    6  A    between atoms: S_6  and  C_9
REMARK                            x       y       z     vdW  Elec       q    Type
REMARK                         _______ _______ _______ _____ _____    ______ ____
ROOT
ATOM      1  N   UNL     1       4.208   6.145  18.296  0.00  0.00    +0.000 NA
ATOM      2  H   UNL     1       4.134   6.990  17.735  0.00  0.00    +0.000 HD
ENDROOT
BRANCH   1   3
ATOM      3  S   UNL     1       5.710   5.414  18.251  0.00  0.00    +0.000 S 
ATOM      4  O   UNL     1       6.668   6.469  18.481  0.00  0.00    +0.000 OA
ATOM      5  O   UNL     1       5.632   4.250  19.113  0.00  0.00    +0.000 OA
BRANCH   3   6
ATOM      6  C   UNL     1       5.967   4.830  16.592  0.00  0.00    +0.000 A 
ATOM      7  C   UNL     1       4.991   4.074  15.940  0.00  0.00    +0.000 A 
ATOM      8  C   UNL     1       5.189   3.712  14.601  0.00  0.00    +0.000 A 
ATOM      9  C   UNL     1       6.349   4.106  13.927  0.00  0.00    +0.000 A 
ATOM     10 CL   UNL     1       6.571   3.687  12.273  0.00  0.00    +0.000 Cl
ATOM     11  C   UNL     1       7.325   4.854  14.583  0.00  0.00    +0.000 A 
ATOM     12  C   UNL     1       7.131   5.223  15.914  0.00  0.00    +0.000 A 
ENDBRANCH   3   6
ENDBRANCH   1   3
BRANCH   1  13
ATOM     13  C   UNL     1       3.290   5.993  19.447  0.00  0.00    +0.000 C 
BRANCH  13  14
ATOM     14  C   UNL     1       2.465   4.700  19.491  0.00  0.00    +0.000 A 
ATOM     15  C   UNL     1       2.033   4.047  18.325  0.00  0.00    +0.000 A 
ATOM     16  C   UNL     1       1.150   2.963  18.398  0.00  0.00    +0.000 A 
ATOM     17  C   UNL     1       0.712   2.494  19.634  0.00  0.00    +0.000 A 
ATOM     18  C   UNL     1       1.206   3.062  20.801  0.00  0.00    +0.000 A 
ATOM     19  C   UNL     1       2.099   4.133  20.730  0.00  0.00    +0.000 A 
ENDBRANCH  13  14
BRANCH  13  21
ATOM     20  O   UNL     1       2.122   7.948  18.573  0.00  0.00    +0.000 OA
ATOM     21  C   UNL     1       2.444   7.276  19.549  0.00  0.00    +0.000 C 
BRANCH  21  22
ATOM     22  O   UNL     1       1.981   7.567  20.791  0.00  0.00    +0.000 OA
ATOM     23  H   UNL     1       1.145   8.090  20.787  0.00  0.00    +0.000 HD
ENDBRANCH  21  22
ENDBRANCH  13  21
ENDBRANCH   1  13
TORSDOF 6
ENDMDL
MODEL 6
REMARK VINA RESULT:      -7.3      2.757      5.256
REMARK  Name = 
REMARK  6 active torsions:
REMARK  status: ('A' for Active; 'I' for Inactive)
REMARK    1  A    between atoms: C_2  and  O_3
REMARK    2  A    between atoms: C_2  and  C_4
REMARK    3  A    between atoms: C_4  and  N_5
REMARK    4  A    between atoms: C_4  and  C_16
REMARK    5  A    between atoms: N_5  and  S_6
REMARK    6  A    between atoms: S_6  and  C_9
REMARK                            x       y       z     vdW  Elec       q    Type
REMARK                         _______ _______ _______ _____ _____    ______ ____
ROOT
ATOM      1  N   UNL     1       5.359   3.464  19.391  0.00  0.00    +0.000 NA
ATOM      2  H   UNL     1       6.183   3.484  19.986  0.00  0.00    +0.000 HD
ENDROOT
BRANCH   1   3
ATOM      3  S   UNL     1       5.425   4.501  18.082  0.00  0.00    +0.000 S 
ATOM      4  O   UNL     1       6.707   5.159  18.166  0.00  0.00    +0.000 OA
ATOM      5  O   UNL     1       5.037   3.727  16.918  0.00  0.00    +0.000 OA
BRANCH   3   6
ATOM      6  C   UNL     1       4.182   5.747  18.329  0.00  0.00    +0.000 A 
ATOM      7  C   UNL     1       3.402   5.762  19.487  0.00  0.00    +0.000 A 
ATOM      8  C   UNL     1       2.499   6.814  19.689  0.00  0.00    +0.000 A 
ATOM      9  C   UNL     1       2.382   7.836  18.742  0.00  0.00    +0.000 A 
ATOM     10 CL   UNL     1       1.296   9.142  19.012  0.00  0.00    +0.000 Cl
ATOM     11  C   UNL     1       3.156   7.815  17.584  0.00  0.00    +0.000 A 
ATOM     12  C   UNL     1       4.062   6.775  17.380  0.00  0.00    +0.000 A 
ENDBRANCH   3   6
ENDBRANCH   1   3
BRANCH   1  13
ATOM     13  C   UNL     1       4.538   2.232  19.381  0.00  0.00    +0.000 C 
BRANCH  13  14
ATOM     14  C   UNL     1       3.030   2.420  19.590  0.00  0.00    +0.000 A 
ATOM     15  C   UNL     1       2.114   2.367  18.527  0.00  0.00    +0.000 A 
ATOM     16  C   UNL     1       0.769   2.699  18.724  0.00  0.00    +0.000 A 
ATOM     17  C   UNL     1       0.310   3.057  19.990  0.00  0.00    +0.000 A 
ATOM     18  C   UNL     1       1.179   3.019  21.073  0.00  0.00    +0.000 A 
ATOM     19  C   UNL     1       2.517   2.672  20.881  0.00  0.00    +0.000 A 
ENDBRANCH  13  14
BRANCH  13  21
ATOM     20  O   UNL     1       5.420   1.491  21.532  0.00  0.00    +0.000 OA
ATOM     21  C   UNL     1       5.182   1.228  20.356  0.00  0.00    +0.000 C 
BRANCH  21  22
ATOM     22  O   UNL     1       5.379  -0.018  19.856  0.00  0.00    +0.000 OA
ATOM     23  H   UNL     1       5.151  -0.099  18.900  0.00  0.00    +0.000 HD
ENDBRANCH  21  22
ENDBRANCH  13  21
ENDBRANCH   1  13
TORSDOF 6
ENDMDL
MODEL 7
REMARK VINA RESULT:      -7.2      0.194      1.504
REMARK  Name = 
REMARK  6 active torsions:
REMARK  status: ('A' for Active; 'I' for Inactive)
REMARK    1  A    between atoms: C_2  and  O_3
REMARK    2  A    between atoms: C_2  and  C_4
REMARK    3  A    between atoms: C_4  and  N_5
REMARK    4  A    between atoms: C_4  and  C_16
REMARK    5  A    between atoms: N_5  and  S_6
REMARK    6  A    between atoms: S_6  and  C_9
REMARK                            x       y       z     vdW  Elec       q    Type
REMARK                         _______ _______ _______ _____ _____    ______ ____
ROOT
ATOM      1  N   UNL     1       4.562   4.518  16.251  0.00  0.00    +0.000 NA
ATOM      2  H   UNL     1       4.081   4.739  15.383  0.00  0.00    +0.000 HD
ENDROOT
BRANCH   1   3
ATOM      3  S   UNL     1       3.605   3.773  17.402  0.00  0.00    +0.000 S 
ATOM      4  O   UNL     1       2.516   3.165  16.674  0.00  0.00    +0.000 OA
ATOM      5  O   UNL     1       4.494   2.994  18.241  0.00  0.00    +0.000 OA
BRANCH   3   6
ATOM      6  C   UNL     1       2.903   5.053  18.417  0.00  0.00    +0.000 A 
ATOM      7  C   UNL     1       2.333   4.753  19.655  0.00  0.00    +0.000 A 
ATOM      8  C   UNL     1       1.876   5.799  20.467  0.00  0.00    +0.000 A 
ATOM      9  C   UNL     1       1.991   7.126  20.042  0.00  0.00    +0.000 A 
ATOM     10 CL   UNL     1       1.458   8.407  21.059  0.00  0.00    +0.000 Cl
ATOM     11  C   UNL     1       2.554   7.422  18.803  0.00  0.00    +0.000 A 
ATOM     12  C   UNL     1       3.018   6.386  17.992  0.00  0.00    +0.000 A 
ENDBRANCH   3   6
ENDBRANCH   1   3
BRANCH   1  13
ATOM     13  C   UNL     1       6.029   4.333  16.206  0.00  0.00    +0.000 C 
BRANCH  13  14
ATOM     14  C   UNL     1       6.860   5.277  17.083  0.00  0.00    +0.000 A 
ATOM     15  C   UNL     1       7.545   4.831  18.225  0.00  0.00    +0.000 A 
ATOM     16  C   UNL     1       8.161   5.741  19.091  0.00  0.00    +0.000 A 
ATOM     17  C   UNL     1       8.130   7.107  18.816  0.00  0.00    +0.000 A 
ATOM     18  C   UNL     1       7.544   7.559  17.642  0.00  0.00    +0.000 A 
ATOM     19  C   UNL     1       6.943   6.651  16.768  0.00  0.00    +0.000 A 
ENDBRANCH  13  14
BRANCH  13  21
ATOM     20  O   UNL     1       5.837   3.719  13.852  0.00  0.00    +0.000 OA
ATOM     21  C   UNL     1       6.458   4.319  14.726  0.00  0.00    +0.000 C 
BRANCH  21  22
ATOM     22  O   UNL     1       7.521   5.106  14.424  0.00  0.00    +0.000 OA
ATOM     23  H   UNL     1       8.358   4.821  14.861  0.00  0.00    +0.000 HD
ENDBRANCH  21  22
ENDBRANCH  13  21
ENDBRANCH   1  13
TORSDOF 6
ENDMDL
MODEL 8
REMARK VINA RESULT:      -7.2      3.479      6.524
REMARK  Name = 
REMARK  6 active torsions:
REMARK  status: ('A' for Active; 'I' for Inactive)
REMARK    1  A    between atoms: C_2  and  O_3
REMARK    2  A    between atoms: C_2  and  C_4
REMARK    3  A    between atoms: C_4  and  N_5
REMARK    4  A    between atoms: C_4  and  C_16
REMARK    5  A    between atoms: N_5  and  S_6
REMARK    6  A    between atoms: S_6  and  C_9
REMARK                            x       y       z     vdW  Elec       q    Type
REMARK                         _______ _______ _______ _____ _____    ______ ____
ROOT
ATOM      1  N   UNL     1       4.160   6.127  18.702  0.00  0.00    +0.000 NA
ATOM      2  H   UNL     1       4.282   7.052  18.296  0.00  0.00    +0.000 HD
ENDROOT
BRANCH   1   3
ATOM      3  S   UNL     1       5.509   5.145  18.607  0.00  0.00    +0.000 S 
ATOM      4  O   UNL     1       6.609   5.938  19.103  0.00  0.00    +0.000 OA
ATOM      5  O   UNL     1       5.145   3.878  19.210  0.00  0.00    +0.000 OA
BRANCH   3   6
ATOM      6  C   UNL     1       5.823   4.841  16.883  0.00  0.00    +0.000 A 
ATOM      7  C   UNL     1       7.043   5.195  16.304  0.00  0.00    +0.000 A 
ATOM      8  C   UNL     1       7.289   4.854  14.968  0.00  0.00    +0.000 A 
ATOM      9  C   UNL     1       6.323   4.167  14.225  0.00  0.00    +0.000 A 
ATOM     10 CL   UNL     1       6.645   3.722  12.595  0.00  0.00    +0.000 Cl
ATOM     11  C   UNL     1       5.104   3.821  14.803  0.00  0.00    +0.000 A 
ATOM     12  C   UNL     1       4.855   4.152  16.136  0.00  0.00    +0.000 A 
ENDBRANCH   3   6
ENDBRANCH   1   3
BRANCH   1  13
ATOM     13  C   UNL     1       3.137   5.962  19.758  0.00  0.00    +0.000 C 
BRANCH  13  14
ATOM     14  C   UNL     1       2.247   4.716  19.652  0.00  0.00    +0.000 A 
ATOM     15  C   UNL     1       1.845   3.985  20.781  0.00  0.00    +0.000 A 
ATOM     16  C   UNL     1       1.169   2.767  20.641  0.00  0.00    +0.000 A 
ATOM     17  C   UNL     1       0.856   2.277  19.375  0.00  0.00    +0.000 A 
ATOM     18  C   UNL     1       1.157   3.034  18.250  0.00  0.00    +0.000 A 
ATOM     19  C   UNL     1       1.817   4.256  18.389  0.00  0.00    +0.000 A 
ENDBRANCH  13  14
BRANCH  13  21
ATOM     20  O   UNL     1       2.144   8.021  18.905  0.00  0.00    +0.000 OA
ATOM     21  C   UNL     1       2.350   7.282  19.865  0.00  0.00    +0.000 C 
BRANCH  21  22
ATOM     22  O   UNL     1       1.802   7.532  21.080  0.00  0.00    +0.000 OA
ATOM     23  H   UNL     1       1.739   6.733  21.655  0.00  0.00    +0.000 HD
ENDBRANCH  21  22
ENDBRANCH  13  21
ENDBRANCH   1  13
TORSDOF 6
ENDMDL
MODEL 9
REMARK VINA RESULT:      -7.2      1.918      3.633
REMARK  Name = 
REMARK  6 active torsions:
REMARK  status: ('A' for Active; 'I' for Inactive)
REMARK    1  A    between atoms: C_2  and  O_3
REMARK    2  A    between atoms: C_2  and  C_4
REMARK    3  A    between atoms: C_4  and  N_5
REMARK    4  A    between atoms: C_4  and  C_16
REMARK    5  A    between atoms: N_5  and  S_6
REMARK    6  A    between atoms: S_6  and  C_9
REMARK                            x       y       z     vdW  Elec       q    Type
REMARK                         _______ _______ _______ _____ _____    ______ ____
ROOT
ATOM      1  N   UNL     1       5.407   3.780  16.931  0.00  0.00    +0.000 NA
ATOM      2  H   UNL     1       5.603   2.816  16.671  0.00  0.00    +0.000 HD
ENDROOT
BRANCH   1   3
ATOM      3  S   UNL     1       4.840   3.975  18.491  0.00  0.00    +0.000 S 
ATOM      4  O   UNL     1       3.963   2.854  18.733  0.00  0.00    +0.000 OA
ATOM      5  O   UNL     1       5.997   4.235  19.324  0.00  0.00    +0.000 OA
BRANCH   3   6
ATOM      6  C   UNL     1       3.832   5.439  18.509  0.00  0.00    +0.000 A 
ATOM      7  C   UNL     1       2.960   5.695  19.569  0.00  0.00    +0.000 A 
ATOM      8  C   UNL     1       2.253   6.904  19.595  0.00  0.00    +0.000 A 
ATOM      9  C   UNL     1       2.420   7.842  18.572  0.00  0.00    +0.000 A 
ATOM     10 CL   UNL     1       1.574   9.339  18.626  0.00  0.00    +0.000 Cl
ATOM     11  C   UNL     1       3.286   7.581  17.511  0.00  0.00    +0.000 A 
ATOM     12  C   UNL     1       3.998   6.382  17.483  0.00  0.00    +0.000 A 
ENDBRANCH   3   6
ENDBRANCH   1   3
BRANCH   1  13
ATOM     13  C   UNL     1       6.132   4.853  16.215  0.00  0.00    +0.000 C 
BRANCH  13  14
ATOM     14  C   UNL     1       6.359   4.634  14.714  0.00  0.00    +0.000 A 
ATOM     15  C   UNL     1       5.579   3.743  13.960  0.00  0.00    +0.000 A 
ATOM     16  C   UNL     1       5.911   3.446  12.633  0.00  0.00    +0.000 A 
ATOM     17  C   UNL     1       7.007   4.059  12.028  0.00  0.00    +0.000 A 
ATOM     18  C   UNL     1       7.731   5.018  12.724  0.00  0.00    +0.000 A 
ATOM     19  C   UNL     1       7.390   5.326  14.043  0.00  0.00    +0.000 A 
ENDBRANCH  13  14
BRANCH  13  21
ATOM     20  O   UNL     1       7.713   6.284  17.400  0.00  0.00    +0.000 OA
ATOM     21  C   UNL     1       7.420   5.159  17.002  0.00  0.00    +0.000 C 
BRANCH  21  22
ATOM     22  O   UNL     1       8.174   4.078  17.322  0.00  0.00    +0.000 OA
ATOM     23  H   UNL     1       9.030   4.309  17.754  0.00  0.00    +0.000 HD
ENDBRANCH  21  22
ENDBRANCH  13  21
ENDBRANCH   1  13
TORSDOF 6
ENDMDL
