MODEL 1
REMARK VINA RESULT:      -7.6      0.000      0.000
REMARK  Name = 
REMARK  7 active torsions:
REMARK  status: ('A' for Active; 'I' for Inactive)
REMARK    1  A    between atoms: C_2  and  C_3
REMARK    2  A    between atoms: C_3  and  N_4
REMARK    3  A    between atoms: C_7  and  O_8
REMARK    4  A    between atoms: N_11  and  C_12
REMARK    5  A    between atoms: C_15  and  O_16
REMARK    6  A    between atoms: O_16  and  C_17
REMARK    7  A    between atoms: N_20  and  C_21
REMARK                            x       y       z     vdW  Elec       q    Type
REMARK                         _______ _______ _______ _____ _____    ______ ____
ROOT
ATOM      1  C   UNL     1       0.858   9.912  19.639  0.00  0.00    +0.000 A 
ATOM      2  C   UNL     1       1.186   8.830  20.478  0.00  0.00    +0.000 A 
ATOM      3  C   UNL     1       1.886   7.746  20.014  0.00  0.00    +0.000 A 
ATOM      4  C   UNL     1       2.320   7.671  18.690  0.00  0.00    +0.000 A 
ATOM      5  C   UNL     1       2.034   8.744  17.827  0.00  0.00    +0.000 A 
ATOM      6  C   UNL     1       1.305   9.856  18.298  0.00  0.00    +0.000 A 
ENDROOT
BRANCH   1   9
ATOM      7  O   UNL     1      -1.783  10.673  18.800  0.00  0.00    +0.000 OA
ATOM      8  C   UNL     1      -1.185  11.358  19.609  0.00  0.00    +0.000 C 
ATOM      9  N   UNL     1       0.055  11.018  20.090  0.00  0.00    +0.000 N 
ATOM     10  H   UNL     1       0.481  11.648  20.789  0.00  0.00    +0.000 HD
BRANCH   8  11
ATOM     11  C   UNL     1      -1.852  12.636  19.986  0.00  0.00    +0.000 C 
BRANCH  11  12
ATOM     12  N   UNL     1      -2.844  12.359  21.042  0.00  0.00    +0.000 NA
ATOM     13  C   UNL     1      -4.115  13.078  20.778  0.00  0.00    +0.000 C 
ATOM     14  C   UNL     1      -5.156  12.749  21.855  0.00  0.00    +0.000 C 
ATOM     15  C   UNL     1      -4.619  13.091  23.253  0.00  0.00    +0.000 C 
ATOM     16  C   UNL     1      -3.283  12.362  23.475  0.00  0.00    +0.000 C 
ATOM     17  C   UNL     1      -2.278  12.696  22.364  0.00  0.00    +0.000 C 
BRANCH  15  18
ATOM     18  O   UNL     1      -4.508  14.482  23.451  0.00  0.00    +0.000 OA
ATOM     19  H   UNL     1      -5.410  14.883  23.497  0.00  0.00    +0.000 HD
ENDBRANCH  15  18
ENDBRANCH  11  12
ENDBRANCH   8  11
ENDBRANCH   1   9
BRANCH   4  20
ATOM     20  O   UNL     1       3.014   6.586  18.247  0.00  0.00    +0.000 OA
BRANCH  20  21
ATOM     21  C   UNL     1       3.217   5.418  18.983  0.00  0.00    +0.000 C 
ATOM     22  C   UNL     1       4.686   5.265  19.331  0.00  0.00    +0.000 C 
ATOM     23  C   UNL     1       5.506   5.084  18.062  0.00  0.00    +0.000 C 
ATOM     24  N   UNL     1       5.058   3.880  17.325  0.00  0.00    +0.000 NA
ATOM     25  C   UNL     1       3.626   3.986  16.947  0.00  0.00    +0.000 C 
ATOM     26  C   UNL     1       2.749   4.178  18.194  0.00  0.00    +0.000 C 
BRANCH  24  27
ATOM     27  C   UNL     1       5.885   3.736  16.114  0.00  0.00    +0.000 C 
ATOM     28  C   UNL     1       5.381   4.508  14.884  0.00  0.00    +0.000 C 
ATOM     29  C   UNL     1       6.837   4.805  14.564  0.00  0.00    +0.000 C 
ATOM     30  C   UNL     1       7.147   4.594  16.047  0.00  0.00    +0.000 C 
ENDBRANCH  24  27
ENDBRANCH  20  21
ENDBRANCH   4  20
TORSDOF 7
ENDMDL
MODEL 2
REMARK VINA RESULT:      -7.5      1.100      1.438
REMARK  Name = 
REMARK  7 active torsions:
REMARK  status: ('A' for Active; 'I' for Inactive)
REMARK    1  A    between atoms: C_2  and  C_3
REMARK    2  A    between atoms: C_3  and  N_4
REMARK    3  A    between atoms: C_7  and  O_8
REMARK    4  A    between atoms: N_11  and  C_12
REMARK    5  A    between atoms: C_15  and  O_16
REMARK    6  A    between atoms: O_16  and  C_17
REMARK    7  A    between atoms: N_20  and  C_21
REMARK                            x       y       z     vdW  Elec       q    Type
REMARK                         _______ _______ _______ _____ _____    ______ ____
ROOT
ATOM      1  C   UNL     1       0.785   9.962  19.410  0.00  0.00    +0.000 A 
ATOM      2  C   UNL     1       1.236   9.790  18.087  0.00  0.00    +0.000 A 
ATOM      3  C   UNL     1       2.025   8.729  17.728  0.00  0.00    +0.000 A 
ATOM      4  C   UNL     1       2.406   7.756  18.656  0.00  0.00    +0.000 A 
ATOM      5  C   UNL     1       1.954   7.879  19.981  0.00  0.00    +0.000 A 
ATOM      6  C   UNL     1       1.151   8.977  20.357  0.00  0.00    +0.000 A 
ENDROOT
BRANCH   1   9
ATOM      7  O   UNL     1       1.737  12.570  20.154  0.00  0.00    +0.000 OA
ATOM      8  C   UNL     1       0.547  12.320  20.213  0.00  0.00    +0.000 C 
ATOM      9  N   UNL     1       0.025  11.114  19.819  0.00  0.00    +0.000 N 
ATOM     10  H   UNL     1      -1.000  10.996  19.886  0.00  0.00    +0.000 HD
BRANCH   8  11
ATOM     11  C   UNL     1      -0.303  13.386  20.818  0.00  0.00    +0.000 C 
BRANCH  11  12
ATOM     12  N   UNL     1      -1.526  12.765  21.359  0.00  0.00    +0.000 NA
ATOM     13  C   UNL     1      -2.730  13.545  20.979  0.00  0.00    +0.000 C 
ATOM     14  C   UNL     1      -4.001  12.869  21.506  0.00  0.00    +0.000 C 
ATOM     15  C   UNL     1      -3.930  12.691  23.029  0.00  0.00    +0.000 C 
ATOM     16  C   UNL     1      -2.652  11.916  23.390  0.00  0.00    +0.000 C 
ATOM     17  C   UNL     1      -1.406  12.608  22.823  0.00  0.00    +0.000 C 
BRANCH  15  18
ATOM     18  O   UNL     1      -4.019  13.922  23.711  0.00  0.00    +0.000 OA
ATOM     19  H   UNL     1      -4.248  14.639  23.072  0.00  0.00    +0.000 HD
ENDBRANCH  15  18
ENDBRANCH  11  12
ENDBRANCH   8  11
ENDBRANCH   1   9
BRANCH   4  20
ATOM     20  O   UNL     1       3.190   6.708  18.281  0.00  0.00    +0.000 OA
BRANCH  20  21
ATOM     21  C   UNL     1       3.269   5.492  18.961  0.00  0.00    +0.000 C 
ATOM     22  C   UNL     1       4.706   5.204  19.355  0.00  0.00    +0.000 C 
ATOM     23  C   UNL     1       5.561   5.020  18.109  0.00  0.00    +0.000 C 
ATOM     24  N   UNL     1       5.050   3.895  17.294  0.00  0.00    +0.000 NA
ATOM     25  C   UNL     1       3.647   4.134  16.870  0.00  0.00    +0.000 C 
ATOM     26  C   UNL     1       2.738   4.334  18.092  0.00  0.00    +0.000 C 
BRANCH  24  27
ATOM     27  C   UNL     1       5.912   3.744  16.109  0.00  0.00    +0.000 C 
ATOM     28  C   UNL     1       5.383   4.411  14.829  0.00  0.00    +0.000 C 
ATOM     29  C   UNL     1       6.822   4.792  14.520  0.00  0.00    +0.000 C 
ATOM     30  C   UNL     1       7.113   4.684  16.018  0.00  0.00    +0.000 C 
ENDBRANCH  24  27
ENDBRANCH  20  21
ENDBRANCH   4  20
TORSDOF 7
ENDMDL
MODEL 3
REMARK VINA RESULT:      -7.4      1.925     10.515
REMARK  Name = 
REMARK  7 active torsions:
REMARK  status: ('A' for Active; 'I' for Inactive)
REMARK    1  A    between atoms: C_2  and  C_3
REMARK    2  A    between atoms: C_3  and  N_4
REMARK    3  A    between atoms: C_7  and  O_8
REMARK    4  A    between atoms: N_11  and  C_12
REMARK    5  A    between atoms: C_15  and  O_16
REMARK    6  A    between atoms: O_16  and  C_17
REMARK    7  A    between atoms: N_20  and  C_21
REMARK                            x       y       z     vdW  Elec       q    Type
REMARK                         _______ _______ _______ _____ _____    ______ ____
ROOT
ATOM      1  C   UNL     1       2.618   7.404  18.970  0.00  0.00    +0.000 A 
ATOM      2  C   UNL     1       2.473   8.229  17.838  0.00  0.00    +0.000 A 
ATOM      3  C   UNL     1       1.630   9.310  17.838  0.00  0.00    +0.000 A 
ATOM      4  C   UNL     1       0.886   9.655  18.968  0.00  0.00    +0.000 A 
ATOM      5  C   UNL     1       1.023   8.870  20.126  0.00  0.00    +0.000 A 
ATOM      6  C   UNL     1       1.881   7.750  20.127  0.00  0.00    +0.000 A 
ENDROOT
BRANCH   1   9
ATOM      7  O   UNL     1       1.916   4.745  18.134  0.00  0.00    +0.000 OA
ATOM      8  C   UNL     1       3.022   4.963  18.594  0.00  0.00    +0.000 C 
ATOM      9  N   UNL     1       3.435   6.220  18.958  0.00  0.00    +0.000 N 
ATOM     10  H   UNL     1       4.398   6.315  19.322  0.00  0.00    +0.000 HD
BRANCH   8  11
ATOM     11  C   UNL     1       3.875   3.760  18.810  0.00  0.00    +0.000 C 
BRANCH  11  12
ATOM     12  N   UNL     1       5.007   3.806  17.866  0.00  0.00    +0.000 NA
ATOM     13  C   UNL     1       6.105   4.653  18.396  0.00  0.00    +0.000 C 
ATOM     14  C   UNL     1       7.296   4.660  17.431  0.00  0.00    +0.000 C 
ATOM     15  C   UNL     1       6.864   5.141  16.038  0.00  0.00    +0.000 C 
ATOM     16  C   UNL     1       5.700   4.269  15.538  0.00  0.00    +0.000 C 
ATOM     17  C   UNL     1       4.540   4.266  16.543  0.00  0.00    +0.000 C 
BRANCH  15  18
ATOM     18  O   UNL     1       6.546   6.514  16.028  0.00  0.00    +0.000 OA
ATOM     19  H   UNL     1       7.191   7.008  16.589  0.00  0.00    +0.000 HD
ENDBRANCH  15  18
ENDBRANCH  11  12
ENDBRANCH   8  11
ENDBRANCH   1   9
BRANCH   4  20
ATOM     20  O   UNL     1       0.054  10.732  18.950  0.00  0.00    +0.000 OA
BRANCH  20  21
ATOM     21  C   UNL     1       0.474  12.059  18.840  0.00  0.00    +0.000 C 
ATOM     22  C   UNL     1       1.303  12.448  20.050  0.00  0.00    +0.000 C 
ATOM     23  C   UNL     1       0.446  12.403  21.306  0.00  0.00    +0.000 C 
ATOM     24  N   UNL     1      -0.696  13.338  21.185  0.00  0.00    +0.000 NA
ATOM     25  C   UNL     1      -1.550  12.992  20.020  0.00  0.00    +0.000 C 
ATOM     26  C   UNL     1      -0.730  13.014  18.721  0.00  0.00    +0.000 C 
BRANCH  24  27
ATOM     27  C   UNL     1      -1.490  13.273  22.424  0.00  0.00    +0.000 C 
ATOM     28  C   UNL     1      -3.013  13.333  22.227  0.00  0.00    +0.000 C 
ATOM     29  C   UNL     1      -3.126  12.316  23.352  0.00  0.00    +0.000 C 
ATOM     30  C   UNL     1      -1.694  11.885  23.028  0.00  0.00    +0.000 C 
ENDBRANCH  24  27
ENDBRANCH  20  21
ENDBRANCH   4  20
TORSDOF 7
ENDMDL
MODEL 4
REMARK VINA RESULT:      -7.3      1.328      1.368
REMARK  Name = 
REMARK  7 active torsions:
REMARK  status: ('A' for Active; 'I' for Inactive)
REMARK    1  A    between atoms: C_2  and  C_3
REMARK    2  A    between atoms: C_3  and  N_4
REMARK    3  A    between atoms: C_7  and  O_8
REMARK    4  A    between atoms: N_11  and  C_12
REMARK    5  A    between atoms: C_15  and  O_16
REMARK    6  A    between atoms: O_16  and  C_17
REMARK    7  A    between atoms: N_20  and  C_21
REMARK                            x       y       z     vdW  Elec       q    Type
REMARK                         _______ _______ _______ _____ _____    ______ ____
ROOT
ATOM      1  C   UNL     1       0.982  10.327  19.534  0.00  0.00    +0.000 A 
ATOM      2  C   UNL     1       1.152   9.221  20.390  0.00  0.00    +0.000 A 
ATOM      3  C   UNL     1       1.724   8.055  19.953  0.00  0.00    +0.000 A 
ATOM      4  C   UNL     1       2.181   7.913  18.641  0.00  0.00    +0.000 A 
ATOM      5  C   UNL     1       2.052   9.004  17.764  0.00  0.00    +0.000 A 
ATOM      6  C   UNL     1       1.453  10.202  18.206  0.00  0.00    +0.000 A 
ENDROOT
BRANCH   1   9
ATOM      7  O   UNL     1       2.004  12.499  21.114  0.00  0.00    +0.000 OA
ATOM      8  C   UNL     1       0.841  12.506  20.756  0.00  0.00    +0.000 C 
ATOM      9  N   UNL     1       0.309  11.527  19.955  0.00  0.00    +0.000 N 
ATOM     10  H   UNL     1      -0.684  11.623  19.684  0.00  0.00    +0.000 HD
BRANCH   8  11
ATOM     11  C   UNL     1       0.006  13.609  21.312  0.00  0.00    +0.000 C 
BRANCH  11  12
ATOM     12  N   UNL     1      -1.339  13.081  21.609  0.00  0.00    +0.000 NA
ATOM     13  C   UNL     1      -2.374  14.127  21.417  0.00  0.00    +0.000 C 
ATOM     14  C   UNL     1      -3.773  13.559  21.684  0.00  0.00    +0.000 C 
ATOM     15  C   UNL     1      -3.858  12.964  23.097  0.00  0.00    +0.000 C 
ATOM     16  C   UNL     1      -2.747  11.915  23.273  0.00  0.00    +0.000 C 
ATOM     17  C   UNL     1      -1.367  12.514  22.972  0.00  0.00    +0.000 C 
BRANCH  15  18
ATOM     18  O   UNL     1      -3.816  13.959  24.094  0.00  0.00    +0.000 OA
ATOM     19  H   UNL     1      -3.110  13.741  24.750  0.00  0.00    +0.000 HD
ENDBRANCH  15  18
ENDBRANCH  11  12
ENDBRANCH   8  11
ENDBRANCH   1   9
BRANCH   4  20
ATOM     20  O   UNL     1       2.748   6.747  18.225  0.00  0.00    +0.000 OA
BRANCH  20  21
ATOM     21  C   UNL     1       2.924   5.618  19.027  0.00  0.00    +0.000 C 
ATOM     22  C   UNL     1       4.373   5.503  19.461  0.00  0.00    +0.000 C 
ATOM     23  C   UNL     1       5.263   5.273  18.248  0.00  0.00    +0.000 C 
ATOM     24  N   UNL     1       4.870   4.029  17.548  0.00  0.00    +0.000 NA
ATOM     25  C   UNL     1       3.460   4.096  17.089  0.00  0.00    +0.000 C 
ATOM     26  C   UNL     1       2.514   4.335  18.276  0.00  0.00    +0.000 C 
BRANCH  24  27
ATOM     27  C   UNL     1       5.764   3.838  16.392  0.00  0.00    +0.000 C 
ATOM     28  C   UNL     1       5.500   4.775  15.203  0.00  0.00    +0.000 C 
ATOM     29  C   UNL     1       7.007   4.843  15.016  0.00  0.00    +0.000 C 
ATOM     30  C   UNL     1       7.150   4.471  16.494  0.00  0.00    +0.000 C 
ENDBRANCH  24  27
ENDBRANCH  20  21
ENDBRANCH   4  20
TORSDOF 7
ENDMDL
MODEL 5
REMARK VINA RESULT:      -7.3      0.552      1.065
REMARK  Name = 
REMARK  7 active torsions:
REMARK  status: ('A' for Active; 'I' for Inactive)
REMARK    1  A    between atoms: C_2  and  C_3
REMARK    2  A    between atoms: C_3  and  N_4
REMARK    3  A    between atoms: C_7  and  O_8
REMARK    4  A    between atoms: N_11  and  C_12
REMARK    5  A    between atoms: C_15  and  O_16
REMARK    6  A    between atoms: O_16  and  C_17
REMARK    7  A    between atoms: N_20  and  C_21
REMARK                            x       y       z     vdW  Elec       q    Type
REMARK                         _______ _______ _______ _____ _____    ______ ____
ROOT
ATOM      1  C   UNL     1       0.812   9.941  20.063  0.00  0.00    +0.000 A 
ATOM      2  C   UNL     1       1.256   9.889  18.728  0.00  0.00    +0.000 A 
ATOM      3  C   UNL     1       1.948   8.811  18.241  0.00  0.00    +0.000 A 
ATOM      4  C   UNL     1       2.233   7.704  19.043  0.00  0.00    +0.000 A 
ATOM      5  C   UNL     1       1.784   7.707  20.375  0.00  0.00    +0.000 A 
ATOM      6  C   UNL     1       1.081   8.820  20.883  0.00  0.00    +0.000 A 
ENDROOT
BRANCH   1   9
ATOM      7  O   UNL     1      -1.788  10.996  19.440  0.00  0.00    +0.000 OA
ATOM      8  C   UNL     1      -1.071  11.581  20.230  0.00  0.00    +0.000 C 
ATOM      9  N   UNL     1       0.156  11.099  20.611  0.00  0.00    +0.000 N 
ATOM     10  H   UNL     1       0.690  11.652  21.301  0.00  0.00    +0.000 HD
BRANCH   8  11
ATOM     11  C   UNL     1      -1.579  12.902  20.701  0.00  0.00    +0.000 C 
BRANCH  11  12
ATOM     12  N   UNL     1      -2.754  12.677  21.563  0.00  0.00    +0.000 NA
ATOM     13  C   UNL     1      -3.714  13.804  21.457  0.00  0.00    +0.000 C 
ATOM     14  C   UNL     1      -4.953  13.542  22.321  0.00  0.00    +0.000 C 
ATOM     15  C   UNL     1      -4.555  13.305  23.785  0.00  0.00    +0.000 C 
ATOM     16  C   UNL     1      -3.531  12.160  23.853  0.00  0.00    +0.000 C 
ATOM     17  C   UNL     1      -2.319  12.446  22.956  0.00  0.00    +0.000 C 
BRANCH  15  18
ATOM     18  O   UNL     1      -4.083  14.481  24.402  0.00  0.00    +0.000 OA
ATOM     19  H   UNL     1      -4.830  14.937  24.862  0.00  0.00    +0.000 HD
ENDBRANCH  15  18
ENDBRANCH  11  12
ENDBRANCH   8  11
ENDBRANCH   1   9
BRANCH   4  20
ATOM     20  O   UNL     1       2.921   6.642  18.542  0.00  0.00    +0.000 OA
BRANCH  20  21
ATOM     21  C   UNL     1       3.008   5.391  19.155  0.00  0.00    +0.000 C 
ATOM     22  C   UNL     1       4.443   5.099  19.552  0.00  0.00    +0.000 C 
ATOM     23  C   UNL     1       5.317   4.997  18.310  0.00  0.00    +0.000 C 
ATOM     24  N   UNL     1       4.833   3.912  17.427  0.00  0.00    +0.000 NA
ATOM     25  C   UNL     1       3.433   4.157  16.997  0.00  0.00    +0.000 C 
ATOM     26  C   UNL     1       2.505   4.277  18.215  0.00  0.00    +0.000 C 
BRANCH  24  27
ATOM     27  C   UNL     1       5.713   3.840  16.247  0.00  0.00    +0.000 C 
ATOM     28  C   UNL     1       5.384   4.838  15.126  0.00  0.00    +0.000 C 
ATOM     29  C   UNL     1       6.883   4.989  14.921  0.00  0.00    +0.000 C 
ATOM     30  C   UNL     1       7.070   4.530  16.369  0.00  0.00    +0.000 C 
ENDBRANCH  24  27
ENDBRANCH  20  21
ENDBRANCH   4  20
TORSDOF 7
ENDMDL
MODEL 6
REMARK VINA RESULT:      -7.3      1.925     10.926
REMARK  Name = 
REMARK  7 active torsions:
REMARK  status: ('A' for Active; 'I' for Inactive)
REMARK    1  A    between atoms: C_2  and  C_3
REMARK    2  A    between atoms: C_3  and  N_4
REMARK    3  A    between atoms: C_7  and  O_8
REMARK    4  A    between atoms: N_11  and  C_12
REMARK    5  A    between atoms: C_15  and  O_16
REMARK    6  A    between atoms: O_16  and  C_17
REMARK    7  A    between atoms: N_20  and  C_21
REMARK                            x       y       z     vdW  Elec       q    Type
REMARK                         _______ _______ _______ _____ _____    ______ ____
ROOT
ATOM      1  C   UNL     1       1.921   7.825  19.925  0.00  0.00    +0.000 A 
ATOM      2  C   UNL     1       1.332   7.863  21.203  0.00  0.00    +0.000 A 
ATOM      3  C   UNL     1       0.451   8.851  21.560  0.00  0.00    +0.000 A 
ATOM      4  C   UNL     1       0.084   9.859  20.667  0.00  0.00    +0.000 A 
ATOM      5  C   UNL     1       0.632   9.840  19.372  0.00  0.00    +0.000 A 
ATOM      6  C   UNL     1       1.547   8.832  19.004  0.00  0.00    +0.000 A 
ENDROOT
BRANCH   1   9
ATOM      7  O   UNL     1       1.707   4.959  19.975  0.00  0.00    +0.000 OA
ATOM      8  C   UNL     1       2.760   5.482  19.660  0.00  0.00    +0.000 C 
ATOM      9  N   UNL     1       2.909   6.843  19.563  0.00  0.00    +0.000 N 
ATOM     10  H   UNL     1       3.834   7.199  19.271  0.00  0.00    +0.000 HD
BRANCH   8  11
ATOM     11  C   UNL     1       3.906   4.548  19.462  0.00  0.00    +0.000 C 
BRANCH  11  12
ATOM     12  N   UNL     1       4.865   5.168  18.529  0.00  0.00    +0.000 NA
ATOM     13  C   UNL     1       5.022   4.343  17.305  0.00  0.00    +0.000 C 
ATOM     14  C   UNL     1       5.985   5.016  16.320  0.00  0.00    +0.000 C 
ATOM     15  C   UNL     1       7.348   5.272  16.980  0.00  0.00    +0.000 C 
ATOM     16  C   UNL     1       7.143   6.092  18.265  0.00  0.00    +0.000 C 
ATOM     17  C   UNL     1       6.153   5.401  19.212  0.00  0.00    +0.000 C 
BRANCH  15  18
ATOM     18  O   UNL     1       8.053   4.075  17.218  0.00  0.00    +0.000 OA
ATOM     19  H   UNL     1       8.268   4.002  18.180  0.00  0.00    +0.000 HD
ENDBRANCH  15  18
ENDBRANCH  11  12
ENDBRANCH   8  11
ENDBRANCH   1   9
BRANCH   4  20
ATOM     20  O   UNL     1      -0.793  10.832  21.039  0.00  0.00    +0.000 OA
BRANCH  20  21
ATOM     21  C   UNL     1      -0.439  12.012  21.694  0.00  0.00    +0.000 C 
ATOM     22  C   UNL     1      -1.257  12.175  22.961  0.00  0.00    +0.000 C 
ATOM     23  C   UNL     1      -2.730  12.338  22.614  0.00  0.00    +0.000 C 
ATOM     24  N   UNL     1      -2.929  13.528  21.757  0.00  0.00    +0.000 NA
ATOM     25  C   UNL     1      -2.159  13.413  20.493  0.00  0.00    +0.000 C 
ATOM     26  C   UNL     1      -0.661  13.238  20.785  0.00  0.00    +0.000 C 
BRANCH  24  27
ATOM     27  C   UNL     1      -4.366  13.655  21.457  0.00  0.00    +0.000 C 
ATOM     28  C   UNL     1      -4.880  12.744  20.331  0.00  0.00    +0.000 C 
ATOM     29  C   UNL     1      -6.146  12.564  21.153  0.00  0.00    +0.000 C 
ATOM     30  C   UNL     1      -5.323  12.920  22.393  0.00  0.00    +0.000 C 
ENDBRANCH  24  27
ENDBRANCH  20  21
ENDBRANCH   4  20
TORSDOF 7
ENDMDL
MODEL 7
REMARK VINA RESULT:      -7.3      2.198      2.727
REMARK  Name = 
REMARK  7 active torsions:
REMARK  status: ('A' for Active; 'I' for Inactive)
REMARK    1  A    between atoms: C_2  and  C_3
REMARK    2  A    between atoms: C_3  and  N_4
REMARK    3  A    between atoms: C_7  and  O_8
REMARK    4  A    between atoms: N_11  and  C_12
REMARK    5  A    between atoms: C_15  and  O_16
REMARK    6  A    between atoms: O_16  and  C_17
REMARK    7  A    between atoms: N_20  and  C_21
REMARK                            x       y       z     vdW  Elec       q    Type
REMARK                         _______ _______ _______ _____ _____    ______ ____
ROOT
ATOM      1  C   UNL     1       0.864   9.767  19.703  0.00  0.00    +0.000 A 
ATOM      2  C   UNL     1       1.220   8.678  20.521  0.00  0.00    +0.000 A 
ATOM      3  C   UNL     1       1.948   7.622  20.037  0.00  0.00    +0.000 A 
ATOM      4  C   UNL     1       2.386   7.585  18.712  0.00  0.00    +0.000 A 
ATOM      5  C   UNL     1       2.072   8.667  17.871  0.00  0.00    +0.000 A 
ATOM      6  C   UNL     1       1.313   9.750  18.362  0.00  0.00    +0.000 A 
ENDROOT
BRANCH   1   9
ATOM      7  O   UNL     1       1.638  12.171  21.076  0.00  0.00    +0.000 OA
ATOM      8  C   UNL     1       0.460  11.943  20.873  0.00  0.00    +0.000 C 
ATOM      9  N   UNL     1       0.031  10.842  20.175  0.00  0.00    +0.000 N 
ATOM     10  H   UNL     1      -0.988  10.737  20.033  0.00  0.00    +0.000 HD
BRANCH   8  11
ATOM     11  C   UNL     1      -0.497  12.898  21.501  0.00  0.00    +0.000 C 
BRANCH  11  12
ATOM     12  N   UNL     1      -0.246  14.246  20.956  0.00  0.00    +0.000 NA
ATOM     13  C   UNL     1      -0.967  15.279  21.742  0.00  0.00    +0.000 C 
ATOM     14  C   UNL     1      -0.666  16.680  21.197  0.00  0.00    +0.000 C 
ATOM     15  C   UNL     1      -1.033  16.776  19.709  0.00  0.00    +0.000 C 
ATOM     16  C   UNL     1      -0.301  15.668  18.934  0.00  0.00    +0.000 C 
ATOM     17  C   UNL     1      -0.606  14.284  19.524  0.00  0.00    +0.000 C 
BRANCH  15  18
ATOM     18  O   UNL     1      -2.427  16.739  19.504  0.00  0.00    +0.000 OA
ATOM     19  H   UNL     1      -2.830  16.055  20.092  0.00  0.00    +0.000 HD
ENDBRANCH  15  18
ENDBRANCH  11  12
ENDBRANCH   8  11
ENDBRANCH   1   9
BRANCH   4  20
ATOM     20  O   UNL     1       3.110   6.529  18.249  0.00  0.00    +0.000 OA
BRANCH  20  21
ATOM     21  C   UNL     1       3.376   5.368  18.976  0.00  0.00    +0.000 C 
ATOM     22  C   UNL     1       4.862   5.258  19.263  0.00  0.00    +0.000 C 
ATOM     23  C   UNL     1       5.634   5.098  17.961  0.00  0.00    +0.000 C 
ATOM     24  N   UNL     1       5.190   3.881  17.245  0.00  0.00    +0.000 NA
ATOM     25  C   UNL     1       3.741   3.944  16.927  0.00  0.00    +0.000 C 
ATOM     26  C   UNL     1       2.912   4.113  18.209  0.00  0.00    +0.000 C 
BRANCH  24  27
ATOM     27  C   UNL     1       5.970   3.758  16.000  0.00  0.00    +0.000 C 
ATOM     28  C   UNL     1       5.359   4.458  14.776  0.00  0.00    +0.000 C 
ATOM     29  C   UNL     1       6.776   4.843  14.381  0.00  0.00    +0.000 C 
ATOM     30  C   UNL     1       7.166   4.697  15.853  0.00  0.00    +0.000 C 
ENDBRANCH  24  27
ENDBRANCH  20  21
ENDBRANCH   4  20
TORSDOF 7
ENDMDL
MODEL 8
REMARK VINA RESULT:      -7.2      1.322      1.479
REMARK  Name = 
REMARK  7 active torsions:
REMARK  status: ('A' for Active; 'I' for Inactive)
REMARK    1  A    between atoms: C_2  and  C_3
REMARK    2  A    between atoms: C_3  and  N_4
REMARK    3  A    between atoms: C_7  and  O_8
REMARK    4  A    between atoms: N_11  and  C_12
REMARK    5  A    between atoms: C_15  and  O_16
REMARK    6  A    between atoms: O_16  and  C_17
REMARK    7  A    between atoms: N_20  and  C_21
REMARK                            x       y       z     vdW  Elec       q    Type
REMARK                         _______ _______ _______ _____ _____    ______ ____
ROOT
ATOM      1  C   UNL     1       0.789   9.685  19.611  0.00  0.00    +0.000 A 
ATOM      2  C   UNL     1       0.941   8.797  20.694  0.00  0.00    +0.000 A 
ATOM      3  C   UNL     1       1.716   7.670  20.597  0.00  0.00    +0.000 A 
ATOM      4  C   UNL     1       2.405   7.357  19.423  0.00  0.00    +0.000 A 
ATOM      5  C   UNL     1       2.298   8.233  18.329  0.00  0.00    +0.000 A 
ATOM      6  C   UNL     1       1.493   9.388  18.421  0.00  0.00    +0.000 A 
ENDROOT
BRANCH   1   9
ATOM      7  O   UNL     1       0.862  11.910  21.430  0.00  0.00    +0.000 OA
ATOM      8  C   UNL     1      -0.027  11.833  20.603  0.00  0.00    +0.000 C 
ATOM      9  N   UNL     1      -0.086  10.827  19.672  0.00  0.00    +0.000 N 
ATOM     10  H   UNL     1      -0.866  10.851  18.995  0.00  0.00    +0.000 HD
BRANCH   8  11
ATOM     11  C   UNL     1      -1.098  12.864  20.715  0.00  0.00    +0.000 C 
BRANCH  11  12
ATOM     12  N   UNL     1      -1.524  12.951  22.125  0.00  0.00    +0.000 NA
ATOM     13  C   UNL     1      -2.933  12.510  22.282  0.00  0.00    +0.000 C 
ATOM     14  C   UNL     1      -3.354  12.560  23.755  0.00  0.00    +0.000 C 
ATOM     15  C   UNL     1      -3.161  13.971  24.328  0.00  0.00    +0.000 C 
ATOM     16  C   UNL     1      -1.703  14.411  24.112  0.00  0.00    +0.000 C 
ATOM     17  C   UNL     1      -1.311  14.322  22.631  0.00  0.00    +0.000 C 
BRANCH  15  18
ATOM     18  O   UNL     1      -4.082  14.893  23.790  0.00  0.00    +0.000 OA
ATOM     19  H   UNL     1      -3.946  14.964  22.813  0.00  0.00    +0.000 HD
ENDBRANCH  15  18
ENDBRANCH  11  12
ENDBRANCH   8  11
ENDBRANCH   1   9
BRANCH   4  20
ATOM     20  O   UNL     1       3.170   6.234  19.345  0.00  0.00    +0.000 OA
BRANCH  20  21
ATOM     21  C   UNL     1       2.668   4.933  19.292  0.00  0.00    +0.000 C 
ATOM     22  C   UNL     1       3.723   3.944  19.753  0.00  0.00    +0.000 C 
ATOM     23  C   UNL     1       4.903   3.956  18.793  0.00  0.00    +0.000 C 
ATOM     24  N   UNL     1       4.462   3.587  17.429  0.00  0.00    +0.000 NA
ATOM     25  C   UNL     1       3.436   4.535  16.923  0.00  0.00    +0.000 C 
ATOM     26  C   UNL     1       2.221   4.569  17.862  0.00  0.00    +0.000 C 
BRANCH  24  27
ATOM     27  C   UNL     1       5.635   3.598  16.537  0.00  0.00    +0.000 C 
ATOM     28  C   UNL     1       5.477   4.441  15.261  0.00  0.00    +0.000 C 
ATOM     29  C   UNL     1       6.930   4.851  15.440  0.00  0.00    +0.000 C 
ATOM     30  C   UNL     1       6.778   4.533  16.929  0.00  0.00    +0.000 C 
ENDBRANCH  24  27
ENDBRANCH  20  21
ENDBRANCH   4  20
TORSDOF 7
ENDMDL
MODEL 9
REMARK VINA RESULT:      -7.2      1.551      1.952
REMARK  Name = 
REMARK  7 active torsions:
REMARK  status: ('A' for Active; 'I' for Inactive)
REMARK    1  A    between atoms: C_2  and  C_3
REMARK    2  A    between atoms: C_3  and  N_4
REMARK    3  A    between atoms: C_7  and  O_8
REMARK    4  A    between atoms: N_11  and  C_12
REMARK    5  A    between atoms: C_15  and  O_16
REMARK    6  A    between atoms: O_16  and  C_17
REMARK    7  A    between atoms: N_20  and  C_21
REMARK                            x       y       z     vdW  Elec       q    Type
REMARK                         _______ _______ _______ _____ _____    ______ ____
ROOT
ATOM      1  C   UNL     1       0.464   9.694  19.433  0.00  0.00    +0.000 A 
ATOM      2  C   UNL     1       1.002   8.837  20.412  0.00  0.00    +0.000 A 
ATOM      3  C   UNL     1       1.937   7.885  20.100  0.00  0.00    +0.000 A 
ATOM      4  C   UNL     1       2.413   7.730  18.796  0.00  0.00    +0.000 A 
ATOM      5  C   UNL     1       1.918   8.584  17.795  0.00  0.00    +0.000 A 
ATOM      6  C   UNL     1       0.947   9.558  18.111  0.00  0.00    +0.000 A 
ENDROOT
BRANCH   1   9
ATOM      7  O   UNL     1       0.641  12.557  19.619  0.00  0.00    +0.000 OA
ATOM      8  C   UNL     1      -0.414  11.999  19.856  0.00  0.00    +0.000 C 
ATOM      9  N   UNL     1      -0.577  10.643  19.731  0.00  0.00    +0.000 N 
ATOM     10  H   UNL     1      -1.514  10.256  19.934  0.00  0.00    +0.000 HD
BRANCH   8  11
ATOM     11  C   UNL     1      -1.503  12.879  20.370  0.00  0.00    +0.000 C 
BRANCH  11  12
ATOM     12  N   UNL     1      -2.803  12.259  20.050  0.00  0.00    +0.000 NA
ATOM     13  C   UNL     1      -2.972  12.111  18.582  0.00  0.00    +0.000 C 
ATOM     14  C   UNL     1      -4.305  11.425  18.258  0.00  0.00    +0.000 C 
ATOM     15  C   UNL     1      -5.480  12.206  18.864  0.00  0.00    +0.000 C 
ATOM     16  C   UNL     1      -5.251  12.376  20.375  0.00  0.00    +0.000 C 
ATOM     17  C   UNL     1      -3.897  13.040  20.659  0.00  0.00    +0.000 C 
BRANCH  15  18
ATOM     18  O   UNL     1      -5.686  13.440  18.213  0.00  0.00    +0.000 OA
ATOM     19  H   UNL     1      -6.374  13.958  18.698  0.00  0.00    +0.000 HD
ENDBRANCH  15  18
ENDBRANCH  11  12
ENDBRANCH   8  11
ENDBRANCH   1   9
BRANCH   4  20
ATOM     20  O   UNL     1       3.342   6.778  18.504  0.00  0.00    +0.000 OA
BRANCH  20  21
ATOM     21  C   UNL     1       3.461   5.554  19.165  0.00  0.00    +0.000 C 
ATOM     22  C   UNL     1       4.922   5.238  19.424  0.00  0.00    +0.000 C 
ATOM     23  C   UNL     1       5.657   5.052  18.104  0.00  0.00    +0.000 C 
ATOM     24  N   UNL     1       5.054   3.943  17.330  0.00  0.00    +0.000 NA
ATOM     25  C   UNL     1       3.623   4.211  17.037  0.00  0.00    +0.000 C 
ATOM     26  C   UNL     1       2.833   4.415  18.338  0.00  0.00    +0.000 C 
BRANCH  24  27
ATOM     27  C   UNL     1       5.802   3.790  16.070  0.00  0.00    +0.000 C 
ATOM     28  C   UNL     1       5.329   4.689  14.917  0.00  0.00    +0.000 C 
ATOM     29  C   UNL     1       6.793   4.847  14.537  0.00  0.00    +0.000 C 
ATOM     30  C   UNL     1       7.147   4.509  15.986  0.00  0.00    +0.000 C 
ENDBRANCH  24  27
ENDBRANCH  20  21
ENDBRANCH   4  20
TORSDOF 7
ENDMDL
