MODEL 1
REMARK VINA RESULT:      -7.6      0.000      0.000
REMARK  Name = 
REMARK  7 active torsions:
REMARK  status: ('A' for Active; 'I' for Inactive)
REMARK    1  A    between atoms: C_1  and  C_2
REMARK    2  A    between atoms: C_2  and  C_3
REMARK    3  A    between atoms: C_2  and  C_4
REMARK    4  A    between atoms: C_2  and  N_5
REMARK    5  A    between atoms: N_5  and  C_6
REMARK    6  A    between atoms: N_5  and  C_13
REMARK    7  A    between atoms: C_6  and  C_7
REMARK                            x       y       z     vdW  Elec       q    Type
REMARK                         _______ _______ _______ _____ _____    ______ ____
ROOT
ATOM      1  N   UNL     1       3.345   4.212  19.137  0.00  0.00    +0.000 N 
ENDROOT
BRANCH   1   2
ATOM      2  C   UNL     1       4.573   4.337  18.452  0.00  0.00    +0.000 A 
ATOM      3  C   UNL     1       5.742   4.832  19.061  0.00  0.00    +0.000 A 
ATOM      4  C   UNL     1       6.931   5.078  18.367  0.00  0.00    +0.000 A 
ATOM      5 CL   UNL     1       8.275   5.744  19.214  0.00  0.00    +0.000 Cl
ATOM      6  C   UNL     1       7.018   4.827  17.014  0.00  0.00    +0.000 A 
ATOM      7  C   UNL     1       5.908   4.297  16.377  0.00  0.00    +0.000 A 
ATOM      8 CL   UNL     1       5.988   3.974  14.687  0.00  0.00    +0.000 Cl
ATOM      9  C   UNL     1       4.715   4.047  17.081  0.00  0.00    +0.000 A 
ENDBRANCH   1   2
BRANCH   1  11
ATOM     10  C   UNL     1       1.723   2.610  20.328  0.00  0.00    +0.000 C 
ATOM     11  C   UNL     1       2.448   2.992  19.009  0.00  0.00    +0.000 C 
ATOM     12  C   UNL     1       3.289   1.750  18.643  0.00  0.00    +0.000 C 
ATOM     13  C   UNL     1       1.277   3.261  18.026  0.00  0.00    +0.000 C 
ENDBRANCH   1  11
BRANCH   1  14
ATOM     14  C   UNL     1       3.015   5.223  20.187  0.00  0.00    +0.000 C 
BRANCH  14  15
ATOM     15  C   UNL     1       2.444   6.513  19.635  0.00  0.00    +0.000 A 
ATOM     16  C   UNL     1       2.564   6.908  18.355  0.00  0.00    +0.000 A 
ATOM     17  C   UNL     1       2.093   8.316  18.336  0.00  0.00    +0.000 A 
ATOM     18  O   UNL     1       2.076   9.032  17.358  0.00  0.00    +0.000 OA
ATOM     19  N   UNL     1       1.764   8.628  19.634  0.00  0.00    +0.000 N 
ATOM     20  N   UNL     1       1.842   7.489  20.424  0.00  0.00    +0.000 N 
ATOM     21  H   UNL     1       1.379   9.504  19.959  0.00  0.00    +0.000 HD
ATOM     22  H   UNL     1       2.303   7.589  21.329  0.00  0.00    +0.000 HD
ENDBRANCH  14  15
ENDBRANCH   1  14
TORSDOF 4
ENDMDL
MODEL 2
REMARK VINA RESULT:      -7.4      1.359      1.549
REMARK  Name = 
REMARK  7 active torsions:
REMARK  status: ('A' for Active; 'I' for Inactive)
REMARK    1  A    between atoms: C_1  and  C_2
REMARK    2  A    between atoms: C_2  and  C_3
REMARK    3  A    between atoms: C_2  and  C_4
REMARK    4  A    between atoms: C_2  and  N_5
REMARK    5  A    between atoms: N_5  and  C_6
REMARK    6  A    between atoms: N_5  and  C_13
REMARK    7  A    between atoms: C_6  and  C_7
REMARK                            x       y       z     vdW  Elec       q    Type
REMARK                         _______ _______ _______ _____ _____    ______ ____
ROOT
ATOM      1  N   UNL     1       3.203   3.718  18.117  0.00  0.00    +0.000 N 
ENDROOT
BRANCH   1   2
ATOM      2  C   UNL     1       4.522   4.045  17.733  0.00  0.00    +0.000 A 
ATOM      3  C   UNL     1       5.471   4.571  18.630  0.00  0.00    +0.000 A 
ATOM      4  C   UNL     1       6.738   5.015  18.242  0.00  0.00    +0.000 A 
ATOM      5 CL   UNL     1       7.788   5.697  19.424  0.00  0.00    +0.000 Cl
ATOM      6  C   UNL     1       7.133   4.944  16.922  0.00  0.00    +0.000 A 
ATOM      7  C   UNL     1       6.251   4.393  16.008  0.00  0.00    +0.000 A 
ATOM      8 CL   UNL     1       6.717   4.292  14.353  0.00  0.00    +0.000 Cl
ATOM      9  C   UNL     1       4.978   3.943  16.404  0.00  0.00    +0.000 A 
ENDBRANCH   1   2
BRANCH   1  11
ATOM     10  C   UNL     1       3.236   2.738  20.495  0.00  0.00    +0.000 C 
ATOM     11  C   UNL     1       2.871   2.527  19.000  0.00  0.00    +0.000 C 
ATOM     12  C   UNL     1       3.690   1.295  18.560  0.00  0.00    +0.000 C 
ATOM     13  C   UNL     1       1.340   2.272  19.042  0.00  0.00    +0.000 C 
ENDBRANCH   1  11
BRANCH   1  14
ATOM     14  C   UNL     1       2.115   4.698  17.816  0.00  0.00    +0.000 C 
BRANCH  14  15
ATOM     15  C   UNL     1       2.224   5.991  18.597  0.00  0.00    +0.000 A 
ATOM     16  C   UNL     1       1.929   6.115  19.903  0.00  0.00    +0.000 A 
ATOM     17  C   UNL     1       1.930   7.576  20.166  0.00  0.00    +0.000 A 
ATOM     18  O   UNL     1       1.677   8.093  21.234  0.00  0.00    +0.000 OA
ATOM     19  N   UNL     1       2.201   8.182  18.962  0.00  0.00    +0.000 N 
ATOM     20  N   UNL     1       2.521   7.220  18.015  0.00  0.00    +0.000 N 
ATOM     21  H   UNL     1       2.303   9.175  18.802  0.00  0.00    +0.000 HD
ATOM     22  H   UNL     1       2.093   7.322  17.093  0.00  0.00    +0.000 HD
ENDBRANCH  14  15
ENDBRANCH   1  14
TORSDOF 4
ENDMDL
MODEL 3
REMARK VINA RESULT:      -7.4      0.247      1.030
REMARK  Name = 
REMARK  7 active torsions:
REMARK  status: ('A' for Active; 'I' for Inactive)
REMARK    1  A    between atoms: C_1  and  C_2
REMARK    2  A    between atoms: C_2  and  C_3
REMARK    3  A    between atoms: C_2  and  C_4
REMARK    4  A    between atoms: C_2  and  N_5
REMARK    5  A    between atoms: N_5  and  C_6
REMARK    6  A    between atoms: N_5  and  C_13
REMARK    7  A    between atoms: C_6  and  C_7
REMARK                            x       y       z     vdW  Elec       q    Type
REMARK                         _______ _______ _______ _____ _____    ______ ____
ROOT
ATOM      1  N   UNL     1       3.261   4.422  19.217  0.00  0.00    +0.000 N 
ENDROOT
BRANCH   1   2
ATOM      2  C   UNL     1       4.479   4.483  18.504  0.00  0.00    +0.000 A 
ATOM      3  C   UNL     1       5.690   4.891  19.094  0.00  0.00    +0.000 A 
ATOM      4  C   UNL     1       6.876   5.076  18.376  0.00  0.00    +0.000 A 
ATOM      5 CL   UNL     1       8.279   5.639  19.201  0.00  0.00    +0.000 Cl
ATOM      6  C   UNL     1       6.916   4.846  17.016  0.00  0.00    +0.000 A 
ATOM      7  C   UNL     1       5.760   4.400  16.397  0.00  0.00    +0.000 A 
ATOM      8 CL   UNL     1       5.780   4.107  14.700  0.00  0.00    +0.000 Cl
ATOM      9  C   UNL     1       4.570   4.212  17.125  0.00  0.00    +0.000 A 
ENDBRANCH   1   2
BRANCH   1  11
ATOM     10  C   UNL     1       1.302   3.303  17.983  0.00  0.00    +0.000 C 
ATOM     11  C   UNL     1       2.324   3.228  19.150  0.00  0.00    +0.000 C 
ATOM     12  C   UNL     1       1.464   3.154  20.429  0.00  0.00    +0.000 C 
ATOM     13  C   UNL     1       3.107   1.920  18.851  0.00  0.00    +0.000 C 
ENDBRANCH   1  11
BRANCH   1  14
ATOM     14  C   UNL     1       2.985   5.480  20.236  0.00  0.00    +0.000 C 
BRANCH  14  15
ATOM     15  C   UNL     1       2.390   6.746  19.656  0.00  0.00    +0.000 A 
ATOM     16  C   UNL     1       2.489   7.108  18.365  0.00  0.00    +0.000 A 
ATOM     17  C   UNL     1       1.998   8.508  18.314  0.00  0.00    +0.000 A 
ATOM     18  O   UNL     1       1.960   9.198  17.317  0.00  0.00    +0.000 OA
ATOM     19  N   UNL     1       1.679   8.850  19.607  0.00  0.00    +0.000 N 
ATOM     20  N   UNL     1       1.783   7.735  20.425  0.00  0.00    +0.000 N 
ATOM     21  H   UNL     1       1.286   9.730  19.913  0.00  0.00    +0.000 HD
ATOM     22  H   UNL     1       2.252   7.866  21.323  0.00  0.00    +0.000 HD
ENDBRANCH  14  15
ENDBRANCH   1  14
TORSDOF 4
ENDMDL
MODEL 4
REMARK VINA RESULT:      -7.4      1.363      2.517
REMARK  Name = 
REMARK  7 active torsions:
REMARK  status: ('A' for Active; 'I' for Inactive)
REMARK    1  A    between atoms: C_1  and  C_2
REMARK    2  A    between atoms: C_2  and  C_3
REMARK    3  A    between atoms: C_2  and  C_4
REMARK    4  A    between atoms: C_2  and  N_5
REMARK    5  A    between atoms: N_5  and  C_6
REMARK    6  A    between atoms: N_5  and  C_13
REMARK    7  A    between atoms: C_6  and  C_7
REMARK                            x       y       z     vdW  Elec       q    Type
REMARK                         _______ _______ _______ _____ _____    ______ ____
ROOT
ATOM      1  N   UNL     1       3.145   3.792  18.112  0.00  0.00    +0.000 N 
ENDROOT
BRANCH   1   2
ATOM      2  C   UNL     1       4.427   4.183  17.667  0.00  0.00    +0.000 A 
ATOM      3  C   UNL     1       4.857   4.021  16.336  0.00  0.00    +0.000 A 
ATOM      4  C   UNL     1       6.161   4.286  15.907  0.00  0.00    +0.000 A 
ATOM      5 CL   UNL     1       6.581   3.989  14.264  0.00  0.00    +0.000 Cl
ATOM      6  C   UNL     1       7.111   4.746  16.795  0.00  0.00    +0.000 A 
ATOM      7  C   UNL     1       6.725   4.964  18.107  0.00  0.00    +0.000 A 
ATOM      8 CL   UNL     1       7.892   5.536  19.238  0.00  0.00    +0.000 Cl
ATOM      9  C   UNL     1       5.411   4.698  18.533  0.00  0.00    +0.000 A 
ENDBRANCH   1   2
BRANCH   1  11
ATOM     10  C   UNL     1       3.356   2.745  20.451  0.00  0.00    +0.000 C 
ATOM     11  C   UNL     1       2.908   2.565  18.975  0.00  0.00    +0.000 C 
ATOM     12  C   UNL     1       3.740   1.376  18.449  0.00  0.00    +0.000 C 
ATOM     13  C   UNL     1       1.391   2.254  19.102  0.00  0.00    +0.000 C 
ENDBRANCH   1  11
BRANCH   1  14
ATOM     14  C   UNL     1       2.005   4.735  17.899  0.00  0.00    +0.000 C 
BRANCH  14  15
ATOM     15  C   UNL     1       2.137   6.036  18.664  0.00  0.00    +0.000 A 
ATOM     16  C   UNL     1       1.888   6.170  19.979  0.00  0.00    +0.000 A 
ATOM     17  C   UNL     1       1.893   7.634  20.229  0.00  0.00    +0.000 A 
ATOM     18  O   UNL     1       1.676   8.159  21.300  0.00  0.00    +0.000 OA
ATOM     19  N   UNL     1       2.119   8.230  19.011  0.00  0.00    +0.000 N 
ATOM     20  N   UNL     1       2.409   7.260  18.061  0.00  0.00    +0.000 N 
ATOM     21  H   UNL     1       2.213   9.222  18.839  0.00  0.00    +0.000 HD
ATOM     22  H   UNL     1       1.948   7.353  17.154  0.00  0.00    +0.000 HD
ENDBRANCH  14  15
ENDBRANCH   1  14
TORSDOF 4
ENDMDL
MODEL 5
REMARK VINA RESULT:      -7.4      0.510      2.065
REMARK  Name = 
REMARK  7 active torsions:
REMARK  status: ('A' for Active; 'I' for Inactive)
REMARK    1  A    between atoms: C_1  and  C_2
REMARK    2  A    between atoms: C_2  and  C_3
REMARK    3  A    between atoms: C_2  and  C_4
REMARK    4  A    between atoms: C_2  and  N_5
REMARK    5  A    between atoms: N_5  and  C_6
REMARK    6  A    between atoms: N_5  and  C_13
REMARK    7  A    between atoms: C_6  and  C_7
REMARK                            x       y       z     vdW  Elec       q    Type
REMARK                         _______ _______ _______ _____ _____    ______ ____
ROOT
ATOM      1  N   UNL     1       3.229   4.727  19.053  0.00  0.00    +0.000 N 
ENDROOT
BRANCH   1   2
ATOM      2  C   UNL     1       4.491   4.798  18.423  0.00  0.00    +0.000 A 
ATOM      3  C   UNL     1       4.703   4.397  17.090  0.00  0.00    +0.000 A 
ATOM      4  C   UNL     1       5.966   4.344  16.491  0.00  0.00    +0.000 A 
ATOM      5 CL   UNL     1       6.103   3.777  14.871  0.00  0.00    +0.000 Cl
ATOM      6  C   UNL     1       7.093   4.707  17.198  0.00  0.00    +0.000 A 
ATOM      7  C   UNL     1       6.931   5.151  18.499  0.00  0.00    +0.000 A 
ATOM      8 CL   UNL     1       8.322   5.608  19.406  0.00  0.00    +0.000 Cl
ATOM      9  C   UNL     1       5.658   5.206  19.097  0.00  0.00    +0.000 A 
ENDBRANCH   1   2
BRANCH   1  11
ATOM     10  C   UNL     1       1.234   3.411  20.005  0.00  0.00    +0.000 C 
ATOM     11  C   UNL     1       2.275   3.559  18.862  0.00  0.00    +0.000 C 
ATOM     12  C   UNL     1       3.057   2.229  18.861  0.00  0.00    +0.000 C 
ATOM     13  C   UNL     1       1.390   3.760  17.601  0.00  0.00    +0.000 C 
ENDBRANCH   1  11
BRANCH   1  14
ATOM     14  C   UNL     1       2.906   5.736  20.108  0.00  0.00    +0.000 C 
BRANCH  14  15
ATOM     15  C   UNL     1       2.288   7.008  19.567  0.00  0.00    +0.000 A 
ATOM     16  C   UNL     1       2.460   7.461  18.313  0.00  0.00    +0.000 A 
ATOM     17  C   UNL     1       1.901   8.837  18.315  0.00  0.00    +0.000 A 
ATOM     18  O   UNL     1       1.898   9.590  17.364  0.00  0.00    +0.000 OA
ATOM     19  N   UNL     1       1.473   9.074  19.599  0.00  0.00    +0.000 N 
ATOM     20  N   UNL     1       1.576   7.912  20.350  0.00  0.00    +0.000 N 
ATOM     21  H   UNL     1       1.012   9.911  19.930  0.00  0.00    +0.000 HD
ATOM     22  H   UNL     1       1.972   8.005  21.287  0.00  0.00    +0.000 HD
ENDBRANCH  14  15
ENDBRANCH   1  14
TORSDOF 4
ENDMDL
MODEL 6
REMARK VINA RESULT:      -7.3      2.859      4.974
REMARK  Name = 
REMARK  7 active torsions:
REMARK  status: ('A' for Active; 'I' for Inactive)
REMARK    1  A    between atoms: C_1  and  C_2
REMARK    2  A    between atoms: C_2  and  C_3
REMARK    3  A    between atoms: C_2  and  C_4
REMARK    4  A    between atoms: C_2  and  N_5
REMARK    5  A    between atoms: N_5  and  C_6
REMARK    6  A    between atoms: N_5  and  C_13
REMARK    7  A    between atoms: C_6  and  C_7
REMARK                            x       y       z     vdW  Elec       q    Type
REMARK                         _______ _______ _______ _____ _____    ______ ____
ROOT
ATOM      1  N   UNL     1       3.457   4.054  18.181  0.00  0.00    +0.000 N 
ENDROOT
BRANCH   1   2
ATOM      2  C   UNL     1       4.738   4.448  17.736  0.00  0.00    +0.000 A 
ATOM      3  C   UNL     1       5.152   4.328  16.396  0.00  0.00    +0.000 A 
ATOM      4  C   UNL     1       6.453   4.596  15.961  0.00  0.00    +0.000 A 
ATOM      5 CL   UNL     1       6.853   4.352  14.304  0.00  0.00    +0.000 Cl
ATOM      6  C   UNL     1       7.418   5.017  16.853  0.00  0.00    +0.000 A 
ATOM      7  C   UNL     1       7.049   5.193  18.176  0.00  0.00    +0.000 A 
ATOM      8 CL   UNL     1       8.233   5.715  19.312  0.00  0.00    +0.000 Cl
ATOM      9  C   UNL     1       5.736   4.925  18.608  0.00  0.00    +0.000 A 
ENDBRANCH   1   2
BRANCH   1  11
ATOM     10  C   UNL     1       2.705   6.513  18.125  0.00  0.00    +0.000 C 
ATOM     11  C   UNL     1       2.351   5.047  18.496  0.00  0.00    +0.000 C 
ATOM     12  C   UNL     1       2.077   5.075  20.014  0.00  0.00    +0.000 C 
ATOM     13  C   UNL     1       1.085   4.762  17.642  0.00  0.00    +0.000 C 
ENDBRANCH   1  11
BRANCH   1  14
ATOM     14  C   UNL     1       3.111   2.601  18.143  0.00  0.00    +0.000 C 
BRANCH  14  15
ATOM     15  C   UNL     1       3.886   1.761  19.137  0.00  0.00    +0.000 A 
ATOM     16  C   UNL     1       4.238   2.175  20.367  0.00  0.00    +0.000 A 
ATOM     17  C   UNL     1       5.186   1.148  20.868  0.00  0.00    +0.000 A 
ATOM     18  O   UNL     1       5.750   1.184  21.941  0.00  0.00    +0.000 OA
ATOM     19  N   UNL     1       5.326   0.229  19.855  0.00  0.00    +0.000 N 
ATOM     20  N   UNL     1       4.429   0.515  18.836  0.00  0.00    +0.000 N 
ATOM     21  H   UNL     1       5.880  -0.616  19.887  0.00  0.00    +0.000 HD
ATOM     22  H   UNL     1       4.789   0.473  17.881  0.00  0.00    +0.000 HD
ENDBRANCH  14  15
ENDBRANCH   1  14
TORSDOF 4
ENDMDL
MODEL 7
REMARK VINA RESULT:      -7.3      2.871      4.525
REMARK  Name = 
REMARK  7 active torsions:
REMARK  status: ('A' for Active; 'I' for Inactive)
REMARK    1  A    between atoms: C_1  and  C_2
REMARK    2  A    between atoms: C_2  and  C_3
REMARK    3  A    between atoms: C_2  and  C_4
REMARK    4  A    between atoms: C_2  and  N_5
REMARK    5  A    between atoms: N_5  and  C_6
REMARK    6  A    between atoms: N_5  and  C_13
REMARK    7  A    between atoms: C_6  and  C_7
REMARK                            x       y       z     vdW  Elec       q    Type
REMARK                         _______ _______ _______ _____ _____    ______ ____
ROOT
ATOM      1  N   UNL     1       3.636   4.292  17.874  0.00  0.00    +0.000 N 
ENDROOT
BRANCH   1   2
ATOM      2  C   UNL     1       4.910   4.683  17.408  0.00  0.00    +0.000 A 
ATOM      3  C   UNL     1       5.854   5.338  18.221  0.00  0.00    +0.000 A 
ATOM      4  C   UNL     1       7.068   5.842  17.745  0.00  0.00    +0.000 A 
ATOM      5 CL   UNL     1       8.113   6.680  18.828  0.00  0.00    +0.000 Cl
ATOM      6  C   UNL     1       7.412   5.703  16.416  0.00  0.00    +0.000 A 
ATOM      7  C   UNL     1       6.536   5.026  15.585  0.00  0.00    +0.000 A 
ATOM      8 CL   UNL     1       6.939   4.839  13.921  0.00  0.00    +0.000 Cl
ATOM      9  C   UNL     1       5.317   4.518  16.070  0.00  0.00    +0.000 A 
ENDBRANCH   1   2
BRANCH   1  11
ATOM     10  C   UNL     1       2.395   5.399  19.837  0.00  0.00    +0.000 C 
ATOM     11  C   UNL     1       2.570   5.289  18.297  0.00  0.00    +0.000 C 
ATOM     12  C   UNL     1       1.188   4.846  17.770  0.00  0.00    +0.000 C 
ATOM     13  C   UNL     1       2.959   6.734  17.881  0.00  0.00    +0.000 C 
ENDBRANCH   1  11
BRANCH   1  14
ATOM     14  C   UNL     1       3.248   2.854  17.750  0.00  0.00    +0.000 C 
BRANCH  14  15
ATOM     15  C   UNL     1       3.868   1.961  18.805  0.00  0.00    +0.000 A 
ATOM     16  C   UNL     1       4.269   2.384  20.016  0.00  0.00    +0.000 A 
ATOM     17  C   UNL     1       5.035   1.250  20.592  0.00  0.00    +0.000 A 
ATOM     18  O   UNL     1       5.586   1.258  21.673  0.00  0.00    +0.000 OA
ATOM     19  N   UNL     1       5.035   0.263  19.636  0.00  0.00    +0.000 N 
ATOM     20  N   UNL     1       4.205   0.628  18.585  0.00  0.00    +0.000 N 
ATOM     21  H   UNL     1       5.446  -0.657  19.726  0.00  0.00    +0.000 HD
ATOM     22  H   UNL     1       4.564   0.474  17.642  0.00  0.00    +0.000 HD
ENDBRANCH  14  15
ENDBRANCH   1  14
TORSDOF 4
ENDMDL
MODEL 8
REMARK VINA RESULT:      -7.3      0.506      2.259
REMARK  Name = 
REMARK  7 active torsions:
REMARK  status: ('A' for Active; 'I' for Inactive)
REMARK    1  A    between atoms: C_1  and  C_2
REMARK    2  A    between atoms: C_2  and  C_3
REMARK    3  A    between atoms: C_2  and  C_4
REMARK    4  A    between atoms: C_2  and  N_5
REMARK    5  A    between atoms: N_5  and  C_6
REMARK    6  A    between atoms: N_5  and  C_13
REMARK    7  A    between atoms: C_6  and  C_7
REMARK                            x       y       z     vdW  Elec       q    Type
REMARK                         _______ _______ _______ _____ _____    ______ ____
ROOT
ATOM      1  N   UNL     1       3.224   4.732  19.004  0.00  0.00    +0.000 N 
ENDROOT
BRANCH   1   2
ATOM      2  C   UNL     1       4.490   4.799  18.382  0.00  0.00    +0.000 A 
ATOM      3  C   UNL     1       4.709   4.397  17.051  0.00  0.00    +0.000 A 
ATOM      4  C   UNL     1       5.975   4.339  16.459  0.00  0.00    +0.000 A 
ATOM      5 CL   UNL     1       6.120   3.770  14.840  0.00  0.00    +0.000 Cl
ATOM      6  C   UNL     1       7.100   4.698  17.172  0.00  0.00    +0.000 A 
ATOM      7  C   UNL     1       6.931   5.144  18.472  0.00  0.00    +0.000 A 
ATOM      8 CL   UNL     1       8.318   5.597  19.387  0.00  0.00    +0.000 Cl
ATOM      9  C   UNL     1       5.655   5.203  19.062  0.00  0.00    +0.000 A 
ENDBRANCH   1   2
BRANCH   1  11
ATOM     10  C   UNL     1       2.958   2.221  18.516  0.00  0.00    +0.000 C 
ATOM     11  C   UNL     1       2.258   3.580  18.789  0.00  0.00    +0.000 C 
ATOM     12  C   UNL     1       1.390   3.840  17.540  0.00  0.00    +0.000 C 
ATOM     13  C   UNL     1       1.430   3.299  20.073  0.00  0.00    +0.000 C 
ENDBRANCH   1  11
BRANCH   1  14
ATOM     14  C   UNL     1       2.909   5.727  20.075  0.00  0.00    +0.000 C 
BRANCH  14  15
ATOM     15  C   UNL     1       2.290   7.008  19.555  0.00  0.00    +0.000 A 
ATOM     16  C   UNL     1       2.459   7.480  18.307  0.00  0.00    +0.000 A 
ATOM     17  C   UNL     1       1.900   8.855  18.331  0.00  0.00    +0.000 A 
ATOM     18  O   UNL     1       1.894   9.623  17.392  0.00  0.00    +0.000 OA
ATOM     19  N   UNL     1       1.475   9.074  19.620  0.00  0.00    +0.000 N 
ATOM     20  N   UNL     1       1.580   7.900  20.353  0.00  0.00    +0.000 N 
ATOM     21  H   UNL     1       1.015   9.906  19.965  0.00  0.00    +0.000 HD
ATOM     22  H   UNL     1       1.978   7.978  21.290  0.00  0.00    +0.000 HD
ENDBRANCH  14  15
ENDBRANCH   1  14
TORSDOF 4
ENDMDL
MODEL 9
REMARK VINA RESULT:      -7.2      0.323      2.274
REMARK  Name = 
REMARK  7 active torsions:
REMARK  status: ('A' for Active; 'I' for Inactive)
REMARK    1  A    between atoms: C_1  and  C_2
REMARK    2  A    between atoms: C_2  and  C_3
REMARK    3  A    between atoms: C_2  and  C_4
REMARK    4  A    between atoms: C_2  and  N_5
REMARK    5  A    between atoms: N_5  and  C_6
REMARK    6  A    between atoms: N_5  and  C_13
REMARK    7  A    between atoms: C_6  and  C_7
REMARK                            x       y       z     vdW  Elec       q    Type
REMARK                         _______ _______ _______ _____ _____    ______ ____
ROOT
ATOM      1  N   UNL     1       3.436   4.182  19.056  0.00  0.00    +0.000 N 
ENDROOT
BRANCH   1   2
ATOM      2  C   UNL     1       4.660   4.466  18.410  0.00  0.00    +0.000 A 
ATOM      3  C   UNL     1       4.887   4.191  17.048  0.00  0.00    +0.000 A 
ATOM      4  C   UNL     1       6.128   4.350  16.424  0.00  0.00    +0.000 A 
ATOM      5 CL   UNL     1       6.294   3.921  14.764  0.00  0.00    +0.000 Cl
ATOM      6  C   UNL     1       7.217   4.809  17.134  0.00  0.00    +0.000 A 
ATOM      7  C   UNL     1       7.034   5.136  18.468  0.00  0.00    +0.000 A 
ATOM      8 CL   UNL     1       8.377   5.710  19.380  0.00  0.00    +0.000 Cl
ATOM      9  C   UNL     1       5.781   4.978  19.091  0.00  0.00    +0.000 A 
ENDBRANCH   1   2
BRANCH   1  11
ATOM     10  C   UNL     1       2.000   2.742  17.482  0.00  0.00    +0.000 C 
ATOM     11  C   UNL     1       2.687   2.874  18.869  0.00  0.00    +0.000 C 
ATOM     12  C   UNL     1       1.539   2.767  19.894  0.00  0.00    +0.000 C 
ATOM     13  C   UNL     1       3.661   1.664  18.898  0.00  0.00    +0.000 C 
ENDBRANCH   1  11
BRANCH   1  14
ATOM     14  C   UNL     1       2.967   5.118  20.124  0.00  0.00    +0.000 C 
BRANCH  14  15
ATOM     15  C   UNL     1       2.428   6.430  19.592  0.00  0.00    +0.000 A 
ATOM     16  C   UNL     1       2.515   6.820  18.308  0.00  0.00    +0.000 A 
ATOM     17  C   UNL     1       2.100   8.246  18.306  0.00  0.00    +0.000 A 
ATOM     18  O   UNL     1       2.075   8.964  17.328  0.00  0.00    +0.000 OA
ATOM     19  N   UNL     1       1.833   8.570  19.615  0.00  0.00    +0.000 N 
ATOM     20  N   UNL     1       1.895   7.428  20.402  0.00  0.00    +0.000 N 
ATOM     21  H   UNL     1       1.495   9.461  19.954  0.00  0.00    +0.000 HD
ATOM     22  H   UNL     1       2.393   7.509  21.290  0.00  0.00    +0.000 HD
ENDBRANCH  14  15
ENDBRANCH   1  14
TORSDOF 4
ENDMDL
