MODEL 1
REMARK VINA RESULT:      -8.1      0.000      0.000
REMARK  Name = 
REMARK  10 active torsions:
REMARK  status: ('A' for Active; 'I' for Inactive)
REMARK    1  A    between atoms: C_1  and  C_2
REMARK    2  A    between atoms: C_2  and  N_3
REMARK    3  A    between atoms: N_7  and  C_8
REMARK    4  A    between atoms: C_8  and  C_9
REMARK    5  A    between atoms: C_11  and  S_12
REMARK    6  A    between atoms: S_12  and  C_13
REMARK    7  A    between atoms: C_13  and  C_14
REMARK    8  A    between atoms: N_16  and  C_17
REMARK    9  A    between atoms: C_20  and  C_21
REMARK   10  A    between atoms: C_21  and  C_22
REMARK                            x       y       z     vdW  Elec       q    Type
REMARK                         _______ _______ _______ _____ _____    ______ ____
ROOT
ATOM      1  N   UNL     1       8.518   8.532  17.423  0.00  0.00    +0.000 N 
ATOM      2  C   UNL     1       7.807   7.361  17.544  0.00  0.00    +0.000 A 
ATOM      3  N   UNL     1       7.376   6.827  16.362  0.00  0.00    +0.000 NA
ATOM      4  C   UNL     1       6.644   5.739  16.345  0.00  0.00    +0.000 A 
ATOM      5  N   UNL     1       6.284   5.336  15.076  0.00  0.00    +0.000 N 
ATOM      6  N   UNL     1       6.315   5.129  17.568  0.00  0.00    +0.000 N 
ATOM      7  C   UNL     1       5.557   4.059  18.024  0.00  0.00    +0.000 A 
ATOM      8  N   UNL     1       5.690   3.938  19.325  0.00  0.00    +0.000 NA
ATOM      9  N   UNL     1       6.484   4.958  19.763  0.00  0.00    +0.000 NA
ATOM     10  C   UNL     1       6.831   5.691  18.723  0.00  0.00    +0.000 A 
ATOM     11  N   UNL     1       7.563   6.831  18.698  0.00  0.00    +0.000 NA
ATOM     12  H   UNL     1       8.485   8.900  16.481  0.00  0.00    +0.000 HD
ATOM     13  H   UNL     1       6.738   5.926  14.385  0.00  0.00    +0.000 HD
ENDROOT
BRANCH   1  15
ATOM     14  C   UNL     1       9.088  10.847  17.996  0.00  0.00    +0.000 C 
ATOM     15  C   UNL     1       8.520   9.525  18.484  0.00  0.00    +0.000 C 
ENDBRANCH   1  15
BRANCH   5  16
ATOM     16  C   UNL     1       6.011   4.000  14.604  0.00  0.00    +0.000 C 
ATOM     17  C   UNL     1       6.227   3.862  13.111  0.00  0.00    +0.000 C 
ENDBRANCH   5  16
BRANCH   7  18
ATOM     18  S   UNL     1       4.485   3.050  17.116  0.00  0.00    +0.000 S 
BRANCH  18  19
ATOM     19  C   UNL     1       2.943   3.067  18.061  0.00  0.00    +0.000 C 
BRANCH  19  20
ATOM     20  C   UNL     1       2.191   4.405  17.932  0.00  0.00    +0.000 C 
ATOM     21  O   UNL     1       1.097   4.520  17.385  0.00  0.00    +0.000 OA
ATOM     22  N   UNL     1       2.897   5.437  18.549  0.00  0.00    +0.000 N 
ATOM     23  H   UNL     1       3.839   5.230  18.841  0.00  0.00    +0.000 HD
BRANCH  22  24
ATOM     24  C   UNL     1       2.441   6.742  18.856  0.00  0.00    +0.000 A 
ATOM     25  C   UNL     1       2.331   7.775  17.930  0.00  0.00    +0.000 A 
ATOM     26  C   UNL     1       1.745   8.995  18.296  0.00  0.00    +0.000 A 
ATOM     27  C   UNL     1       1.273   9.209  19.598  0.00  0.00    +0.000 A 
ATOM     28  C   UNL     1       1.431   8.189  20.540  0.00  0.00    +0.000 A 
ATOM     29  C   UNL     1       2.008   6.968  20.169  0.00  0.00    +0.000 A 
BRANCH  27  30
ATOM     30  C   UNL     1       0.543  10.479  19.955  0.00  0.00    +0.000 C 
ATOM     31  C   UNL     1      -0.231  10.328  21.259  0.00  0.00    +0.000 C 
ENDBRANCH  27  30
ENDBRANCH  22  24
ENDBRANCH  19  20
ENDBRANCH  18  19
ENDBRANCH   7  18
TORSDOF 7
ENDMDL
MODEL 2
REMARK VINA RESULT:      -7.9      1.096      1.520
REMARK  Name = 
REMARK  10 active torsions:
REMARK  status: ('A' for Active; 'I' for Inactive)
REMARK    1  A    between atoms: C_1  and  C_2
REMARK    2  A    between atoms: C_2  and  N_3
REMARK    3  A    between atoms: N_7  and  C_8
REMARK    4  A    between atoms: C_8  and  C_9
REMARK    5  A    between atoms: C_11  and  S_12
REMARK    6  A    between atoms: S_12  and  C_13
REMARK    7  A    between atoms: C_13  and  C_14
REMARK    8  A    between atoms: N_16  and  C_17
REMARK    9  A    between atoms: C_20  and  C_21
REMARK   10  A    between atoms: C_21  and  C_22
REMARK                            x       y       z     vdW  Elec       q    Type
REMARK                         _______ _______ _______ _____ _____    ______ ____
ROOT
ATOM      1  N   UNL     1       8.639   9.439  17.817  0.00  0.00    +0.000 N 
ATOM      2  C   UNL     1       8.039   8.205  17.909  0.00  0.00    +0.000 A 
ATOM      3  N   UNL     1       7.228   7.883  16.858  0.00  0.00    +0.000 NA
ATOM      4  C   UNL     1       6.557   6.756  16.849  0.00  0.00    +0.000 A 
ATOM      5  N   UNL     1       5.780   6.585  15.723  0.00  0.00    +0.000 N 
ATOM      6  N   UNL     1       6.693   5.882  17.941  0.00  0.00    +0.000 N 
ATOM      7  C   UNL     1       6.164   4.675  18.377  0.00  0.00    +0.000 A 
ATOM      8  N   UNL     1       6.752   4.306  19.493  0.00  0.00    +0.000 NA
ATOM      9  N   UNL     1       7.630   5.287  19.851  0.00  0.00    +0.000 NA
ATOM     10  C   UNL     1       7.574   6.246  18.945  0.00  0.00    +0.000 A 
ATOM     11  N   UNL     1       8.228   7.432  18.929  0.00  0.00    +0.000 NA
ATOM     12  H   UNL     1       8.269   9.985  17.051  0.00  0.00    +0.000 HD
ATOM     13  H   UNL     1       5.949   7.344  15.068  0.00  0.00    +0.000 HD
ENDROOT
BRANCH   1  15
ATOM     14  C   UNL     1      10.126  11.168  18.719  0.00  0.00    +0.000 C 
ATOM     15  C   UNL     1       8.998  10.192  19.008  0.00  0.00    +0.000 C 
ENDBRANCH   1  15
BRANCH   5  16
ATOM     16  C   UNL     1       5.382   5.353  15.086  0.00  0.00    +0.000 C 
ATOM     17  C   UNL     1       6.542   4.656  14.405  0.00  0.00    +0.000 C 
ENDBRANCH   5  16
BRANCH   7  18
ATOM     18  S   UNL     1       4.860   3.772  17.688  0.00  0.00    +0.000 S 
BRANCH  18  19
ATOM     19  C   UNL     1       3.502   3.973  18.866  0.00  0.00    +0.000 C 
BRANCH  19  20
ATOM     20  C   UNL     1       2.546   5.114  18.471  0.00  0.00    +0.000 C 
ATOM     21  O   UNL     1       1.554   4.954  17.764  0.00  0.00    +0.000 OA
ATOM     22  N   UNL     1       2.938   6.319  19.051  0.00  0.00    +0.000 N 
ATOM     23  H   UNL     1       3.841   6.335  19.496  0.00  0.00    +0.000 HD
BRANCH  22  24
ATOM     24  C   UNL     1       2.203   7.527  19.129  0.00  0.00    +0.000 A 
ATOM     25  C   UNL     1       1.617   8.018  20.292  0.00  0.00    +0.000 A 
ATOM     26  C   UNL     1       1.022   9.288  20.303  0.00  0.00    +0.000 A 
ATOM     27  C   UNL     1       0.990  10.082  19.150  0.00  0.00    +0.000 A 
ATOM     28  C   UNL     1       1.534   9.567  17.970  0.00  0.00    +0.000 A 
ATOM     29  C   UNL     1       2.136   8.303  17.964  0.00  0.00    +0.000 A 
BRANCH  27  30
ATOM     30  C   UNL     1       0.451  11.490  19.197  0.00  0.00    +0.000 C 
ATOM     31  C   UNL     1      -0.916  11.584  18.530  0.00  0.00    +0.000 C 
ENDBRANCH  27  30
ENDBRANCH  22  24
ENDBRANCH  19  20
ENDBRANCH  18  19
ENDBRANCH   7  18
TORSDOF 7
ENDMDL
MODEL 3
REMARK VINA RESULT:      -7.6      1.375      1.771
REMARK  Name = 
REMARK  10 active torsions:
REMARK  status: ('A' for Active; 'I' for Inactive)
REMARK    1  A    between atoms: C_1  and  C_2
REMARK    2  A    between atoms: C_2  and  N_3
REMARK    3  A    between atoms: N_7  and  C_8
REMARK    4  A    between atoms: C_8  and  C_9
REMARK    5  A    between atoms: C_11  and  S_12
REMARK    6  A    between atoms: S_12  and  C_13
REMARK    7  A    between atoms: C_13  and  C_14
REMARK    8  A    between atoms: N_16  and  C_17
REMARK    9  A    between atoms: C_20  and  C_21
REMARK   10  A    between atoms: C_21  and  C_22
REMARK                            x       y       z     vdW  Elec       q    Type
REMARK                         _______ _______ _______ _____ _____    ______ ____
ROOT
ATOM      1  N   UNL     1       8.634   9.383  17.607  0.00  0.00    +0.000 N 
ATOM      2  C   UNL     1       7.996   8.187  17.837  0.00  0.00    +0.000 A 
ATOM      3  N   UNL     1       7.099   7.821  16.873  0.00  0.00    +0.000 NA
ATOM      4  C   UNL     1       6.388   6.725  16.999  0.00  0.00    +0.000 A 
ATOM      5  N   UNL     1       5.525   6.503  15.947  0.00  0.00    +0.000 N 
ATOM      6  N   UNL     1       6.571   5.932  18.145  0.00  0.00    +0.000 N 
ATOM      7  C   UNL     1       6.032   4.785  18.710  0.00  0.00    +0.000 A 
ATOM      8  N   UNL     1       6.684   4.476  19.808  0.00  0.00    +0.000 NA
ATOM      9  N   UNL     1       7.622   5.443  20.025  0.00  0.00    +0.000 NA
ATOM     10  C   UNL     1       7.536   6.333  19.054  0.00  0.00    +0.000 A 
ATOM     11  N   UNL     1       8.231   7.485  18.898  0.00  0.00    +0.000 NA
ATOM     12  H   UNL     1       8.229   9.885  16.828  0.00  0.00    +0.000 HD
ATOM     13  H   UNL     1       5.674   7.202  15.225  0.00  0.00    +0.000 HD
ENDROOT
BRANCH   1  15
ATOM     14  C   UNL     1       9.218  11.665  18.289  0.00  0.00    +0.000 C 
ATOM     15  C   UNL     1       9.105  10.208  18.707  0.00  0.00    +0.000 C 
ENDBRANCH   1  15
BRANCH   5  16
ATOM     16  C   UNL     1       5.037   5.245  15.439  0.00  0.00    +0.000 C 
ATOM     17  C   UNL     1       6.012   4.595  14.478  0.00  0.00    +0.000 C 
ENDBRANCH   5  16
BRANCH   7  18
ATOM     18  S   UNL     1       4.647   3.889  18.187  0.00  0.00    +0.000 S 
BRANCH  18  19
ATOM     19  C   UNL     1       3.704   3.594  19.701  0.00  0.00    +0.000 C 
BRANCH  19  20
ATOM     20  C   UNL     1       2.701   4.725  19.996  0.00  0.00    +0.000 C 
ATOM     21  O   UNL     1       1.953   4.733  20.970  0.00  0.00    +0.000 OA
ATOM     22  N   UNL     1       2.793   5.737  19.042  0.00  0.00    +0.000 N 
ATOM     23  H   UNL     1       3.352   5.542  18.227  0.00  0.00    +0.000 HD
BRANCH  22  24
ATOM     24  C   UNL     1       2.226   7.034  19.090  0.00  0.00    +0.000 A 
ATOM     25  C   UNL     1       1.666   7.606  20.228  0.00  0.00    +0.000 A 
ATOM     26  C   UNL     1       1.249   8.945  20.215  0.00  0.00    +0.000 A 
ATOM     27  C   UNL     1       1.369   9.729  19.061  0.00  0.00    +0.000 A 
ATOM     28  C   UNL     1       1.883   9.138  17.904  0.00  0.00    +0.000 A 
ATOM     29  C   UNL     1       2.308   7.804  17.922  0.00  0.00    +0.000 A 
BRANCH  27  30
ATOM     30  C   UNL     1       1.023  11.197  19.085  0.00  0.00    +0.000 C 
ATOM     31  C   UNL     1       2.138  12.041  18.480  0.00  0.00    +0.000 C 
ENDBRANCH  27  30
ENDBRANCH  22  24
ENDBRANCH  19  20
ENDBRANCH  18  19
ENDBRANCH   7  18
TORSDOF 7
ENDMDL
MODEL 4
REMARK VINA RESULT:      -7.4      3.192      7.178
REMARK  Name = 
REMARK  10 active torsions:
REMARK  status: ('A' for Active; 'I' for Inactive)
REMARK    1  A    between atoms: C_1  and  C_2
REMARK    2  A    between atoms: C_2  and  N_3
REMARK    3  A    between atoms: N_7  and  C_8
REMARK    4  A    between atoms: C_8  and  C_9
REMARK    5  A    between atoms: C_11  and  S_12
REMARK    6  A    between atoms: S_12  and  C_13
REMARK    7  A    between atoms: C_13  and  C_14
REMARK    8  A    between atoms: N_16  and  C_17
REMARK    9  A    between atoms: C_20  and  C_21
REMARK   10  A    between atoms: C_21  and  C_22
REMARK                            x       y       z     vdW  Elec       q    Type
REMARK                         _______ _______ _______ _____ _____    ______ ____
ROOT
ATOM      1  N   UNL     1       1.822   2.778  18.951  0.00  0.00    +0.000 N 
ATOM      2  C   UNL     1       2.661   3.751  18.463  0.00  0.00    +0.000 A 
ATOM      3  N   UNL     1       3.769   3.281  17.816  0.00  0.00    +0.000 NA
ATOM      4  C   UNL     1       4.675   4.107  17.349  0.00  0.00    +0.000 A 
ATOM      5  N   UNL     1       5.734   3.475  16.732  0.00  0.00    +0.000 N 
ATOM      6  N   UNL     1       4.480   5.488  17.522  0.00  0.00    +0.000 N 
ATOM      7  C   UNL     1       5.157   6.672  17.266  0.00  0.00    +0.000 A 
ATOM      8  N   UNL     1       4.411   7.699  17.608  0.00  0.00    +0.000 NA
ATOM      9  N   UNL     1       3.257   7.216  18.154  0.00  0.00    +0.000 NA
ATOM     10  C   UNL     1       3.309   5.897  18.137  0.00  0.00    +0.000 A 
ATOM     11  N   UNL     1       2.411   5.009  18.628  0.00  0.00    +0.000 NA
ATOM     12  H   UNL     1       2.232   1.856  18.885  0.00  0.00    +0.000 HD
ATOM     13  H   UNL     1       5.558   2.475  16.685  0.00  0.00    +0.000 HD
ENDROOT
BRANCH   1  15
ATOM     14  C   UNL     1       1.742   2.665  21.399  0.00  0.00    +0.000 C 
ATOM     15  C   UNL     1       0.995   3.015  20.123  0.00  0.00    +0.000 C 
ENDBRANCH   1  15
BRANCH   5  16
ATOM     16  C   UNL     1       6.571   3.964  15.664  0.00  0.00    +0.000 C 
ATOM     17  C   UNL     1       5.894   3.869  14.312  0.00  0.00    +0.000 C 
ENDBRANCH   5  16
BRANCH   7  18
ATOM     18  S   UNL     1       6.775   6.871  16.688  0.00  0.00    +0.000 S 
BRANCH  18  19
ATOM     19  C   UNL     1       7.713   7.387  18.145  0.00  0.00    +0.000 C 
BRANCH  19  20
ATOM     20  C   UNL     1       8.152   8.862  18.068  0.00  0.00    +0.000 C 
ATOM     21  O   UNL     1       7.692   9.667  17.262  0.00  0.00    +0.000 OA
ATOM     22  N   UNL     1       9.097   9.154  19.050  0.00  0.00    +0.000 N 
ATOM     23  H   UNL     1       9.483   8.373  19.555  0.00  0.00    +0.000 HD
BRANCH  22  24
ATOM     24  C   UNL     1       9.561  10.428  19.460  0.00  0.00    +0.000 A 
ATOM     25  C   UNL     1      10.348  11.268  18.678  0.00  0.00    +0.000 A 
ATOM     26  C   UNL     1      10.650  12.565  19.116  0.00  0.00    +0.000 A 
ATOM     27  C   UNL     1      10.183  13.040  20.348  0.00  0.00    +0.000 A 
ATOM     28  C   UNL     1       9.436  12.178  21.155  0.00  0.00    +0.000 A 
ATOM     29  C   UNL     1       9.128  10.886  20.712  0.00  0.00    +0.000 A 
BRANCH  27  30
ATOM     30  C   UNL     1      10.415  14.472  20.762  0.00  0.00    +0.000 C 
ATOM     31  C   UNL     1       9.929  14.725  22.184  0.00  0.00    +0.000 C 
ENDBRANCH  27  30
ENDBRANCH  22  24
ENDBRANCH  19  20
ENDBRANCH  18  19
ENDBRANCH   7  18
TORSDOF 7
ENDMDL
MODEL 5
REMARK VINA RESULT:      -7.3      2.703      7.683
REMARK  Name = 
REMARK  10 active torsions:
REMARK  status: ('A' for Active; 'I' for Inactive)
REMARK    1  A    between atoms: C_1  and  C_2
REMARK    2  A    between atoms: C_2  and  N_3
REMARK    3  A    between atoms: N_7  and  C_8
REMARK    4  A    between atoms: C_8  and  C_9
REMARK    5  A    between atoms: C_11  and  S_12
REMARK    6  A    between atoms: S_12  and  C_13
REMARK    7  A    between atoms: C_13  and  C_14
REMARK    8  A    between atoms: N_16  and  C_17
REMARK    9  A    between atoms: C_20  and  C_21
REMARK   10  A    between atoms: C_21  and  C_22
REMARK                            x       y       z     vdW  Elec       q    Type
REMARK                         _______ _______ _______ _____ _____    ______ ____
ROOT
ATOM      1  N   UNL     1      -0.029   9.845  20.568  0.00  0.00    +0.000 N 
ATOM      2  C   UNL     1       0.845   8.932  20.027  0.00  0.00    +0.000 A 
ATOM      3  N   UNL     1       1.044   7.811  20.784  0.00  0.00    +0.000 NA
ATOM      4  C   UNL     1       1.894   6.887  20.404  0.00  0.00    +0.000 A 
ATOM      5  N   UNL     1       1.986   5.827  21.280  0.00  0.00    +0.000 N 
ATOM      6  N   UNL     1       2.593   7.070  19.197  0.00  0.00    +0.000 N 
ATOM      7  C   UNL     1       3.580   6.428  18.462  0.00  0.00    +0.000 A 
ATOM      8  N   UNL     1       3.786   7.069  17.334  0.00  0.00    +0.000 NA
ATOM      9  N   UNL     1       2.990   8.177  17.328  0.00  0.00    +0.000 NA
ATOM     10  C   UNL     1       2.301   8.200  18.454  0.00  0.00    +0.000 A 
ATOM     11  N   UNL     1       1.434   9.144  18.895  0.00  0.00    +0.000 NA
ATOM     12  H   UNL     1      -0.278   9.613  21.521  0.00  0.00    +0.000 HD
ATOM     13  H   UNL     1       1.300   5.932  22.022  0.00  0.00    +0.000 HD
ENDROOT
BRANCH   1  15
ATOM     14  C   UNL     1       0.269  12.070  21.554  0.00  0.00    +0.000 C 
ATOM     15  C   UNL     1       0.090  11.264  20.279  0.00  0.00    +0.000 C 
ENDBRANCH   1  15
BRANCH   5  16
ATOM     16  C   UNL     1       2.318   4.453  20.994  0.00  0.00    +0.000 C 
ATOM     17  C   UNL     1       1.189   3.721  20.297  0.00  0.00    +0.000 C 
ENDBRANCH   5  16
BRANCH   7  18
ATOM     18  S   UNL     1       4.528   5.056  18.921  0.00  0.00    +0.000 S 
BRANCH  18  19
ATOM     19  C   UNL     1       6.239   5.621  18.772  0.00  0.00    +0.000 C 
BRANCH  19  20
ATOM     20  C   UNL     1       6.911   5.123  17.479  0.00  0.00    +0.000 C 
ATOM     21  O   UNL     1       7.972   4.504  17.459  0.00  0.00    +0.000 OA
ATOM     22  N   UNL     1       6.137   5.434  16.362  0.00  0.00    +0.000 N 
ATOM     23  H   UNL     1       5.360   6.058  16.508  0.00  0.00    +0.000 HD
BRANCH  22  24
ATOM     24  C   UNL     1       6.282   4.949  15.039  0.00  0.00    +0.000 A 
ATOM     25  C   UNL     1       7.381   5.205  14.224  0.00  0.00    +0.000 A 
ATOM     26  C   UNL     1       7.498   4.574  12.977  0.00  0.00    +0.000 A 
ATOM     27  C   UNL     1       6.515   3.688  12.518  0.00  0.00    +0.000 A 
ATOM     28  C   UNL     1       5.388   3.472  13.316  0.00  0.00    +0.000 A 
ATOM     29  C   UNL     1       5.277   4.096  14.564  0.00  0.00    +0.000 A 
BRANCH  27  30
ATOM     30  C   UNL     1       6.701   2.927  11.229  0.00  0.00    +0.000 C 
ATOM     31  C   UNL     1       6.113   1.525  11.322  0.00  0.00    +0.000 C 
ENDBRANCH  27  30
ENDBRANCH  22  24
ENDBRANCH  19  20
ENDBRANCH  18  19
ENDBRANCH   7  18
TORSDOF 7
ENDMDL
MODEL 6
REMARK VINA RESULT:      -7.3      0.673      1.216
REMARK  Name = 
REMARK  10 active torsions:
REMARK  status: ('A' for Active; 'I' for Inactive)
REMARK    1  A    between atoms: C_1  and  C_2
REMARK    2  A    between atoms: C_2  and  N_3
REMARK    3  A    between atoms: N_7  and  C_8
REMARK    4  A    between atoms: C_8  and  C_9
REMARK    5  A    between atoms: C_11  and  S_12
REMARK    6  A    between atoms: S_12  and  C_13
REMARK    7  A    between atoms: C_13  and  C_14
REMARK    8  A    between atoms: N_16  and  C_17
REMARK    9  A    between atoms: C_20  and  C_21
REMARK   10  A    between atoms: C_21  and  C_22
REMARK                            x       y       z     vdW  Elec       q    Type
REMARK                         _______ _______ _______ _____ _____    ______ ____
ROOT
ATOM      1  N   UNL     1       8.530   8.583  17.442  0.00  0.00    +0.000 N 
ATOM      2  C   UNL     1       7.801   7.427  17.597  0.00  0.00    +0.000 A 
ATOM      3  N   UNL     1       7.261   6.931  16.444  0.00  0.00    +0.000 NA
ATOM      4  C   UNL     1       6.502   5.862  16.465  0.00  0.00    +0.000 A 
ATOM      5  N   UNL     1       6.030   5.495  15.223  0.00  0.00    +0.000 N 
ATOM      6  N   UNL     1       6.257   5.233  17.699  0.00  0.00    +0.000 N 
ATOM      7  C   UNL     1       5.511   4.172  18.193  0.00  0.00    +0.000 A 
ATOM      8  N   UNL     1       5.746   4.018  19.477  0.00  0.00    +0.000 NA
ATOM      9  N   UNL     1       6.599   5.009  19.869  0.00  0.00    +0.000 NA
ATOM     10  C   UNL     1       6.880   5.756  18.818  0.00  0.00    +0.000 A 
ATOM     11  N   UNL     1       7.637   6.878  18.757  0.00  0.00    +0.000 NA
ATOM     12  H   UNL     1       8.430   8.972  16.514  0.00  0.00    +0.000 HD
ATOM     13  H   UNL     1       6.442   6.089  14.508  0.00  0.00    +0.000 HD
ENDROOT
BRANCH   1  15
ATOM     14  C   UNL     1       9.062  10.913  17.990  0.00  0.00    +0.000 C 
ATOM     15  C   UNL     1       8.644   9.551  18.519  0.00  0.00    +0.000 C 
ENDBRANCH   1  15
BRANCH   5  16
ATOM     16  C   UNL     1       5.684   4.178  14.747  0.00  0.00    +0.000 C 
ATOM     17  C   UNL     1       5.438   4.151  13.253  0.00  0.00    +0.000 C 
ENDBRANCH   5  16
BRANCH   7  18
ATOM     18  S   UNL     1       4.342   3.210  17.356  0.00  0.00    +0.000 S 
BRANCH  18  19
ATOM     19  C   UNL     1       3.157   2.729  18.634  0.00  0.00    +0.000 C 
BRANCH  19  20
ATOM     20  C   UNL     1       2.144   3.846  18.945  0.00  0.00    +0.000 C 
ATOM     21  O   UNL     1       1.016   3.638  19.385  0.00  0.00    +0.000 OA
ATOM     22  N   UNL     1       2.694   5.103  18.699  0.00  0.00    +0.000 N 
ATOM     23  H   UNL     1       3.578   5.124  18.216  0.00  0.00    +0.000 HD
BRANCH  22  24
ATOM     24  C   UNL     1       2.182   6.368  19.080  0.00  0.00    +0.000 A 
ATOM     25  C   UNL     1       1.771   6.694  20.369  0.00  0.00    +0.000 A 
ATOM     26  C   UNL     1       1.403   8.010  20.682  0.00  0.00    +0.000 A 
ATOM     27  C   UNL     1       1.424   9.019  19.710  0.00  0.00    +0.000 A 
ATOM     28  C   UNL     1       1.788   8.678  18.404  0.00  0.00    +0.000 A 
ATOM     29  C   UNL     1       2.165   7.365  18.096  0.00  0.00    +0.000 A 
BRANCH  27  30
ATOM     30  C   UNL     1       1.136  10.453  20.078  0.00  0.00    +0.000 C 
ATOM     31  C   UNL     1       1.205  11.364  18.859  0.00  0.00    +0.000 C 
ENDBRANCH  27  30
ENDBRANCH  22  24
ENDBRANCH  19  20
ENDBRANCH  18  19
ENDBRANCH   7  18
TORSDOF 7
ENDMDL
MODEL 7
REMARK VINA RESULT:      -7.2      2.512      4.292
REMARK  Name = 
REMARK  10 active torsions:
REMARK  status: ('A' for Active; 'I' for Inactive)
REMARK    1  A    between atoms: C_1  and  C_2
REMARK    2  A    between atoms: C_2  and  N_3
REMARK    3  A    between atoms: N_7  and  C_8
REMARK    4  A    between atoms: C_8  and  C_9
REMARK    5  A    between atoms: C_11  and  S_12
REMARK    6  A    between atoms: S_12  and  C_13
REMARK    7  A    between atoms: C_13  and  C_14
REMARK    8  A    between atoms: N_16  and  C_17
REMARK    9  A    between atoms: C_20  and  C_21
REMARK   10  A    between atoms: C_21  and  C_22
REMARK                            x       y       z     vdW  Elec       q    Type
REMARK                         _______ _______ _______ _____ _____    ______ ____
ROOT
ATOM      1  N   UNL     1       6.647   3.915  13.968  0.00  0.00    +0.000 N 
ATOM      2  C   UNL     1       6.266   4.095  15.277  0.00  0.00    +0.000 A 
ATOM      3  N   UNL     1       4.951   3.827  15.533  0.00  0.00    +0.000 NA
ATOM      4  C   UNL     1       4.450   4.008  16.731  0.00  0.00    +0.000 A 
ATOM      5  N   UNL     1       3.109   3.700  16.821  0.00  0.00    +0.000 N 
ATOM      6  N   UNL     1       5.295   4.479  17.751  0.00  0.00    +0.000 N 
ATOM      7  C   UNL     1       5.204   4.858  19.083  0.00  0.00    +0.000 A 
ATOM      8  N   UNL     1       6.396   5.160  19.546  0.00  0.00    +0.000 NA
ATOM      9  N   UNL     1       7.286   5.050  18.517  0.00  0.00    +0.000 NA
ATOM     10  C   UNL     1       6.628   4.677  17.435  0.00  0.00    +0.000 A 
ATOM     11  N   UNL     1       7.100   4.502  16.178  0.00  0.00    +0.000 NA
ATOM     12  H   UNL     1       5.855   3.754  13.361  0.00  0.00    +0.000 HD
ATOM     13  H   UNL     1       2.786   3.304  15.943  0.00  0.00    +0.000 HD
ENDROOT
BRANCH   1  15
ATOM     14  C   UNL     1       7.525   4.893  11.898  0.00  0.00    +0.000 C 
ATOM     15  C   UNL     1       7.735   4.686  13.388  0.00  0.00    +0.000 C 
ENDBRANCH   1  15
BRANCH   5  16
ATOM     16  C   UNL     1       2.371   3.233  17.970  0.00  0.00    +0.000 C 
ATOM     17  C   UNL     1       2.753   1.820  18.363  0.00  0.00    +0.000 C 
ENDBRANCH   5  16
BRANCH   7  18
ATOM     18  S   UNL     1       3.777   5.041  20.043  0.00  0.00    +0.000 S 
BRANCH  18  19
ATOM     19  C   UNL     1       2.987   6.534  19.396  0.00  0.00    +0.000 C 
BRANCH  19  20
ATOM     20  C   UNL     1       1.836   7.025  20.294  0.00  0.00    +0.000 C 
ATOM     21  O   UNL     1       1.284   6.321  21.137  0.00  0.00    +0.000 OA
ATOM     22  N   UNL     1       1.546   8.365  20.047  0.00  0.00    +0.000 N 
ATOM     23  H   UNL     1       1.983   8.783  19.241  0.00  0.00    +0.000 HD
BRANCH  22  24
ATOM     24  C   UNL     1       0.736   9.237  20.815  0.00  0.00    +0.000 A 
ATOM     25  C   UNL     1       0.471   9.074  22.171  0.00  0.00    +0.000 A 
ATOM     26  C   UNL     1      -0.234  10.059  22.878  0.00  0.00    +0.000 A 
ATOM     27  C   UNL     1      -0.698  11.216  22.239  0.00  0.00    +0.000 A 
ATOM     28  C   UNL     1      -0.476  11.354  20.866  0.00  0.00    +0.000 A 
ATOM     29  C   UNL     1       0.236  10.373  20.164  0.00  0.00    +0.000 A 
BRANCH  27  30
ATOM     30  C   UNL     1      -1.355  12.322  23.026  0.00  0.00    +0.000 C 
ATOM     31  C   UNL     1      -2.804  11.985  23.355  0.00  0.00    +0.000 C 
ENDBRANCH  27  30
ENDBRANCH  22  24
ENDBRANCH  19  20
ENDBRANCH  18  19
ENDBRANCH   7  18
TORSDOF 7
ENDMDL
MODEL 8
REMARK VINA RESULT:      -6.9      4.505      8.835
REMARK  Name = 
REMARK  10 active torsions:
REMARK  status: ('A' for Active; 'I' for Inactive)
REMARK    1  A    between atoms: C_1  and  C_2
REMARK    2  A    between atoms: C_2  and  N_3
REMARK    3  A    between atoms: N_7  and  C_8
REMARK    4  A    between atoms: C_8  and  C_9
REMARK    5  A    between atoms: C_11  and  S_12
REMARK    6  A    between atoms: S_12  and  C_13
REMARK    7  A    between atoms: C_13  and  C_14
REMARK    8  A    between atoms: N_16  and  C_17
REMARK    9  A    between atoms: C_20  and  C_21
REMARK   10  A    between atoms: C_21  and  C_22
REMARK                            x       y       z     vdW  Elec       q    Type
REMARK                         _______ _______ _______ _____ _____    ______ ____
ROOT
ATOM      1  N   UNL     1      -2.903  12.901  22.382  0.00  0.00    +0.000 N 
ATOM      2  C   UNL     1      -1.896  11.990  22.168  0.00  0.00    +0.000 A 
ATOM      3  N   UNL     1      -1.616  11.743  20.853  0.00  0.00    +0.000 NA
ATOM      4  C   UNL     1      -0.711  10.856  20.515  0.00  0.00    +0.000 A 
ATOM      5  N   UNL     1      -0.554  10.720  19.152  0.00  0.00    +0.000 N 
ATOM      6  N   UNL     1      -0.030  10.166  21.534  0.00  0.00    +0.000 N 
ATOM      7  C   UNL     1       0.912   9.153  21.651  0.00  0.00    +0.000 A 
ATOM      8  N   UNL     1       1.223   8.975  22.915  0.00  0.00    +0.000 NA
ATOM      9  N   UNL     1       0.450   9.817  23.661  0.00  0.00    +0.000 NA
ATOM     10  C   UNL     1      -0.324  10.506  22.843  0.00  0.00    +0.000 A 
ATOM     11  N   UNL     1      -1.285  11.410  23.150  0.00  0.00    +0.000 NA
ATOM     12  H   UNL     1      -3.387  13.140  21.526  0.00  0.00    +0.000 HD
ATOM     13  H   UNL     1      -1.122  11.409  18.669  0.00  0.00    +0.000 HD
ENDROOT
BRANCH   1  15
ATOM     14  C   UNL     1      -4.459  14.155  23.802  0.00  0.00    +0.000 C 
ATOM     15  C   UNL     1      -3.732  12.841  23.574  0.00  0.00    +0.000 C 
ENDBRANCH   1  15
BRANCH   5  16
ATOM     16  C   UNL     1       0.627  10.331  18.420  0.00  0.00    +0.000 C 
ATOM     17  C   UNL     1       1.726  11.370  18.506  0.00  0.00    +0.000 C 
ENDBRANCH   5  16
BRANCH   7  18
ATOM     18  S   UNL     1       1.558   8.149  20.400  0.00  0.00    +0.000 S 
BRANCH  18  19
ATOM     19  C   UNL     1       1.478   6.476  21.079  0.00  0.00    +0.000 C 
BRANCH  19  20
ATOM     20  C   UNL     1       2.214   5.449  20.198  0.00  0.00    +0.000 C 
ATOM     21  O   UNL     1       1.761   4.340  19.923  0.00  0.00    +0.000 OA
ATOM     22  N   UNL     1       3.423   5.963  19.735  0.00  0.00    +0.000 N 
ATOM     23  H   UNL     1       3.733   6.830  20.143  0.00  0.00    +0.000 HD
BRANCH  22  24
ATOM     24  C   UNL     1       4.263   5.437  18.723  0.00  0.00    +0.000 A 
ATOM     25  C   UNL     1       3.839   5.115  17.437  0.00  0.00    +0.000 A 
ATOM     26  C   UNL     1       4.768   4.724  16.462  0.00  0.00    +0.000 A 
ATOM     27  C   UNL     1       6.134   4.633  16.760  0.00  0.00    +0.000 A 
ATOM     28  C   UNL     1       6.552   4.907  18.066  0.00  0.00    +0.000 A 
ATOM     29  C   UNL     1       5.623   5.306  19.034  0.00  0.00    +0.000 A 
BRANCH  27  30
ATOM     30  C   UNL     1       7.140   4.322  15.681  0.00  0.00    +0.000 C 
ATOM     31  C   UNL     1       6.567   4.585  14.293  0.00  0.00    +0.000 C 
ENDBRANCH  27  30
ENDBRANCH  22  24
ENDBRANCH  19  20
ENDBRANCH  18  19
ENDBRANCH   7  18
TORSDOF 7
ENDMDL
MODEL 9
REMARK VINA RESULT:      -6.8      1.748      4.220
REMARK  Name = 
REMARK  10 active torsions:
REMARK  status: ('A' for Active; 'I' for Inactive)
REMARK    1  A    between atoms: C_1  and  C_2
REMARK    2  A    between atoms: C_2  and  N_3
REMARK    3  A    between atoms: N_7  and  C_8
REMARK    4  A    between atoms: C_8  and  C_9
REMARK    5  A    between atoms: C_11  and  S_12
REMARK    6  A    between atoms: S_12  and  C_13
REMARK    7  A    between atoms: C_13  and  C_14
REMARK    8  A    between atoms: N_16  and  C_17
REMARK    9  A    between atoms: C_20  and  C_21
REMARK   10  A    between atoms: C_21  and  C_22
REMARK                            x       y       z     vdW  Elec       q    Type
REMARK                         _______ _______ _______ _____ _____    ______ ____
ROOT
ATOM      1  N   UNL     1       7.280   4.526  12.646  0.00  0.00    +0.000 N 
ATOM      2  C   UNL     1       6.708   4.618  13.893  0.00  0.00    +0.000 A 
ATOM      3  N   UNL     1       7.374   5.425  14.771  0.00  0.00    +0.000 NA
ATOM      4  C   UNL     1       6.960   5.557  16.008  0.00  0.00    +0.000 A 
ATOM      5  N   UNL     1       7.745   6.399  16.767  0.00  0.00    +0.000 N 
ATOM      6  N   UNL     1       5.811   4.854  16.413  0.00  0.00    +0.000 N 
ATOM      7  C   UNL     1       5.076   4.646  17.571  0.00  0.00    +0.000 A 
ATOM      8  N   UNL     1       4.019   3.912  17.306  0.00  0.00    +0.000 NA
ATOM      9  N   UNL     1       4.068   3.567  15.986  0.00  0.00    +0.000 NA
ATOM     10  C   UNL     1       5.155   4.098  15.457  0.00  0.00    +0.000 A 
ATOM     11  N   UNL     1       5.631   3.968  14.195  0.00  0.00    +0.000 NA
ATOM     12  H   UNL     1       8.195   4.956  12.615  0.00  0.00    +0.000 HD
ATOM     13  H   UNL     1       8.457   6.828  16.182  0.00  0.00    +0.000 HD
ENDROOT
BRANCH   1  15
ATOM     14  C   UNL     1       5.669   2.889  11.788  0.00  0.00    +0.000 C 
ATOM     15  C   UNL     1       7.121   3.333  11.831  0.00  0.00    +0.000 C 
ENDBRANCH   1  15
BRANCH   5  16
ATOM     16  C   UNL     1       7.358   7.214  17.893  0.00  0.00    +0.000 C 
ATOM     17  C   UNL     1       7.830   8.647  17.756  0.00  0.00    +0.000 C 
ENDBRANCH   5  16
BRANCH   7  18
ATOM     18  S   UNL     1       5.462   5.143  19.182  0.00  0.00    +0.000 S 
BRANCH  18  19
ATOM     19  C   UNL     1       4.029   4.641  20.164  0.00  0.00    +0.000 C 
BRANCH  19  20
ATOM     20  C   UNL     1       2.753   5.411  19.777  0.00  0.00    +0.000 C 
ATOM     21  O   UNL     1       1.688   4.866  19.499  0.00  0.00    +0.000 OA
ATOM     22  N   UNL     1       2.966   6.788  19.827  0.00  0.00    +0.000 N 
ATOM     23  H   UNL     1       3.919   7.096  19.939  0.00  0.00    +0.000 HD
BRANCH  22  24
ATOM     24  C   UNL     1       1.999   7.821  19.777  0.00  0.00    +0.000 A 
ATOM     25  C   UNL     1       1.284   8.283  20.879  0.00  0.00    +0.000 A 
ATOM     26  C   UNL     1       0.443   9.398  20.760  0.00  0.00    +0.000 A 
ATOM     27  C   UNL     1       0.290  10.062  19.536  0.00  0.00    +0.000 A 
ATOM     28  C   UNL     1       0.969   9.566  18.419  0.00  0.00    +0.000 A 
ATOM     29  C   UNL     1       1.815   8.457  18.543  0.00  0.00    +0.000 A 
BRANCH  27  30
ATOM     30  C   UNL     1      -0.526  11.327  19.440  0.00  0.00    +0.000 C 
ATOM     31  C   UNL     1      -1.551  11.243  18.315  0.00  0.00    +0.000 C 
ENDBRANCH  27  30
ENDBRANCH  22  24
ENDBRANCH  19  20
ENDBRANCH  18  19
ENDBRANCH   7  18
TORSDOF 7
ENDMDL
