MODEL 1
REMARK VINA RESULT:      -7.7      0.000      0.000
REMARK  Name = 
REMARK  6 active torsions:
REMARK  status: ('A' for Active; 'I' for Inactive)
REMARK    1  A    between atoms: C_1  and  O_2
REMARK    2  A    between atoms: O_2  and  C_3
REMARK    3  A    between atoms: C_3  and  C_4
REMARK    4  A    between atoms: C_5  and  C_6
REMARK    5  A    between atoms: N_8  and  C_9
REMARK    6  A    between atoms: C_15  and  C_16
REMARK                            x       y       z     vdW  Elec       q    Type
REMARK                         _______ _______ _______ _____ _____    ______ ____
ROOT
ATOM      1  C   UNL     1       2.522   3.731  18.705  0.00  0.00    +0.000 A 
ATOM      2  C   UNL     1       3.551   2.810  18.369  0.00  0.00    +0.000 A 
ATOM      3  C   UNL     1       3.496   1.327  18.282  0.00  0.00    +0.000 C 
ATOM      4  N   UNL     1       4.700   3.426  18.084  0.00  0.00    +0.000 NA
ATOM      5  N   UNL     1       4.483   4.733  18.375  0.00  0.00    +0.000 N 
ATOM      6  C   UNL     1       3.136   4.988  18.676  0.00  0.00    +0.000 A 
ENDROOT
BRANCH   5   7
ATOM      7  C   UNL     1       5.581   5.646  18.329  0.00  0.00    +0.000 A 
ATOM      8  C   UNL     1       6.650   5.475  19.218  0.00  0.00    +0.000 A 
ATOM      9  C   UNL     1       7.817   6.226  19.052  0.00  0.00    +0.000 A 
ATOM     10  C   UNL     1       7.907   7.167  18.026  0.00  0.00    +0.000 A 
ATOM     11  C   UNL     1       6.814   7.399  17.193  0.00  0.00    +0.000 A 
ATOM     12  C   UNL     1       5.645   6.656  17.358  0.00  0.00    +0.000 A 
ENDBRANCH   5   7
BRANCH   6  13
ATOM     13  C   UNL     1       2.537   6.326  18.836  0.00  0.00    +0.000 A 
ATOM     14  C   UNL     1       2.336   7.175  17.730  0.00  0.00    +0.000 A 
ATOM     15  C   UNL     1       1.937   8.504  17.901  0.00  0.00    +0.000 A 
ATOM     16  C   UNL     1       1.643   8.980  19.174  0.00  0.00    +0.000 A 
ATOM     17  C   UNL     1       1.746   8.128  20.270  0.00  0.00    +0.000 A 
ATOM     18  C   UNL     1       2.207   6.819  20.102  0.00  0.00    +0.000 A 
ENDBRANCH   6  13
BRANCH   1  19
ATOM     19  C   UNL     1       1.094   3.403  18.992  0.00  0.00    +0.000 C 
BRANCH  19  21
ATOM     20  C   UNL     1       1.384   2.838  21.264  0.00  0.00    +0.000 C 
ATOM     21  O   UNL     1       0.756   3.715  20.343  0.00  0.00    +0.000 OA
ENDBRANCH  19  21
ENDBRANCH   1  19
TORSDOF 4
ENDMDL
MODEL 2
REMARK VINA RESULT:      -7.7      0.317      1.094
REMARK  Name = 
REMARK  6 active torsions:
REMARK  status: ('A' for Active; 'I' for Inactive)
REMARK    1  A    between atoms: C_1  and  O_2
REMARK    2  A    between atoms: O_2  and  C_3
REMARK    3  A    between atoms: C_3  and  C_4
REMARK    4  A    between atoms: C_5  and  C_6
REMARK    5  A    between atoms: N_8  and  C_9
REMARK    6  A    between atoms: C_15  and  C_16
REMARK                            x       y       z     vdW  Elec       q    Type
REMARK                         _______ _______ _______ _____ _____    ______ ____
ROOT
ATOM      1  C   UNL     1       2.507   3.899  18.801  0.00  0.00    +0.000 A 
ATOM      2  C   UNL     1       3.486   2.951  18.397  0.00  0.00    +0.000 A 
ATOM      3  C   UNL     1       3.368   1.475  18.263  0.00  0.00    +0.000 C 
ATOM      4  N   UNL     1       4.648   3.531  18.091  0.00  0.00    +0.000 NA
ATOM      5  N   UNL     1       4.494   4.835  18.434  0.00  0.00    +0.000 N 
ATOM      6  C   UNL     1       3.170   5.132  18.792  0.00  0.00    +0.000 A 
ENDROOT
BRANCH   5   7
ATOM      7  C   UNL     1       5.626   5.705  18.378  0.00  0.00    +0.000 A 
ATOM      8  C   UNL     1       6.690   5.500  19.266  0.00  0.00    +0.000 A 
ATOM      9  C   UNL     1       7.884   6.205  19.092  0.00  0.00    +0.000 A 
ATOM     10  C   UNL     1       8.008   7.134  18.058  0.00  0.00    +0.000 A 
ATOM     11  C   UNL     1       6.922   7.402  17.227  0.00  0.00    +0.000 A 
ATOM     12  C   UNL     1       5.726   6.705  17.400  0.00  0.00    +0.000 A 
ENDBRANCH   5   7
BRANCH   6  13
ATOM     13  C   UNL     1       2.632   6.486  19.018  0.00  0.00    +0.000 A 
ATOM     14  C   UNL     1       2.209   6.901  20.297  0.00  0.00    +0.000 A 
ATOM     15  C   UNL     1       1.537   8.113  20.477  0.00  0.00    +0.000 A 
ATOM     16  C   UNL     1       1.358   8.974  19.400  0.00  0.00    +0.000 A 
ATOM     17  C   UNL     1       1.852   8.621  18.147  0.00  0.00    +0.000 A 
ATOM     18  C   UNL     1       2.466   7.381  17.956  0.00  0.00    +0.000 A 
ENDBRANCH   6  13
BRANCH   1  19
ATOM     19  C   UNL     1       1.078   3.618  19.129  0.00  0.00    +0.000 C 
BRANCH  19  21
ATOM     20  C   UNL     1       1.528   3.182  21.403  0.00  0.00    +0.000 C 
ATOM     21  O   UNL     1       0.970   2.680  20.199  0.00  0.00    +0.000 OA
ENDBRANCH  19  21
ENDBRANCH   1  19
TORSDOF 4
ENDMDL
MODEL 3
REMARK VINA RESULT:      -7.5      0.218      1.502
REMARK  Name = 
REMARK  6 active torsions:
REMARK  status: ('A' for Active; 'I' for Inactive)
REMARK    1  A    between atoms: C_1  and  O_2
REMARK    2  A    between atoms: O_2  and  C_3
REMARK    3  A    between atoms: C_3  and  C_4
REMARK    4  A    between atoms: C_5  and  C_6
REMARK    5  A    between atoms: N_8  and  C_9
REMARK    6  A    between atoms: C_15  and  C_16
REMARK                            x       y       z     vdW  Elec       q    Type
REMARK                         _______ _______ _______ _____ _____    ______ ____
ROOT
ATOM      1  C   UNL     1       2.572   3.839  18.792  0.00  0.00    +0.000 A 
ATOM      2  C   UNL     1       3.504   2.833  18.419  0.00  0.00    +0.000 A 
ATOM      3  C   UNL     1       3.334   1.355  18.392  0.00  0.00    +0.000 C 
ATOM      4  N   UNL     1       4.671   3.350  18.031  0.00  0.00    +0.000 NA
ATOM      5  N   UNL     1       4.572   4.679  18.288  0.00  0.00    +0.000 N 
ATOM      6  C   UNL     1       3.273   5.045  18.673  0.00  0.00    +0.000 A 
ENDROOT
BRANCH   5   7
ATOM      7  C   UNL     1       5.727   5.503  18.130  0.00  0.00    +0.000 A 
ATOM      8  C   UNL     1       5.747   6.466  17.112  0.00  0.00    +0.000 A 
ATOM      9  C   UNL     1       6.774   7.413  17.073  0.00  0.00    +0.000 A 
ATOM     10  C   UNL     1       7.797   7.381  18.022  0.00  0.00    +0.000 A 
ATOM     11  C   UNL     1       7.825   6.373  18.983  0.00  0.00    +0.000 A 
ATOM     12  C   UNL     1       6.805   5.422  19.024  0.00  0.00    +0.000 A 
ENDBRANCH   5   7
BRANCH   6  13
ATOM     13  C   UNL     1       2.787   6.428  18.825  0.00  0.00    +0.000 A 
ATOM     14  C   UNL     1       2.356   6.920  20.073  0.00  0.00    +0.000 A 
ATOM     15  C   UNL     1       1.732   8.166  20.183  0.00  0.00    +0.000 A 
ATOM     16  C   UNL     1       1.610   8.981  19.063  0.00  0.00    +0.000 A 
ATOM     17  C   UNL     1       2.114   8.550  17.839  0.00  0.00    +0.000 A 
ATOM     18  C   UNL     1       2.680   7.278  17.719  0.00  0.00    +0.000 A 
ENDBRANCH   6  13
BRANCH   1  19
ATOM     19  C   UNL     1       1.149   3.630  19.191  0.00  0.00    +0.000 C 
BRANCH  19  21
ATOM     20  C   UNL     1       1.391   2.761  21.371  0.00  0.00    +0.000 C 
ATOM     21  O   UNL     1       0.965   3.864  20.587  0.00  0.00    +0.000 OA
ENDBRANCH  19  21
ENDBRANCH   1  19
TORSDOF 4
ENDMDL
MODEL 4
REMARK VINA RESULT:      -7.5      1.623      4.520
REMARK  Name = 
REMARK  6 active torsions:
REMARK  status: ('A' for Active; 'I' for Inactive)
REMARK    1  A    between atoms: C_1  and  O_2
REMARK    2  A    between atoms: O_2  and  C_3
REMARK    3  A    between atoms: C_3  and  C_4
REMARK    4  A    between atoms: C_5  and  C_6
REMARK    5  A    between atoms: N_8  and  C_9
REMARK    6  A    between atoms: C_15  and  C_16
REMARK                            x       y       z     vdW  Elec       q    Type
REMARK                         _______ _______ _______ _____ _____    ______ ____
ROOT
ATOM      1  C   UNL     1       3.404   3.659  19.902  0.00  0.00    +0.000 A 
ATOM      2  C   UNL     1       2.263   3.809  20.735  0.00  0.00    +0.000 A 
ATOM      3  C   UNL     1       1.547   2.787  21.545  0.00  0.00    +0.000 C 
ATOM      4  N   UNL     1       1.830   5.070  20.769  0.00  0.00    +0.000 NA
ATOM      5  N   UNL     1       2.580   5.727  19.849  0.00  0.00    +0.000 N 
ATOM      6  C   UNL     1       3.620   4.928  19.351  0.00  0.00    +0.000 A 
ENDROOT
BRANCH   5   7
ATOM      7  C   UNL     1       2.253   7.079  19.524  0.00  0.00    +0.000 A 
ATOM      8  C   UNL     1       2.418   7.526  18.207  0.00  0.00    +0.000 A 
ATOM      9  C   UNL     1       1.914   8.773  17.829  0.00  0.00    +0.000 A 
ATOM     10  C   UNL     1       1.277   9.588  18.766  0.00  0.00    +0.000 A 
ATOM     11  C   UNL     1       1.187   9.183  20.096  0.00  0.00    +0.000 A 
ATOM     12  C   UNL     1       1.694   7.941  20.480  0.00  0.00    +0.000 A 
ENDBRANCH   5   7
BRANCH   6  13
ATOM     13  C   UNL     1       4.725   5.401  18.497  0.00  0.00    +0.000 A 
ATOM     14  C   UNL     1       4.585   5.480  17.097  0.00  0.00    +0.000 A 
ATOM     15  C   UNL     1       5.682   5.757  16.276  0.00  0.00    +0.000 A 
ATOM     16  C   UNL     1       6.917   6.049  16.844  0.00  0.00    +0.000 A 
ATOM     17  C   UNL     1       7.051   6.067  18.228  0.00  0.00    +0.000 A 
ATOM     18  C   UNL     1       5.969   5.728  19.045  0.00  0.00    +0.000 A 
ENDBRANCH   6  13
BRANCH   1  19
ATOM     19  C   UNL     1       4.200   2.413  19.699  0.00  0.00    +0.000 C 
BRANCH  19  21
ATOM     20  C   UNL     1       3.057   1.984  17.681  0.00  0.00    +0.000 C 
ATOM     21  O   UNL     1       3.473   1.456  18.930  0.00  0.00    +0.000 OA
ENDBRANCH  19  21
ENDBRANCH   1  19
TORSDOF 4
ENDMDL
MODEL 5
REMARK VINA RESULT:      -7.4      1.598      4.538
REMARK  Name = 
REMARK  6 active torsions:
REMARK  status: ('A' for Active; 'I' for Inactive)
REMARK    1  A    between atoms: C_1  and  O_2
REMARK    2  A    between atoms: O_2  and  C_3
REMARK    3  A    between atoms: C_3  and  C_4
REMARK    4  A    between atoms: C_5  and  C_6
REMARK    5  A    between atoms: N_8  and  C_9
REMARK    6  A    between atoms: C_15  and  C_16
REMARK                            x       y       z     vdW  Elec       q    Type
REMARK                         _______ _______ _______ _____ _____    ______ ____
ROOT
ATOM      1  C   UNL     1       3.467   3.528  19.951  0.00  0.00    +0.000 A 
ATOM      2  C   UNL     1       2.324   3.716  20.775  0.00  0.00    +0.000 A 
ATOM      3  C   UNL     1       1.590   2.726  21.607  0.00  0.00    +0.000 C 
ATOM      4  N   UNL     1       1.910   4.984  20.775  0.00  0.00    +0.000 NA
ATOM      5  N   UNL     1       2.674   5.606  19.842  0.00  0.00    +0.000 N 
ATOM      6  C   UNL     1       3.704   4.779  19.369  0.00  0.00    +0.000 A 
ENDROOT
BRANCH   5   7
ATOM      7  C   UNL     1       2.369   6.955  19.482  0.00  0.00    +0.000 A 
ATOM      8  C   UNL     1       2.610   7.384  18.171  0.00  0.00    +0.000 A 
ATOM      9  C   UNL     1       2.131   8.627  17.748  0.00  0.00    +0.000 A 
ATOM     10  C   UNL     1       1.443   9.454  18.637  0.00  0.00    +0.000 A 
ATOM     11  C   UNL     1       1.277   9.066  19.965  0.00  0.00    +0.000 A 
ATOM     12  C   UNL     1       1.758   7.829  20.393  0.00  0.00    +0.000 A 
ENDBRANCH   5   7
BRANCH   6  13
ATOM     13  C   UNL     1       4.820   5.214  18.509  0.00  0.00    +0.000 A 
ATOM     14  C   UNL     1       6.038   5.660  19.059  0.00  0.00    +0.000 A 
ATOM     15  C   UNL     1       7.025   6.238  18.256  0.00  0.00    +0.000 A 
ATOM     16  C   UNL     1       6.851   6.296  16.877  0.00  0.00    +0.000 A 
ATOM     17  C   UNL     1       5.694   5.775  16.307  0.00  0.00    +0.000 A 
ATOM     18  C   UNL     1       4.681   5.256  17.118  0.00  0.00    +0.000 A 
ENDBRANCH   6  13
BRANCH   1  19
ATOM     19  C   UNL     1       4.245   2.265  19.784  0.00  0.00    +0.000 C 
BRANCH  19  21
ATOM     20  C   UNL     1       3.048   1.969  17.773  0.00  0.00    +0.000 C 
ATOM     21  O   UNL     1       3.556   1.343  18.941  0.00  0.00    +0.000 OA
ENDBRANCH  19  21
ENDBRANCH   1  19
TORSDOF 4
ENDMDL
MODEL 6
REMARK VINA RESULT:      -7.3      2.136      4.752
REMARK  Name = 
REMARK  6 active torsions:
REMARK  status: ('A' for Active; 'I' for Inactive)
REMARK    1  A    between atoms: C_1  and  O_2
REMARK    2  A    between atoms: O_2  and  C_3
REMARK    3  A    between atoms: C_3  and  C_4
REMARK    4  A    between atoms: C_5  and  C_6
REMARK    5  A    between atoms: N_8  and  C_9
REMARK    6  A    between atoms: C_15  and  C_16
REMARK                            x       y       z     vdW  Elec       q    Type
REMARK                         _______ _______ _______ _____ _____    ______ ____
ROOT
ATOM      1  C   UNL     1       4.662   5.556  16.703  0.00  0.00    +0.000 A 
ATOM      2  C   UNL     1       5.102   4.210  16.582  0.00  0.00    +0.000 A 
ATOM      3  C   UNL     1       6.048   3.613  15.602  0.00  0.00    +0.000 C 
ATOM      4  N   UNL     1       4.570   3.424  17.519  0.00  0.00    +0.000 NA
ATOM      5  N   UNL     1       3.666   4.203  18.165  0.00  0.00    +0.000 N 
ATOM      6  C   UNL     1       3.746   5.545  17.762  0.00  0.00    +0.000 A 
ENDROOT
BRANCH   5   7
ATOM      7  C   UNL     1       2.802   3.606  19.133  0.00  0.00    +0.000 A 
ATOM      8  C   UNL     1       3.339   3.163  20.349  0.00  0.00    +0.000 A 
ATOM      9  C   UNL     1       2.484   2.769  21.382  0.00  0.00    +0.000 A 
ATOM     10  C   UNL     1       1.101   2.783  21.194  0.00  0.00    +0.000 A 
ATOM     11  C   UNL     1       0.568   3.141  19.958  0.00  0.00    +0.000 A 
ATOM     12  C   UNL     1       1.417   3.531  18.922  0.00  0.00    +0.000 A 
ENDBRANCH   5   7
BRANCH   6  13
ATOM     13  C   UNL     1       3.049   6.672  18.408  0.00  0.00    +0.000 A 
ATOM     14  C   UNL     1       2.685   6.623  19.769  0.00  0.00    +0.000 A 
ATOM     15  C   UNL     1       1.872   7.609  20.335  0.00  0.00    +0.000 A 
ATOM     16  C   UNL     1       1.484   8.708  19.576  0.00  0.00    +0.000 A 
ATOM     17  C   UNL     1       1.912   8.819  18.256  0.00  0.00    +0.000 A 
ATOM     18  C   UNL     1       2.672   7.801  17.674  0.00  0.00    +0.000 A 
ENDBRANCH   6  13
BRANCH   1  19
ATOM     19  C   UNL     1       5.118   6.718  15.885  0.00  0.00    +0.000 C 
BRANCH  19  21
ATOM     20  C   UNL     1       6.790   7.333  17.430  0.00  0.00    +0.000 C 
ATOM     21  O   UNL     1       6.507   6.977  16.086  0.00  0.00    +0.000 OA
ENDBRANCH  19  21
ENDBRANCH   1  19
TORSDOF 4
ENDMDL
MODEL 7
REMARK VINA RESULT:      -7.3      2.014      4.614
REMARK  Name = 
REMARK  6 active torsions:
REMARK  status: ('A' for Active; 'I' for Inactive)
REMARK    1  A    between atoms: C_1  and  O_2
REMARK    2  A    between atoms: O_2  and  C_3
REMARK    3  A    between atoms: C_3  and  C_4
REMARK    4  A    between atoms: C_5  and  C_6
REMARK    5  A    between atoms: N_8  and  C_9
REMARK    6  A    between atoms: C_15  and  C_16
REMARK                            x       y       z     vdW  Elec       q    Type
REMARK                         _______ _______ _______ _____ _____    ______ ____
ROOT
ATOM      1  C   UNL     1       3.559   3.192  20.153  0.00  0.00    +0.000 A 
ATOM      2  C   UNL     1       2.375   3.451  20.897  0.00  0.00    +0.000 A 
ATOM      3  C   UNL     1       1.571   2.526  21.739  0.00  0.00    +0.000 C 
ATOM      4  N   UNL     1       1.992   4.725  20.800  0.00  0.00    +0.000 NA
ATOM      5  N   UNL     1       2.823   5.276  19.879  0.00  0.00    +0.000 N 
ATOM      6  C   UNL     1       3.859   4.402  19.516  0.00  0.00    +0.000 A 
ENDROOT
BRANCH   5   7
ATOM      7  C   UNL     1       2.570   6.607  19.426  0.00  0.00    +0.000 A 
ATOM      8  C   UNL     1       2.899   6.954  18.109  0.00  0.00    +0.000 A 
ATOM      9  C   UNL     1       2.474   8.180  17.588  0.00  0.00    +0.000 A 
ATOM     10  C   UNL     1       1.755   9.071  18.386  0.00  0.00    +0.000 A 
ATOM     11  C   UNL     1       1.502   8.764  19.721  0.00  0.00    +0.000 A 
ATOM     12  C   UNL     1       1.928   7.545  20.247  0.00  0.00    +0.000 A 
ENDBRANCH   5   7
BRANCH   6  13
ATOM     13  C   UNL     1       5.032   4.763  18.699  0.00  0.00    +0.000 A 
ATOM     14  C   UNL     1       5.125   4.385  17.345  0.00  0.00    +0.000 A 
ATOM     15  C   UNL     1       6.307   4.570  16.623  0.00  0.00    +0.000 A 
ATOM     16  C   UNL     1       7.386   5.220  17.213  0.00  0.00    +0.000 A 
ATOM     17  C   UNL     1       7.278   5.684  18.520  0.00  0.00    +0.000 A 
ATOM     18  C   UNL     1       6.118   5.441  19.261  0.00  0.00    +0.000 A 
ENDBRANCH   6  13
BRANCH   1  19
ATOM     19  C   UNL     1       4.315   1.906  20.105  0.00  0.00    +0.000 C 
BRANCH  19  21
ATOM     20  C   UNL     1       5.612   0.463  21.446  0.00  0.00    +0.000 C 
ATOM     21  O   UNL     1       5.231   1.806  21.195  0.00  0.00    +0.000 OA
ENDBRANCH  19  21
ENDBRANCH   1  19
TORSDOF 4
ENDMDL
MODEL 8
REMARK VINA RESULT:      -7.2      1.882      4.579
REMARK  Name = 
REMARK  6 active torsions:
REMARK  status: ('A' for Active; 'I' for Inactive)
REMARK    1  A    between atoms: C_1  and  O_2
REMARK    2  A    between atoms: O_2  and  C_3
REMARK    3  A    between atoms: C_3  and  C_4
REMARK    4  A    between atoms: C_5  and  C_6
REMARK    5  A    between atoms: N_8  and  C_9
REMARK    6  A    between atoms: C_15  and  C_16
REMARK                            x       y       z     vdW  Elec       q    Type
REMARK                         _______ _______ _______ _____ _____    ______ ____
ROOT
ATOM      1  C   UNL     1       3.238   3.425  19.847  0.00  0.00    +0.000 A 
ATOM      2  C   UNL     1       2.155   3.654  20.739  0.00  0.00    +0.000 A 
ATOM      3  C   UNL     1       1.426   2.689  21.603  0.00  0.00    +0.000 C 
ATOM      4  N   UNL     1       1.801   4.940  20.775  0.00  0.00    +0.000 NA
ATOM      5  N   UNL     1       2.536   5.538  19.804  0.00  0.00    +0.000 N 
ATOM      6  C   UNL     1       3.499   4.670  19.264  0.00  0.00    +0.000 A 
ENDROOT
BRANCH   5   7
ATOM      7  C   UNL     1       2.273   6.903  19.475  0.00  0.00    +0.000 A 
ATOM      8  C   UNL     1       2.479   7.342  18.161  0.00  0.00    +0.000 A 
ATOM      9  C   UNL     1       2.035   8.609  17.775  0.00  0.00    +0.000 A 
ATOM     10  C   UNL     1       1.419   9.451  18.703  0.00  0.00    +0.000 A 
ATOM     11  C   UNL     1       1.291   9.050  20.031  0.00  0.00    +0.000 A 
ATOM     12  C   UNL     1       1.737   7.788  20.422  0.00  0.00    +0.000 A 
ENDBRANCH   5   7
BRANCH   6  13
ATOM     13  C   UNL     1       4.581   5.064  18.344  0.00  0.00    +0.000 A 
ATOM     14  C   UNL     1       5.786   5.615  18.824  0.00  0.00    +0.000 A 
ATOM     15  C   UNL     1       6.734   6.152  17.949  0.00  0.00    +0.000 A 
ATOM     16  C   UNL     1       6.538   6.064  16.575  0.00  0.00    +0.000 A 
ATOM     17  C   UNL     1       5.397   5.439  16.081  0.00  0.00    +0.000 A 
ATOM     18  C   UNL     1       4.420   4.961  16.958  0.00  0.00    +0.000 A 
ENDBRANCH   6  13
BRANCH   1  19
ATOM     19  C   UNL     1       3.946   2.130  19.623  0.00  0.00    +0.000 C 
BRANCH  19  21
ATOM     20  C   UNL     1       5.255   1.047  21.260  0.00  0.00    +0.000 C 
ATOM     21  O   UNL     1       5.196   2.101  20.312  0.00  0.00    +0.000 OA
ENDBRANCH  19  21
ENDBRANCH   1  19
TORSDOF 4
ENDMDL
MODEL 9
REMARK VINA RESULT:      -7.2      2.148      4.870
REMARK  Name = 
REMARK  6 active torsions:
REMARK  status: ('A' for Active; 'I' for Inactive)
REMARK    1  A    between atoms: C_1  and  O_2
REMARK    2  A    between atoms: O_2  and  C_3
REMARK    3  A    between atoms: C_3  and  C_4
REMARK    4  A    between atoms: C_5  and  C_6
REMARK    5  A    between atoms: N_8  and  C_9
REMARK    6  A    between atoms: C_15  and  C_16
REMARK                            x       y       z     vdW  Elec       q    Type
REMARK                         _______ _______ _______ _____ _____    ______ ____
ROOT
ATOM      1  C   UNL     1       5.442   6.189  17.612  0.00  0.00    +0.000 A 
ATOM      2  C   UNL     1       6.066   4.915  17.696  0.00  0.00    +0.000 A 
ATOM      3  C   UNL     1       7.407   4.490  17.216  0.00  0.00    +0.000 C 
ATOM      4  N   UNL     1       5.297   4.022  18.322  0.00  0.00    +0.000 NA
ATOM      5  N   UNL     1       4.111   4.651  18.518  0.00  0.00    +0.000 N 
ATOM      6  C   UNL     1       4.175   6.012  18.180  0.00  0.00    +0.000 A 
ENDROOT
BRANCH   5   7
ATOM      7  C   UNL     1       3.006   3.904  19.029  0.00  0.00    +0.000 A 
ATOM      8  C   UNL     1       2.920   3.666  20.407  0.00  0.00    +0.000 A 
ATOM      9  C   UNL     1       1.751   3.121  20.945  0.00  0.00    +0.000 A 
ATOM     10  C   UNL     1       0.685   2.781  20.111  0.00  0.00    +0.000 A 
ATOM     11  C   UNL     1       0.801   2.938  18.732  0.00  0.00    +0.000 A 
ATOM     12  C   UNL     1       1.967   3.477  18.189  0.00  0.00    +0.000 A 
ENDBRANCH   5   7
BRANCH   6  13
ATOM     13  C   UNL     1       3.128   7.010  18.463  0.00  0.00    +0.000 A 
ATOM     14  C   UNL     1       2.727   7.946  17.489  0.00  0.00    +0.000 A 
ATOM     15  C   UNL     1       1.868   9.001  17.811  0.00  0.00    +0.000 A 
ATOM     16  C   UNL     1       1.321   9.086  19.087  0.00  0.00    +0.000 A 
ATOM     17  C   UNL     1       1.633   8.116  20.035  0.00  0.00    +0.000 A 
ATOM     18  C   UNL     1       2.542   7.099  19.730  0.00  0.00    +0.000 A 
ENDBRANCH   6  13
BRANCH   1  19
ATOM     19  C   UNL     1       6.042   7.439  17.059  0.00  0.00    +0.000 C 
BRANCH  19  21
ATOM     20  C   UNL     1       7.968   8.569  17.819  0.00  0.00    +0.000 C 
ATOM     21  O   UNL     1       7.466   7.416  17.162  0.00  0.00    +0.000 OA
ENDBRANCH  19  21
ENDBRANCH   1  19
TORSDOF 4
ENDMDL
