MODEL 1
REMARK VINA RESULT:      -7.8      0.000      0.000
REMARK  Name = 
REMARK  7 active torsions:
REMARK  status: ('A' for Active; 'I' for Inactive)
REMARK    1  A    between atoms: C_1  and  C_2
REMARK    2  A    between atoms: C_2  and  C_3
REMARK    3  A    between atoms: C_3  and  C_4
REMARK    4  A    between atoms: C_4  and  C_5
REMARK    5  A    between atoms: N_7  and  C_8
REMARK    6  A    between atoms: N_7  and  C_16
REMARK    7  A    between atoms: C_8  and  C_9
REMARK                            x       y       z     vdW  Elec       q    Type
REMARK                         _______ _______ _______ _____ _____    ______ ____
ROOT
ATOM      1  C   UNL     1       2.616   3.852  17.903  0.00  0.00    +0.000 C 
ATOM      2  O   UNL     1       2.742   3.000  17.023  0.00  0.00    +0.000 OA
ATOM      3  N   UNL     1       3.652   4.746  18.228  0.00  0.00    +0.000 N 
ENDROOT
BRANCH   3   4
ATOM      4  C   UNL     1       5.072   4.328  17.965  0.00  0.00    +0.000 C 
ATOM      5  C   UNL     1       6.110   5.286  18.603  0.00  0.00    +0.000 C 
ATOM      6  C   UNL     1       6.176   6.493  17.682  0.00  0.00    +0.000 C 
ATOM      7  S   UNL     1       6.209   5.794  16.047  0.00  0.00    +0.000 S 
ATOM      8  O   UNL     1       7.598   5.665  15.657  0.00  0.00    +0.000 OA
ATOM      9  O   UNL     1       5.237   6.491  15.232  0.00  0.00    +0.000 OA
ATOM     10  C   UNL     1       5.609   4.183  16.520  0.00  0.00    +0.000 C 
ENDBRANCH   3   4
BRANCH   1  11
ATOM     11  C   UNL     1       1.279   3.953  18.635  0.00  0.00    +0.000 C 
BRANCH  11  12
ATOM     12  C   UNL     1       1.003   2.733  19.523  0.00  0.00    +0.000 C 
BRANCH  12  14
ATOM     13  C   UNL     1       2.597   2.750  21.489  0.00  0.00    +0.000 C 
ATOM     14  C   UNL     1       1.184   3.049  21.014  0.00  0.00    +0.000 C 
ENDBRANCH  12  14
ENDBRANCH  11  12
ENDBRANCH   1  11
BRANCH   3  15
ATOM     15  C   UNL     1       3.476   5.677  19.358  0.00  0.00    +0.000 C 
BRANCH  15  16
ATOM     16  C   UNL     1       2.652   6.932  19.139  0.00  0.00    +0.000 A 
ATOM     17  C   UNL     1       1.937   7.444  20.242  0.00  0.00    +0.000 A 
ATOM     18  C   UNL     1       1.269   8.667  20.165  0.00  0.00    +0.000 A 
ATOM     19  C   UNL     1       1.306   9.388  18.982  0.00  0.00    +0.000 A 
ATOM     20  F   UNL     1       0.701  10.581  18.918  0.00  0.00    +0.000 F 
ATOM     21  C   UNL     1       1.981   8.896  17.870  0.00  0.00    +0.000 A 
ATOM     22  C   UNL     1       2.659   7.671  17.947  0.00  0.00    +0.000 A 
ENDBRANCH  15  16
ENDBRANCH   3  15
TORSDOF 6
ENDMDL
MODEL 2
REMARK VINA RESULT:      -7.8      0.419      1.115
REMARK  Name = 
REMARK  7 active torsions:
REMARK  status: ('A' for Active; 'I' for Inactive)
REMARK    1  A    between atoms: C_1  and  C_2
REMARK    2  A    between atoms: C_2  and  C_3
REMARK    3  A    between atoms: C_3  and  C_4
REMARK    4  A    between atoms: C_4  and  C_5
REMARK    5  A    between atoms: N_7  and  C_8
REMARK    6  A    between atoms: N_7  and  C_16
REMARK    7  A    between atoms: C_8  and  C_9
REMARK                            x       y       z     vdW  Elec       q    Type
REMARK                         _______ _______ _______ _____ _____    ______ ____
ROOT
ATOM      1  C   UNL     1       2.414   3.857  17.722  0.00  0.00    +0.000 C 
ATOM      2  O   UNL     1       2.426   3.080  16.767  0.00  0.00    +0.000 OA
ATOM      3  N   UNL     1       3.537   4.631  18.065  0.00  0.00    +0.000 N 
ENDROOT
BRANCH   3   4
ATOM      4  C   UNL     1       4.902   4.124  17.693  0.00  0.00    +0.000 C 
ATOM      5  C   UNL     1       6.043   4.869  18.431  0.00  0.00    +0.000 C 
ATOM      6  C   UNL     1       6.211   6.191  17.700  0.00  0.00    +0.000 C 
ATOM      7  S   UNL     1       6.142   5.751  15.979  0.00  0.00    +0.000 S 
ATOM      8  O   UNL     1       7.503   5.549  15.525  0.00  0.00    +0.000 OA
ATOM      9  O   UNL     1       5.228   6.653  15.312  0.00  0.00    +0.000 OA
ATOM     10  C   UNL     1       5.393   4.151  16.225  0.00  0.00    +0.000 C 
ENDBRANCH   3   4
BRANCH   1  11
ATOM     11  C   UNL     1       1.126   4.001  18.529  0.00  0.00    +0.000 C 
BRANCH  11  12
ATOM     12  C   UNL     1       0.764   2.719  19.291  0.00  0.00    +0.000 C 
BRANCH  12  14
ATOM     13  C   UNL     1       1.755   3.003  21.603  0.00  0.00    +0.000 C 
ATOM     14  C   UNL     1       1.871   2.292  20.264  0.00  0.00    +0.000 C 
ENDBRANCH  12  14
ENDBRANCH  11  12
ENDBRANCH   1  11
BRANCH   3  15
ATOM     15  C   UNL     1       3.493   5.470  19.279  0.00  0.00    +0.000 C 
BRANCH  15  16
ATOM     16  C   UNL     1       2.818   6.826  19.195  0.00  0.00    +0.000 A 
ATOM     17  C   UNL     1       2.889   7.515  17.966  0.00  0.00    +0.000 A 
ATOM     18  C   UNL     1       2.180   8.699  17.760  0.00  0.00    +0.000 A 
ATOM     19  C   UNL     1       1.397   9.209  18.785  0.00  0.00    +0.000 A 
ATOM     20  F   UNL     1       0.683  10.323  18.576  0.00  0.00    +0.000 F 
ATOM     21  C   UNL     1       1.329   8.566  20.016  0.00  0.00    +0.000 A 
ATOM     22  C   UNL     1       2.034   7.371  20.222  0.00  0.00    +0.000 A 
ENDBRANCH  15  16
ENDBRANCH   3  15
TORSDOF 6
ENDMDL
MODEL 3
REMARK VINA RESULT:      -7.4      2.246      4.829
REMARK  Name = 
REMARK  7 active torsions:
REMARK  status: ('A' for Active; 'I' for Inactive)
REMARK    1  A    between atoms: C_1  and  C_2
REMARK    2  A    between atoms: C_2  and  C_3
REMARK    3  A    between atoms: C_3  and  C_4
REMARK    4  A    between atoms: C_4  and  C_5
REMARK    5  A    between atoms: N_7  and  C_8
REMARK    6  A    between atoms: N_7  and  C_16
REMARK    7  A    between atoms: C_8  and  C_9
REMARK                            x       y       z     vdW  Elec       q    Type
REMARK                         _______ _______ _______ _____ _____    ______ ____
ROOT
ATOM      1  C   UNL     1       5.460   5.382  19.018  0.00  0.00    +0.000 C 
ATOM      2  O   UNL     1       6.212   4.735  19.747  0.00  0.00    +0.000 OA
ATOM      3  N   UNL     1       4.070   5.419  19.228  0.00  0.00    +0.000 N 
ENDROOT
BRANCH   3   4
ATOM      4  C   UNL     1       3.417   4.257  19.923  0.00  0.00    +0.000 C 
ATOM      5  C   UNL     1       3.948   2.886  19.432  0.00  0.00    +0.000 C 
ATOM      6  C   UNL     1       3.255   2.628  18.104  0.00  0.00    +0.000 C 
ATOM      7  S   UNL     1       1.563   3.091  18.397  0.00  0.00    +0.000 S 
ATOM      8  O   UNL     1       0.844   1.894  18.784  0.00  0.00    +0.000 OA
ATOM      9  O   UNL     1       1.126   3.940  17.310  0.00  0.00    +0.000 OA
ATOM     10  C   UNL     1       1.884   4.049  19.867  0.00  0.00    +0.000 C 
ENDBRANCH   3   4
BRANCH   1  11
ATOM     11  C   UNL     1       6.069   6.191  17.874  0.00  0.00    +0.000 C 
BRANCH  11  12
ATOM     12  C   UNL     1       7.474   6.711  18.206  0.00  0.00    +0.000 C 
BRANCH  12  14
ATOM     13  C   UNL     1       8.491   9.020  18.395  0.00  0.00    +0.000 C 
ATOM     14  C   UNL     1       7.791   8.026  17.482  0.00  0.00    +0.000 C 
ENDBRANCH  12  14
ENDBRANCH  11  12
ENDBRANCH   1  11
BRANCH   3  15
ATOM     15  C   UNL     1       3.211   6.131  18.262  0.00  0.00    +0.000 C 
BRANCH  15  16
ATOM     16  C   UNL     1       2.510   7.397  18.715  0.00  0.00    +0.000 A 
ATOM     17  C   UNL     1       2.233   8.375  17.737  0.00  0.00    +0.000 A 
ATOM     18  C   UNL     1       1.469   9.503  18.039  0.00  0.00    +0.000 A 
ATOM     19  C   UNL     1       0.979   9.666  19.325  0.00  0.00    +0.000 A 
ATOM     20  F   UNL     1       0.211  10.727  19.608  0.00  0.00    +0.000 F 
ATOM     21  C   UNL     1       1.257   8.732  20.317  0.00  0.00    +0.000 A 
ATOM     22  C   UNL     1       2.018   7.594  20.014  0.00  0.00    +0.000 A 
ENDBRANCH  15  16
ENDBRANCH   3  15
TORSDOF 6
ENDMDL
MODEL 4
REMARK VINA RESULT:      -7.3      2.160      4.483
REMARK  Name = 
REMARK  7 active torsions:
REMARK  status: ('A' for Active; 'I' for Inactive)
REMARK    1  A    between atoms: C_1  and  C_2
REMARK    2  A    between atoms: C_2  and  C_3
REMARK    3  A    between atoms: C_3  and  C_4
REMARK    4  A    between atoms: C_4  and  C_5
REMARK    5  A    between atoms: N_7  and  C_8
REMARK    6  A    between atoms: N_7  and  C_16
REMARK    7  A    between atoms: C_8  and  C_9
REMARK                            x       y       z     vdW  Elec       q    Type
REMARK                         _______ _______ _______ _____ _____    ______ ____
ROOT
ATOM      1  C   UNL     1       5.601   5.488  18.941  0.00  0.00    +0.000 C 
ATOM      2  O   UNL     1       6.388   4.874  19.662  0.00  0.00    +0.000 OA
ATOM      3  N   UNL     1       4.210   5.426  19.135  0.00  0.00    +0.000 N 
ENDROOT
BRANCH   3   4
ATOM      4  C   UNL     1       3.629   4.206  19.791  0.00  0.00    +0.000 C 
ATOM      5  C   UNL     1       4.116   2.884  19.143  0.00  0.00    +0.000 C 
ATOM      6  C   UNL     1       3.301   2.726  17.869  0.00  0.00    +0.000 C 
ATOM      7  S   UNL     1       1.643   3.146  18.356  0.00  0.00    +0.000 S 
ATOM      8  O   UNL     1       0.967   1.914  18.710  0.00  0.00    +0.000 OA
ATOM      9  O   UNL     1       1.103   4.075  17.387  0.00  0.00    +0.000 OA
ATOM     10  C   UNL     1       2.098   3.987  19.862  0.00  0.00    +0.000 C 
ENDBRANCH   3   4
BRANCH   1  11
ATOM     11  C   UNL     1       6.167   6.366  17.827  0.00  0.00    +0.000 C 
BRANCH  11  12
ATOM     12  C   UNL     1       7.177   5.620  16.946  0.00  0.00    +0.000 C 
BRANCH  12  14
ATOM     13  C   UNL     1       5.450   4.842  15.268  0.00  0.00    +0.000 C 
ATOM     14  C   UNL     1       6.546   4.417  16.232  0.00  0.00    +0.000 C 
ENDBRANCH  12  14
ENDBRANCH  11  12
ENDBRANCH   1  11
BRANCH   3  15
ATOM     15  C   UNL     1       3.316   6.105  18.177  0.00  0.00    +0.000 C 
BRANCH  15  16
ATOM     16  C   UNL     1       2.606   7.370  18.623  0.00  0.00    +0.000 A 
ATOM     17  C   UNL     1       2.400   8.376  17.656  0.00  0.00    +0.000 A 
ATOM     18  C   UNL     1       1.635   9.508  17.943  0.00  0.00    +0.000 A 
ATOM     19  C   UNL     1       1.072   9.645  19.203  0.00  0.00    +0.000 A 
ATOM     20  F   UNL     1       0.304  10.709  19.469  0.00  0.00    +0.000 F 
ATOM     21  C   UNL     1       1.281   8.682  20.185  0.00  0.00    +0.000 A 
ATOM     22  C   UNL     1       2.042   7.540  19.895  0.00  0.00    +0.000 A 
ENDBRANCH  15  16
ENDBRANCH   3  15
TORSDOF 6
ENDMDL
MODEL 5
REMARK VINA RESULT:      -7.1      1.522      2.167
REMARK  Name = 
REMARK  7 active torsions:
REMARK  status: ('A' for Active; 'I' for Inactive)
REMARK    1  A    between atoms: C_1  and  C_2
REMARK    2  A    between atoms: C_2  and  C_3
REMARK    3  A    between atoms: C_3  and  C_4
REMARK    4  A    between atoms: C_4  and  C_5
REMARK    5  A    between atoms: N_7  and  C_8
REMARK    6  A    between atoms: N_7  and  C_16
REMARK    7  A    between atoms: C_8  and  C_9
REMARK                            x       y       z     vdW  Elec       q    Type
REMARK                         _______ _______ _______ _____ _____    ______ ____
ROOT
ATOM      1  C   UNL     1       4.543   4.108  19.051  0.00  0.00    +0.000 C 
ATOM      2  O   UNL     1       5.679   3.718  19.320  0.00  0.00    +0.000 OA
ATOM      3  N   UNL     1       4.291   4.986  17.982  0.00  0.00    +0.000 N 
ENDROOT
BRANCH   3   4
ATOM      4  C   UNL     1       5.388   5.913  17.539  0.00  0.00    +0.000 C 
ATOM      5  C   UNL     1       5.027   6.703  16.255  0.00  0.00    +0.000 C 
ATOM      6  C   UNL     1       5.228   5.731  15.103  0.00  0.00    +0.000 C 
ATOM      7  S   UNL     1       6.766   4.921  15.479  0.00  0.00    +0.000 S 
ATOM      8  O   UNL     1       7.819   5.645  14.797  0.00  0.00    +0.000 OA
ATOM      9  O   UNL     1       6.581   3.494  15.324  0.00  0.00    +0.000 OA
ATOM     10  C   UNL     1       6.801   5.377  17.203  0.00  0.00    +0.000 C 
ENDBRANCH   3   4
BRANCH   1  11
ATOM     11  C   UNL     1       3.376   3.589  19.889  0.00  0.00    +0.000 C 
BRANCH  11  12
ATOM     12  C   UNL     1       2.746   2.321  19.297  0.00  0.00    +0.000 C 
BRANCH  12  14
ATOM     13  C   UNL     1       0.690   3.551  20.113  0.00  0.00    +0.000 C 
ATOM     14  C   UNL     1       1.213   2.386  19.288  0.00  0.00    +0.000 C 
ENDBRANCH  12  14
ENDBRANCH  11  12
ENDBRANCH   1  11
BRANCH   3  15
ATOM     15  C   UNL     1       2.922   5.495  17.772  0.00  0.00    +0.000 C 
BRANCH  15  16
ATOM     16  C   UNL     1       2.500   6.756  18.501  0.00  0.00    +0.000 A 
ATOM     17  C   UNL     1       2.205   7.894  17.720  0.00  0.00    +0.000 A 
ATOM     18  C   UNL     1       1.676   9.049  18.297  0.00  0.00    +0.000 A 
ATOM     19  C   UNL     1       1.442   9.079  19.663  0.00  0.00    +0.000 A 
ATOM     20  F   UNL     1       0.897  10.172  20.214  0.00  0.00    +0.000 F 
ATOM     21  C   UNL     1       1.748   7.983  20.463  0.00  0.00    +0.000 A 
ATOM     22  C   UNL     1       2.271   6.818  19.883  0.00  0.00    +0.000 A 
ENDBRANCH  15  16
ENDBRANCH   3  15
TORSDOF 6
ENDMDL
MODEL 6
REMARK VINA RESULT:      -7.0      2.457      5.079
REMARK  Name = 
REMARK  7 active torsions:
REMARK  status: ('A' for Active; 'I' for Inactive)
REMARK    1  A    between atoms: C_1  and  C_2
REMARK    2  A    between atoms: C_2  and  C_3
REMARK    3  A    between atoms: C_3  and  C_4
REMARK    4  A    between atoms: C_4  and  C_5
REMARK    5  A    between atoms: N_7  and  C_8
REMARK    6  A    between atoms: N_7  and  C_16
REMARK    7  A    between atoms: C_8  and  C_9
REMARK                            x       y       z     vdW  Elec       q    Type
REMARK                         _______ _______ _______ _____ _____    ______ ____
ROOT
ATOM      1  C   UNL     1       5.656   5.444  18.295  0.00  0.00    +0.000 C 
ATOM      2  O   UNL     1       6.529   4.751  18.819  0.00  0.00    +0.000 OA
ATOM      3  N   UNL     1       4.293   5.104  18.366  0.00  0.00    +0.000 N 
ENDROOT
BRANCH   3   4
ATOM      4  C   UNL     1       3.921   3.658  18.538  0.00  0.00    +0.000 C 
ATOM      5  C   UNL     1       2.497   3.337  18.015  0.00  0.00    +0.000 C 
ATOM      6  C   UNL     1       1.543   3.829  19.092  0.00  0.00    +0.000 C 
ATOM      7  S   UNL     1       2.285   3.286  20.614  0.00  0.00    +0.000 S 
ATOM      8  O   UNL     1       1.699   2.005  20.953  0.00  0.00    +0.000 OA
ATOM      9  O   UNL     1       2.300   4.399  21.539  0.00  0.00    +0.000 OA
ATOM     10  C   UNL     1       3.909   2.996  19.937  0.00  0.00    +0.000 C 
ENDBRANCH   3   4
BRANCH   1  11
ATOM     11  C   UNL     1       6.075   6.725  17.577  0.00  0.00    +0.000 C 
BRANCH  11  12
ATOM     12  C   UNL     1       7.539   7.097  17.846  0.00  0.00    +0.000 C 
BRANCH  12  14
ATOM     13  C   UNL     1       8.702   9.186  18.677  0.00  0.00    +0.000 C 
ATOM     14  C   UNL     1       7.813   8.587  17.600  0.00  0.00    +0.000 C 
ENDBRANCH  12  14
ENDBRANCH  11  12
ENDBRANCH   1  11
BRANCH   3  15
ATOM     15  C   UNL     1       3.306   5.920  17.634  0.00  0.00    +0.000 C 
BRANCH  15  16
ATOM     16  C   UNL     1       2.703   7.124  18.333  0.00  0.00    +0.000 A 
ATOM     17  C   UNL     1       2.360   8.237  17.536  0.00  0.00    +0.000 A 
ATOM     18  C   UNL     1       1.674   9.326  18.073  0.00  0.00    +0.000 A 
ATOM     19  C   UNL     1       1.328   9.316  19.416  0.00  0.00    +0.000 A 
ATOM     20  F   UNL     1       0.634  10.342  19.925  0.00  0.00    +0.000 F 
ATOM     21  C   UNL     1       1.676   8.245  20.232  0.00  0.00    +0.000 A 
ATOM     22  C   UNL     1       2.358   7.145  19.692  0.00  0.00    +0.000 A 
ENDBRANCH  15  16
ENDBRANCH   3  15
TORSDOF 6
ENDMDL
MODEL 7
REMARK VINA RESULT:      -7.0      2.135      4.419
REMARK  Name = 
REMARK  7 active torsions:
REMARK  status: ('A' for Active; 'I' for Inactive)
REMARK    1  A    between atoms: C_1  and  C_2
REMARK    2  A    between atoms: C_2  and  C_3
REMARK    3  A    between atoms: C_3  and  C_4
REMARK    4  A    between atoms: C_4  and  C_5
REMARK    5  A    between atoms: N_7  and  C_8
REMARK    6  A    between atoms: N_7  and  C_16
REMARK    7  A    between atoms: C_8  and  C_9
REMARK                            x       y       z     vdW  Elec       q    Type
REMARK                         _______ _______ _______ _____ _____    ______ ____
ROOT
ATOM      1  C   UNL     1       5.556   5.545  18.757  0.00  0.00    +0.000 C 
ATOM      2  O   UNL     1       6.365   4.968  19.482  0.00  0.00    +0.000 OA
ATOM      3  N   UNL     1       4.169   5.473  18.983  0.00  0.00    +0.000 N 
ENDROOT
BRANCH   3   4
ATOM      4  C   UNL     1       3.619   4.270  19.697  0.00  0.00    +0.000 C 
ATOM      5  C   UNL     1       4.127   2.932  19.100  0.00  0.00    +0.000 C 
ATOM      6  C   UNL     1       3.304   2.704  17.843  0.00  0.00    +0.000 C 
ATOM      7  S   UNL     1       1.642   3.112  18.329  0.00  0.00    +0.000 S 
ATOM      8  O   UNL     1       0.995   1.883  18.742  0.00  0.00    +0.000 OA
ATOM      9  O   UNL     1       1.074   3.988  17.326  0.00  0.00    +0.000 OA
ATOM     10  C   UNL     1       2.094   4.025  19.793  0.00  0.00    +0.000 C 
ENDBRANCH   3   4
BRANCH   1  11
ATOM     11  C   UNL     1       6.085   6.389  17.598  0.00  0.00    +0.000 C 
BRANCH  11  12
ATOM     12  C   UNL     1       6.851   5.552  16.565  0.00  0.00    +0.000 C 
BRANCH  12  14
ATOM     13  C   UNL     1       6.062   4.531  14.388  0.00  0.00    +0.000 C 
ATOM     14  C   UNL     1       5.961   4.492  15.904  0.00  0.00    +0.000 C 
ENDBRANCH  12  14
ENDBRANCH  11  12
ENDBRANCH   1  11
BRANCH   3  15
ATOM     15  C   UNL     1       3.246   6.105  18.021  0.00  0.00    +0.000 C 
BRANCH  15  16
ATOM     16  C   UNL     1       2.444   7.310  18.474  0.00  0.00    +0.000 A 
ATOM     17  C   UNL     1       2.078   7.376  19.835  0.00  0.00    +0.000 A 
ATOM     18  C   UNL     1       1.464   8.512  20.364  0.00  0.00    +0.000 A 
ATOM     19  C   UNL     1       1.205   9.592  19.535  0.00  0.00    +0.000 A 
ATOM     20  F   UNL     1       0.653  10.699  20.048  0.00  0.00    +0.000 F 
ATOM     21  C   UNL     1       1.530   9.546  18.183  0.00  0.00    +0.000 A 
ATOM     22  C   UNL     1       2.155   8.408  17.652  0.00  0.00    +0.000 A 
ENDBRANCH  15  16
ENDBRANCH   3  15
TORSDOF 6
ENDMDL
MODEL 8
REMARK VINA RESULT:      -7.0      2.474      4.823
REMARK  Name = 
REMARK  7 active torsions:
REMARK  status: ('A' for Active; 'I' for Inactive)
REMARK    1  A    between atoms: C_1  and  C_2
REMARK    2  A    between atoms: C_2  and  C_3
REMARK    3  A    between atoms: C_3  and  C_4
REMARK    4  A    between atoms: C_4  and  C_5
REMARK    5  A    between atoms: N_7  and  C_8
REMARK    6  A    between atoms: N_7  and  C_16
REMARK    7  A    between atoms: C_8  and  C_9
REMARK                            x       y       z     vdW  Elec       q    Type
REMARK                         _______ _______ _______ _____ _____    ______ ____
ROOT
ATOM      1  C   UNL     1       5.249   4.662  18.902  0.00  0.00    +0.000 C 
ATOM      2  O   UNL     1       5.481   3.542  19.357  0.00  0.00    +0.000 OA
ATOM      3  N   UNL     1       4.017   4.981  18.302  0.00  0.00    +0.000 N 
ENDROOT
BRANCH   3   4
ATOM      4  C   UNL     1       3.215   3.876  17.675  0.00  0.00    +0.000 C 
ATOM      5  C   UNL     1       1.699   4.192  17.615  0.00  0.00    +0.000 C 
ATOM      6  C   UNL     1       1.169   3.934  19.017  0.00  0.00    +0.000 C 
ATOM      7  S   UNL     1       1.938   2.405  19.500  0.00  0.00    +0.000 S 
ATOM      8  O   UNL     1       1.024   1.332  19.167  0.00  0.00    +0.000 OA
ATOM      9  O   UNL     1       2.489   2.570  20.828  0.00  0.00    +0.000 OA
ATOM     10  C   UNL     1       3.225   2.445  18.265  0.00  0.00    +0.000 C 
ENDBRANCH   3   4
BRANCH   1  11
ATOM     11  C   UNL     1       6.325   5.738  19.028  0.00  0.00    +0.000 C 
BRANCH  11  12
ATOM     12  C   UNL     1       7.424   5.597  17.967  0.00  0.00    +0.000 C 
BRANCH  12  14
ATOM     13  C   UNL     1       7.881   8.080  17.799  0.00  0.00    +0.000 C 
ATOM     14  C   UNL     1       7.497   6.819  17.042  0.00  0.00    +0.000 C 
ENDBRANCH  12  14
ENDBRANCH  11  12
ENDBRANCH   1  11
BRANCH   3  15
ATOM     15  C   UNL     1       3.836   6.310  17.687  0.00  0.00    +0.000 C 
BRANCH  15  16
ATOM     16  C   UNL     1       2.958   7.322  18.398  0.00  0.00    +0.000 A 
ATOM     17  C   UNL     1       2.477   8.413  17.644  0.00  0.00    +0.000 A 
ATOM     18  C   UNL     1       1.553   9.311  18.180  0.00  0.00    +0.000 A 
ATOM     19  C   UNL     1       1.104   9.128  19.479  0.00  0.00    +0.000 A 
ATOM     20  F   UNL     1       0.187   9.964  19.983  0.00  0.00    +0.000 F 
ATOM     21  C   UNL     1       1.581   8.078  20.256  0.00  0.00    +0.000 A 
ATOM     22  C   UNL     1       2.503   7.169  19.716  0.00  0.00    +0.000 A 
ENDBRANCH  15  16
ENDBRANCH   3  15
TORSDOF 6
ENDMDL
MODEL 9
REMARK VINA RESULT:      -7.0      1.384      1.716
REMARK  Name = 
REMARK  7 active torsions:
REMARK  status: ('A' for Active; 'I' for Inactive)
REMARK    1  A    between atoms: C_1  and  C_2
REMARK    2  A    between atoms: C_2  and  C_3
REMARK    3  A    between atoms: C_3  and  C_4
REMARK    4  A    between atoms: C_4  and  C_5
REMARK    5  A    between atoms: N_7  and  C_8
REMARK    6  A    between atoms: N_7  and  C_16
REMARK    7  A    between atoms: C_8  and  C_9
REMARK                            x       y       z     vdW  Elec       q    Type
REMARK                         _______ _______ _______ _____ _____    ______ ____
ROOT
ATOM      1  C   UNL     1       2.155   4.351  17.969  0.00  0.00    +0.000 C 
ATOM      2  O   UNL     1       2.022   3.481  17.109  0.00  0.00    +0.000 OA
ATOM      3  N   UNL     1       3.039   5.433  17.804  0.00  0.00    +0.000 N 
ENDROOT
BRANCH   3   4
ATOM      4  C   UNL     1       4.233   5.255  16.908  0.00  0.00    +0.000 C 
ATOM      5  C   UNL     1       4.739   3.790  16.863  0.00  0.00    +0.000 C 
ATOM      6  C   UNL     1       5.529   3.588  18.146  0.00  0.00    +0.000 C 
ATOM      7  S   UNL     1       6.506   5.066  18.295  0.00  0.00    +0.000 S 
ATOM      8  O   UNL     1       7.795   4.800  17.688  0.00  0.00    +0.000 OA
ATOM      9  O   UNL     1       6.374   5.568  19.646  0.00  0.00    +0.000 OA
ATOM     10  C   UNL     1       5.543   6.042  17.154  0.00  0.00    +0.000 C 
ENDBRANCH   3   4
BRANCH   1  11
ATOM     11  C   UNL     1       1.306   4.262  19.236  0.00  0.00    +0.000 C 
BRANCH  11  12
ATOM     12  C   UNL     1       1.026   2.812  19.654  0.00  0.00    +0.000 C 
BRANCH  12  14
ATOM     13  C   UNL     1       2.257   3.702  21.678  0.00  0.00    +0.000 C 
ATOM     14  C   UNL     1       1.574   2.497  21.052  0.00  0.00    +0.000 C 
ENDBRANCH  12  14
ENDBRANCH  11  12
ENDBRANCH   1  11
BRANCH   3  15
ATOM     15  C   UNL     1       3.228   6.388  18.912  0.00  0.00    +0.000 C 
BRANCH  15  16
ATOM     16  C   UNL     1       2.309   7.593  18.991  0.00  0.00    +0.000 A 
ATOM     17  C   UNL     1       1.736   7.895  20.244  0.00  0.00    +0.000 A 
ATOM     18  C   UNL     1       0.994   9.061  20.437  0.00  0.00    +0.000 A 
ATOM     19  C   UNL     1       0.815   9.935  19.376  0.00  0.00    +0.000 A 
ATOM     20  F   UNL     1       0.138  11.075  19.569  0.00  0.00    +0.000 F 
ATOM     21  C   UNL     1       1.345   9.651  18.122  0.00  0.00    +0.000 A 
ATOM     22  C   UNL     1       2.098   8.484  17.928  0.00  0.00    +0.000 A 
ENDBRANCH  15  16
ENDBRANCH   3  15
TORSDOF 6
ENDMDL
