MODEL 1
REMARK VINA RESULT:      -6.9      0.000      0.000
REMARK  Name = 
REMARK  10 active torsions:
REMARK  status: ('A' for Active; 'I' for Inactive)
REMARK    1  A    between atoms: C_1  and  O_2
REMARK    2  A    between atoms: O_2  and  C_3
REMARK    3  A    between atoms: C_6  and  S_7
REMARK    4  A    between atoms: S_7  and  C_8
REMARK    5  A    between atoms: C_8  and  C_9
REMARK    6  A    between atoms: C_9  and  O_10
REMARK    7  A    between atoms: C_9  and  C_11
REMARK    8  A    between atoms: C_11  and  N_12
REMARK    9  A    between atoms: C_21  and  O_22
REMARK   10  A    between atoms: O_22  and  C_23
REMARK                            x       y       z     vdW  Elec       q    Type
REMARK                         _______ _______ _______ _____ _____    ______ ____
ROOT
ATOM      1  C   UNL     1       4.246   2.881  18.218  0.00  0.00    +0.000 C 
ENDROOT
BRANCH   1   2
ATOM      2  O   UNL     1       5.075   2.468  19.315  0.00  0.00    +0.000 OA
ATOM      3  H   UNL     1       4.694   1.656  19.695  0.00  0.00    +0.000 HD
ENDBRANCH   1   2
BRANCH   1   4
ATOM      4  C   UNL     1       3.112   1.857  17.932  0.00  0.00    +0.000 C 
BRANCH   4   5
ATOM      5  S   UNL     1       1.428   2.416  18.414  0.00  0.00    +0.000 S 
BRANCH   5   9
ATOM      6  C   UNL     1       1.888   6.802  19.971  0.00  0.00    +0.000 A 
ATOM      7  C   UNL     1       2.054   6.510  18.613  0.00  0.00    +0.000 A 
ATOM      8  C   UNL     1       1.927   5.197  18.128  0.00  0.00    +0.000 A 
ATOM      9  C   UNL     1       1.628   4.133  18.990  0.00  0.00    +0.000 A 
ATOM     10  C   UNL     1       1.478   4.430  20.375  0.00  0.00    +0.000 A 
ATOM     11  C   UNL     1       1.611   5.759  20.838  0.00  0.00    +0.000 A 
BRANCH   6  13
ATOM     12  C   UNL     1       1.249   8.606  21.387  0.00  0.00    +0.000 C 
ATOM     13  O   UNL     1       2.029   8.124  20.299  0.00  0.00    +0.000 OA
ENDBRANCH   6  13
BRANCH  10  14
ATOM     14  O   UNL     1       1.200   3.374  21.213  0.00  0.00    +0.000 OA
ATOM     15  C   UNL     1       2.295   2.721  21.844  0.00  0.00    +0.000 C 
ENDBRANCH  10  14
ENDBRANCH   5   9
ENDBRANCH   4   5
ENDBRANCH   1   4
BRANCH   1  16
ATOM     16  C   UNL     1       5.149   3.305  17.021  0.00  0.00    +0.000 C 
BRANCH  16  17
ATOM     17  N   UNL     1       5.463   4.722  17.008  0.00  0.00    +0.000 N 
ATOM     18  C   UNL     1       4.696   5.640  16.332  0.00  0.00    +0.000 A 
ATOM     19  C   UNL     1       5.547   6.668  15.993  0.00  0.00    +0.000 A 
ATOM     20  C   UNL     1       6.570   6.640  16.959  0.00  0.00    +0.000 A 
ATOM     21  C   UNL     1       7.516   7.599  17.352  0.00  0.00    +0.000 A 
ATOM     22  C   UNL     1       8.229   7.397  18.533  0.00  0.00    +0.000 A 
ATOM     23  C   UNL     1       8.080   6.210  19.251  0.00  0.00    +0.000 A 
ATOM     24  C   UNL     1       7.231   5.171  18.804  0.00  0.00    +0.000 A 
ATOM     25  C   UNL     1       6.453   5.431  17.662  0.00  0.00    +0.000 A 
ENDBRANCH  16  17
ENDBRANCH   1  16
TORSDOF 8
ENDMDL
MODEL 2
REMARK VINA RESULT:      -6.9      2.846      6.807
REMARK  Name = 
REMARK  10 active torsions:
REMARK  status: ('A' for Active; 'I' for Inactive)
REMARK    1  A    between atoms: C_1  and  O_2
REMARK    2  A    between atoms: O_2  and  C_3
REMARK    3  A    between atoms: C_6  and  S_7
REMARK    4  A    between atoms: S_7  and  C_8
REMARK    5  A    between atoms: C_8  and  C_9
REMARK    6  A    between atoms: C_9  and  O_10
REMARK    7  A    between atoms: C_9  and  C_11
REMARK    8  A    between atoms: C_11  and  N_12
REMARK    9  A    between atoms: C_21  and  O_22
REMARK   10  A    between atoms: O_22  and  C_23
REMARK                            x       y       z     vdW  Elec       q    Type
REMARK                         _______ _______ _______ _____ _____    ______ ____
ROOT
ATOM      1  C   UNL     1       2.777   5.952  19.388  0.00  0.00    +0.000 C 
ENDROOT
BRANCH   1   2
ATOM      2  O   UNL     1       4.077   5.931  19.999  0.00  0.00    +0.000 OA
ATOM      3  H   UNL     1       4.350   5.001  20.098  0.00  0.00    +0.000 HD
ENDBRANCH   1   2
BRANCH   1   4
ATOM      4  C   UNL     1       2.566   4.744  18.433  0.00  0.00    +0.000 C 
BRANCH   4   5
ATOM      5  S   UNL     1       3.917   3.497  18.456  0.00  0.00    +0.000 S 
BRANCH   5   9
ATOM      6  C   UNL     1       7.060   5.007  15.340  0.00  0.00    +0.000 A 
ATOM      7  C   UNL     1       5.878   4.392  14.915  0.00  0.00    +0.000 A 
ATOM      8  C   UNL     1       4.925   3.926  15.837  0.00  0.00    +0.000 A 
ATOM      9  C   UNL     1       5.127   4.061  17.217  0.00  0.00    +0.000 A 
ATOM     10  C   UNL     1       6.341   4.670  17.648  0.00  0.00    +0.000 A 
ATOM     11  C   UNL     1       7.284   5.130  16.700  0.00  0.00    +0.000 A 
BRANCH   6  13
ATOM     12  C   UNL     1       7.586   4.968  13.019  0.00  0.00    +0.000 C 
ATOM     13  O   UNL     1       7.890   5.421  14.333  0.00  0.00    +0.000 OA
ENDBRANCH   6  13
BRANCH  10  14
ATOM     14  O   UNL     1       6.534   4.782  19.006  0.00  0.00    +0.000 OA
ATOM     15  C   UNL     1       7.664   5.518  19.458  0.00  0.00    +0.000 C 
ENDBRANCH  10  14
ENDBRANCH   5   9
ENDBRANCH   4   5
ENDBRANCH   1   4
BRANCH   1  16
ATOM     16  C   UNL     1       2.500   7.375  18.819  0.00  0.00    +0.000 C 
BRANCH  16  17
ATOM     17  N   UNL     1       1.739   8.221  19.721  0.00  0.00    +0.000 N 
ATOM     18  C   UNL     1       1.536   7.895  21.040  0.00  0.00    +0.000 A 
ATOM     19  C   UNL     1       0.345   8.487  21.397  0.00  0.00    +0.000 A 
ATOM     20  C   UNL     1       0.207   9.594  20.540  0.00  0.00    +0.000 A 
ATOM     21  C   UNL     1      -0.588  10.749  20.618  0.00  0.00    +0.000 A 
ATOM     22  C   UNL     1      -0.313  11.814  19.764  0.00  0.00    +0.000 A 
ATOM     23  C   UNL     1       0.666  11.692  18.777  0.00  0.00    +0.000 A 
ATOM     24  C   UNL     1       1.389  10.492  18.591  0.00  0.00    +0.000 A 
ATOM     25  C   UNL     1       1.162   9.460  19.521  0.00  0.00    +0.000 A 
ENDBRANCH  16  17
ENDBRANCH   1  16
TORSDOF 8
ENDMDL
MODEL 3
REMARK VINA RESULT:      -6.7      4.354      8.114
REMARK  Name = 
REMARK  10 active torsions:
REMARK  status: ('A' for Active; 'I' for Inactive)
REMARK    1  A    between atoms: C_1  and  O_2
REMARK    2  A    between atoms: O_2  and  C_3
REMARK    3  A    between atoms: C_6  and  S_7
REMARK    4  A    between atoms: S_7  and  C_8
REMARK    5  A    between atoms: C_8  and  C_9
REMARK    6  A    between atoms: C_9  and  O_10
REMARK    7  A    between atoms: C_9  and  C_11
REMARK    8  A    between atoms: C_11  and  N_12
REMARK    9  A    between atoms: C_21  and  O_22
REMARK   10  A    between atoms: O_22  and  C_23
REMARK                            x       y       z     vdW  Elec       q    Type
REMARK                         _______ _______ _______ _____ _____    ______ ____
ROOT
ATOM      1  C   UNL     1       1.623   9.784  18.685  0.00  0.00    +0.000 C 
ENDROOT
BRANCH   1   2
ATOM      2  O   UNL     1       1.567  10.911  17.797  0.00  0.00    +0.000 OA
ATOM      3  H   UNL     1       1.297  10.591  16.917  0.00  0.00    +0.000 HD
ENDBRANCH   1   2
BRANCH   1   4
ATOM      4  C   UNL     1       1.894   8.457  17.921  0.00  0.00    +0.000 C 
BRANCH   4   5
ATOM      5  S   UNL     1       2.628   7.116  18.942  0.00  0.00    +0.000 S 
BRANCH   5   9
ATOM      6  C   UNL     1       5.144   4.447  16.040  0.00  0.00    +0.000 A 
ATOM      7  C   UNL     1       5.330   5.833  16.070  0.00  0.00    +0.000 A 
ATOM      8  C   UNL     1       4.578   6.652  16.930  0.00  0.00    +0.000 A 
ATOM      9  C   UNL     1       3.615   6.107  17.790  0.00  0.00    +0.000 A 
ATOM     10  C   UNL     1       3.414   4.697  17.743  0.00  0.00    +0.000 A 
ATOM     11  C   UNL     1       4.182   3.896  16.868  0.00  0.00    +0.000 A 
BRANCH   6  13
ATOM     12  C   UNL     1       6.733   4.563  14.272  0.00  0.00    +0.000 C 
ATOM     13  O   UNL     1       5.952   3.775  15.163  0.00  0.00    +0.000 OA
ENDBRANCH   6  13
BRANCH  10  14
ATOM     14  O   UNL     1       2.453   4.177  18.581  0.00  0.00    +0.000 OA
ATOM     15  C   UNL     1       1.771   3.002  18.159  0.00  0.00    +0.000 C 
ENDBRANCH  10  14
ENDBRANCH   5   9
ENDBRANCH   4   5
ENDBRANCH   1   4
BRANCH   1  16
ATOM     16  C   UNL     1       0.395   9.824  19.644  0.00  0.00    +0.000 C 
BRANCH  16  17
ATOM     17  N   UNL     1      -0.664  10.707  19.190  0.00  0.00    +0.000 N 
ATOM     18  C   UNL     1      -0.840  11.969  19.704  0.00  0.00    +0.000 A 
ATOM     19  C   UNL     1      -2.182  12.247  19.570  0.00  0.00    +0.000 A 
ATOM     20  C   UNL     1      -2.618  11.470  18.481  0.00  0.00    +0.000 A 
ATOM     21  C   UNL     1      -3.754  11.557  17.660  0.00  0.00    +0.000 A 
ATOM     22  C   UNL     1      -3.786  10.821  16.477  0.00  0.00    +0.000 A 
ATOM     23  C   UNL     1      -2.755   9.933  16.170  0.00  0.00    +0.000 A 
ATOM     24  C   UNL     1      -1.664   9.729  17.046  0.00  0.00    +0.000 A 
ATOM     25  C   UNL     1      -1.602  10.547  18.189  0.00  0.00    +0.000 A 
ENDBRANCH  16  17
ENDBRANCH   1  16
TORSDOF 8
ENDMDL
MODEL 4
REMARK VINA RESULT:      -6.6      2.252      5.300
REMARK  Name = 
REMARK  10 active torsions:
REMARK  status: ('A' for Active; 'I' for Inactive)
REMARK    1  A    between atoms: C_1  and  O_2
REMARK    2  A    between atoms: O_2  and  C_3
REMARK    3  A    between atoms: C_6  and  S_7
REMARK    4  A    between atoms: S_7  and  C_8
REMARK    5  A    between atoms: C_8  and  C_9
REMARK    6  A    between atoms: C_9  and  O_10
REMARK    7  A    between atoms: C_9  and  C_11
REMARK    8  A    between atoms: C_11  and  N_12
REMARK    9  A    between atoms: C_21  and  O_22
REMARK   10  A    between atoms: O_22  and  C_23
REMARK                            x       y       z     vdW  Elec       q    Type
REMARK                         _______ _______ _______ _____ _____    ______ ____
ROOT
ATOM      1  C   UNL     1       2.070   4.417  20.297  0.00  0.00    +0.000 C 
ENDROOT
BRANCH   1   2
ATOM      2  O   UNL     1       0.655   4.178  20.359  0.00  0.00    +0.000 OA
ATOM      3  H   UNL     1       0.229   4.697  19.654  0.00  0.00    +0.000 HD
ENDBRANCH   1   2
BRANCH   1   4
ATOM      4  C   UNL     1       2.877   3.308  21.030  0.00  0.00    +0.000 C 
BRANCH   4   5
ATOM      5  S   UNL     1       4.165   2.488  20.006  0.00  0.00    +0.000 S 
BRANCH   5   9
ATOM      6  C   UNL     1       6.041   5.824  17.318  0.00  0.00    +0.000 A 
ATOM      7  C   UNL     1       6.281   5.804  18.696  0.00  0.00    +0.000 A 
ATOM      8  C   UNL     1       5.720   4.814  19.521  0.00  0.00    +0.000 A 
ATOM      9  C   UNL     1       4.899   3.809  18.990  0.00  0.00    +0.000 A 
ATOM     10  C   UNL     1       4.641   3.843  17.589  0.00  0.00    +0.000 A 
ATOM     11  C   UNL     1       5.216   4.851  16.781  0.00  0.00    +0.000 A 
BRANCH   6  13
ATOM     12  C   UNL     1       7.544   7.668  17.383  0.00  0.00    +0.000 C 
ATOM     13  O   UNL     1       6.660   6.838  16.639  0.00  0.00    +0.000 OA
ENDBRANCH   6  13
BRANCH  10  14
ATOM     14  O   UNL     1       3.820   2.860  17.084  0.00  0.00    +0.000 OA
ATOM     15  C   UNL     1       2.427   3.137  17.000  0.00  0.00    +0.000 C 
ENDBRANCH  10  14
ENDBRANCH   5   9
ENDBRANCH   4   5
ENDBRANCH   1   4
BRANCH   1  16
ATOM     16  C   UNL     1       2.359   5.896  20.692  0.00  0.00    +0.000 C 
BRANCH  16  17
ATOM     17  N   UNL     1       2.188   6.831  19.594  0.00  0.00    +0.000 N 
ATOM     18  C   UNL     1       2.396   6.474  18.284  0.00  0.00    +0.000 A 
ATOM     19  C   UNL     1       2.772   7.628  17.633  0.00  0.00    +0.000 A 
ATOM     20  C   UNL     1       2.198   8.678  18.373  0.00  0.00    +0.000 A 
ATOM     21  C   UNL     1       1.935  10.019  18.051  0.00  0.00    +0.000 A 
ATOM     22  C   UNL     1       1.100  10.760  18.885  0.00  0.00    +0.000 A 
ATOM     23  C   UNL     1       0.621  10.208  20.073  0.00  0.00    +0.000 A 
ATOM     24  C   UNL     1       0.979   8.904  20.486  0.00  0.00    +0.000 A 
ATOM     25  C   UNL     1       1.747   8.140  19.588  0.00  0.00    +0.000 A 
ENDBRANCH  16  17
ENDBRANCH   1  16
TORSDOF 8
ENDMDL
MODEL 5
REMARK VINA RESULT:      -6.5      2.075      3.070
REMARK  Name = 
REMARK  10 active torsions:
REMARK  status: ('A' for Active; 'I' for Inactive)
REMARK    1  A    between atoms: C_1  and  O_2
REMARK    2  A    between atoms: O_2  and  C_3
REMARK    3  A    between atoms: C_6  and  S_7
REMARK    4  A    between atoms: S_7  and  C_8
REMARK    5  A    between atoms: C_8  and  C_9
REMARK    6  A    between atoms: C_9  and  O_10
REMARK    7  A    between atoms: C_9  and  C_11
REMARK    8  A    between atoms: C_11  and  N_12
REMARK    9  A    between atoms: C_21  and  O_22
REMARK   10  A    between atoms: O_22  and  C_23
REMARK                            x       y       z     vdW  Elec       q    Type
REMARK                         _______ _______ _______ _____ _____    ______ ____
ROOT
ATOM      1  C   UNL     1       2.206   2.688  19.199  0.00  0.00    +0.000 C 
ENDROOT
BRANCH   1   2
ATOM      2  O   UNL     1       1.819   2.131  17.934  0.00  0.00    +0.000 OA
ATOM      3  H   UNL     1       1.240   1.366  18.104  0.00  0.00    +0.000 HD
ENDBRANCH   1   2
BRANCH   1   4
ATOM      4  C   UNL     1       1.398   3.973  19.538  0.00  0.00    +0.000 C 
BRANCH   4   5
ATOM      5  S   UNL     1       2.298   5.199  20.571  0.00  0.00    +0.000 S 
BRANCH   5   9
ATOM      6  C   UNL     1       2.126   9.224  18.197  0.00  0.00    +0.000 A 
ATOM      7  C   UNL     1       2.813   8.123  17.677  0.00  0.00    +0.000 A 
ATOM      8  C   UNL     1       2.882   6.907  18.379  0.00  0.00    +0.000 A 
ATOM      9  C   UNL     1       2.262   6.756  19.627  0.00  0.00    +0.000 A 
ATOM     10  C   UNL     1       1.579   7.886  20.163  0.00  0.00    +0.000 A 
ATOM     11  C   UNL     1       1.525   9.098  19.437  0.00  0.00    +0.000 A 
BRANCH   6  13
ATOM     12  C   UNL     1       2.376  11.586  18.037  0.00  0.00    +0.000 C 
ATOM     13  O   UNL     1       2.132  10.338  17.399  0.00  0.00    +0.000 OA
ENDBRANCH   6  13
BRANCH  10  14
ATOM     14  O   UNL     1       0.988   7.729  21.397  0.00  0.00    +0.000 OA
ATOM     15  C   UNL     1       0.142   8.773  21.865  0.00  0.00    +0.000 C 
ENDBRANCH  10  14
ENDBRANCH   5   9
ENDBRANCH   4   5
ENDBRANCH   1   4
BRANCH   1  16
ATOM     16  C   UNL     1       3.760   2.778  19.268  0.00  0.00    +0.000 C 
BRANCH  16  17
ATOM     17  N   UNL     1       4.335   3.635  18.247  0.00  0.00    +0.000 N 
ATOM     18  C   UNL     1       3.761   3.793  17.009  0.00  0.00    +0.000 A 
ATOM     19  C   UNL     1       4.794   4.092  16.148  0.00  0.00    +0.000 A 
ATOM     20  C   UNL     1       5.784   4.693  16.948  0.00  0.00    +0.000 A 
ATOM     21  C   UNL     1       6.890   5.496  16.627  0.00  0.00    +0.000 A 
ATOM     22  C   UNL     1       7.539   6.185  17.650  0.00  0.00    +0.000 A 
ATOM     23  C   UNL     1       7.162   5.994  18.979  0.00  0.00    +0.000 A 
ATOM     24  C   UNL     1       6.138   5.088  19.339  0.00  0.00    +0.000 A 
ATOM     25  C   UNL     1       5.434   4.472  18.289  0.00  0.00    +0.000 A 
ENDBRANCH  16  17
ENDBRANCH   1  16
TORSDOF 8
ENDMDL
MODEL 6
REMARK VINA RESULT:      -6.4      2.533      6.165
REMARK  Name = 
REMARK  10 active torsions:
REMARK  status: ('A' for Active; 'I' for Inactive)
REMARK    1  A    between atoms: C_1  and  O_2
REMARK    2  A    between atoms: O_2  and  C_3
REMARK    3  A    between atoms: C_6  and  S_7
REMARK    4  A    between atoms: S_7  and  C_8
REMARK    5  A    between atoms: C_8  and  C_9
REMARK    6  A    between atoms: C_9  and  O_10
REMARK    7  A    between atoms: C_9  and  C_11
REMARK    8  A    between atoms: C_11  and  N_12
REMARK    9  A    between atoms: C_21  and  O_22
REMARK   10  A    between atoms: O_22  and  C_23
REMARK                            x       y       z     vdW  Elec       q    Type
REMARK                         _______ _______ _______ _____ _____    ______ ____
ROOT
ATOM      1  C   UNL     1       2.352   5.552  19.194  0.00  0.00    +0.000 C 
ENDROOT
BRANCH   1   2
ATOM      2  O   UNL     1       2.789   5.002  20.446  0.00  0.00    +0.000 OA
ATOM      3  H   UNL     1       2.563   4.054  20.456  0.00  0.00    +0.000 HD
ENDBRANCH   1   2
BRANCH   1   4
ATOM      4  C   UNL     1       2.453   4.516  18.039  0.00  0.00    +0.000 C 
BRANCH   4   5
ATOM      5  S   UNL     1       4.011   3.541  18.012  0.00  0.00    +0.000 S 
BRANCH   5   9
ATOM      6  C   UNL     1       7.478   6.674  18.196  0.00  0.00    +0.000 A 
ATOM      7  C   UNL     1       7.132   5.931  19.329  0.00  0.00    +0.000 A 
ATOM      8  C   UNL     1       6.088   4.990  19.295  0.00  0.00    +0.000 A 
ATOM      9  C   UNL     1       5.357   4.763  18.121  0.00  0.00    +0.000 A 
ATOM     10  C   UNL     1       5.699   5.535  16.973  0.00  0.00    +0.000 A 
ATOM     11  C   UNL     1       6.752   6.476  17.034  0.00  0.00    +0.000 A 
BRANCH   6  13
ATOM     12  C   UNL     1       8.266   8.918  18.104  0.00  0.00    +0.000 C 
ATOM     13  O   UNL     1       8.520   7.544  18.372  0.00  0.00    +0.000 OA
ENDBRANCH   6  13
BRANCH  10  14
ATOM     14  O   UNL     1       4.961   5.314  15.832  0.00  0.00    +0.000 OA
ATOM     15  C   UNL     1       5.608   4.673  14.738  0.00  0.00    +0.000 C 
ENDBRANCH  10  14
ENDBRANCH   5   9
ENDBRANCH   4   5
ENDBRANCH   1   4
BRANCH   1  16
ATOM     16  C   UNL     1       3.031   6.938  18.977  0.00  0.00    +0.000 C 
BRANCH  16  17
ATOM     17  N   UNL     1       2.094   8.047  18.976  0.00  0.00    +0.000 N 
ATOM     18  C   UNL     1       1.740   8.710  17.826  0.00  0.00    +0.000 A 
ATOM     19  C   UNL     1       1.409   9.989  18.215  0.00  0.00    +0.000 A 
ATOM     20  C   UNL     1       0.987   9.876  19.552  0.00  0.00    +0.000 A 
ATOM     21  C   UNL     1       0.230  10.727  20.374  0.00  0.00    +0.000 A 
ATOM     22  C   UNL     1      -0.274  10.230  21.573  0.00  0.00    +0.000 A 
ATOM     23  C   UNL     1       0.057   8.943  21.999  0.00  0.00    +0.000 A 
ATOM     24  C   UNL     1       0.926   8.114  21.253  0.00  0.00    +0.000 A 
ATOM     25  C   UNL     1       1.351   8.597  20.002  0.00  0.00    +0.000 A 
ENDBRANCH  16  17
ENDBRANCH   1  16
TORSDOF 8
ENDMDL
MODEL 7
REMARK VINA RESULT:      -6.4      4.554      6.993
REMARK  Name = 
REMARK  10 active torsions:
REMARK  status: ('A' for Active; 'I' for Inactive)
REMARK    1  A    between atoms: C_1  and  O_2
REMARK    2  A    between atoms: O_2  and  C_3
REMARK    3  A    between atoms: C_6  and  S_7
REMARK    4  A    between atoms: S_7  and  C_8
REMARK    5  A    between atoms: C_8  and  C_9
REMARK    6  A    between atoms: C_9  and  O_10
REMARK    7  A    between atoms: C_9  and  C_11
REMARK    8  A    between atoms: C_11  and  N_12
REMARK    9  A    between atoms: C_21  and  O_22
REMARK   10  A    between atoms: O_22  and  C_23
REMARK                            x       y       z     vdW  Elec       q    Type
REMARK                         _______ _______ _______ _____ _____    ______ ____
ROOT
ATOM      1  C   UNL     1       2.267   8.037  18.742  0.00  0.00    +0.000 C 
ENDROOT
BRANCH   1   2
ATOM      2  O   UNL     1       1.776   7.879  20.082  0.00  0.00    +0.000 OA
ATOM      3  H   UNL     1       2.340   7.230  20.538  0.00  0.00    +0.000 HD
ENDBRANCH   1   2
BRANCH   1   4
ATOM      4  C   UNL     1       1.520   9.167  17.979  0.00  0.00    +0.000 C 
BRANCH   4   5
ATOM      5  S   UNL     1       0.749  10.443  19.055  0.00  0.00    +0.000 S 
BRANCH   5   9
ATOM      6  C   UNL     1      -3.634  11.020  17.531  0.00  0.00    +0.000 A 
ATOM      7  C   UNL     1      -2.766  10.139  16.877  0.00  0.00    +0.000 A 
ATOM      8  C   UNL     1      -1.443   9.958  17.317  0.00  0.00    +0.000 A 
ATOM      9  C   UNL     1      -0.947  10.655  18.427  0.00  0.00    +0.000 A 
ATOM     10  C   UNL     1      -1.829  11.566  19.079  0.00  0.00    +0.000 A 
ATOM     11  C   UNL     1      -3.154  11.731  18.617  0.00  0.00    +0.000 A 
BRANCH   6  13
ATOM     12  C   UNL     1      -5.799  12.007  17.600  0.00  0.00    +0.000 C 
ATOM     13  O   UNL     1      -4.895  11.087  17.000  0.00  0.00    +0.000 OA
ENDBRANCH   6  13
BRANCH  10  14
ATOM     14  O   UNL     1      -1.324  12.256  20.158  0.00  0.00    +0.000 OA
ATOM     15  C   UNL     1      -1.200  13.669  20.043  0.00  0.00    +0.000 C 
ENDBRANCH  10  14
ENDBRANCH   5   9
ENDBRANCH   4   5
ENDBRANCH   1   4
BRANCH   1  16
ATOM     16  C   UNL     1       2.348   6.640  18.056  0.00  0.00    +0.000 C 
BRANCH  16  17
ATOM     17  N   UNL     1       3.064   5.651  18.842  0.00  0.00    +0.000 N 
ATOM     18  C   UNL     1       4.435   5.645  18.946  0.00  0.00    +0.000 A 
ATOM     19  C   UNL     1       4.791   4.335  19.171  0.00  0.00    +0.000 A 
ATOM     20  C   UNL     1       3.673   3.745  19.790  0.00  0.00    +0.000 A 
ATOM     21  C   UNL     1       3.529   2.571  20.547  0.00  0.00    +0.000 A 
ATOM     22  C   UNL     1       2.356   2.379  21.274  0.00  0.00    +0.000 A 
ATOM     23  C   UNL     1       1.302   3.287  21.165  0.00  0.00    +0.000 A 
ATOM     24  C   UNL     1       1.372   4.408  20.306  0.00  0.00    +0.000 A 
ATOM     25  C   UNL     1       2.597   4.634  19.651  0.00  0.00    +0.000 A 
ENDBRANCH  16  17
ENDBRANCH   1  16
TORSDOF 8
ENDMDL
MODEL 8
REMARK VINA RESULT:      -6.3      3.173      5.927
REMARK  Name = 
REMARK  10 active torsions:
REMARK  status: ('A' for Active; 'I' for Inactive)
REMARK    1  A    between atoms: C_1  and  O_2
REMARK    2  A    between atoms: O_2  and  C_3
REMARK    3  A    between atoms: C_6  and  S_7
REMARK    4  A    between atoms: S_7  and  C_8
REMARK    5  A    between atoms: C_8  and  C_9
REMARK    6  A    between atoms: C_9  and  O_10
REMARK    7  A    between atoms: C_9  and  C_11
REMARK    8  A    between atoms: C_11  and  N_12
REMARK    9  A    between atoms: C_21  and  O_22
REMARK   10  A    between atoms: O_22  and  C_23
REMARK                            x       y       z     vdW  Elec       q    Type
REMARK                         _______ _______ _______ _____ _____    ______ ____
ROOT
ATOM      1  C   UNL     1       3.466   6.730  17.620  0.00  0.00    +0.000 C 
ENDROOT
BRANCH   1   2
ATOM      2  O   UNL     1       4.281   7.822  17.168  0.00  0.00    +0.000 OA
ATOM      3  H   UNL     1       4.215   7.869  16.197  0.00  0.00    +0.000 HD
ENDBRANCH   1   2
BRANCH   1   4
ATOM      4  C   UNL     1       2.288   7.216  18.510  0.00  0.00    +0.000 C 
BRANCH   4   5
ATOM      5  S   UNL     1       1.759   8.951  18.208  0.00  0.00    +0.000 S 
BRANCH   5   9
ATOM      6  C   UNL     1      -0.325  10.432  22.124  0.00  0.00    +0.000 A 
ATOM      7  C   UNL     1       0.596   9.380  22.165  0.00  0.00    +0.000 A 
ATOM      8  C   UNL     1       1.227   8.917  20.997  0.00  0.00    +0.000 A 
ATOM      9  C   UNL     1       0.954   9.494  19.750  0.00  0.00    +0.000 A 
ATOM     10  C   UNL     1       0.001  10.553  19.709  0.00  0.00    +0.000 A 
ATOM     11  C   UNL     1      -0.620  11.000  20.897  0.00  0.00    +0.000 A 
BRANCH   6  13
ATOM     12  C   UNL     1      -2.020  11.596  23.323  0.00  0.00    +0.000 C 
ATOM     13  O   UNL     1      -0.852  10.785  23.338  0.00  0.00    +0.000 OA
ENDBRANCH   6  13
BRANCH  10  14
ATOM     14  O   UNL     1      -0.269  11.100  18.475  0.00  0.00    +0.000 OA
ATOM     15  C   UNL     1      -1.619  11.093  18.027  0.00  0.00    +0.000 C 
ENDBRANCH  10  14
ENDBRANCH   5   9
ENDBRANCH   4   5
ENDBRANCH   1   4
BRANCH   1  16
ATOM     16  C   UNL     1       4.382   5.606  18.191  0.00  0.00    +0.000 C 
BRANCH  16  17
ATOM     17  N   UNL     1       3.687   4.350  18.411  0.00  0.00    +0.000 N 
ATOM     18  C   UNL     1       3.766   3.301  17.527  0.00  0.00    +0.000 A 
ATOM     19  C   UNL     1       2.589   2.600  17.667  0.00  0.00    +0.000 A 
ATOM     20  C   UNL     1       2.155   2.856  18.981  0.00  0.00    +0.000 A 
ATOM     21  C   UNL     1       1.241   2.192  19.814  0.00  0.00    +0.000 A 
ATOM     22  C   UNL     1       1.218   2.506  21.171  0.00  0.00    +0.000 A 
ATOM     23  C   UNL     1       2.014   3.536  21.671  0.00  0.00    +0.000 A 
ATOM     24  C   UNL     1       2.846   4.309  20.828  0.00  0.00    +0.000 A 
ATOM     25  C   UNL     1       2.925   3.918  19.479  0.00  0.00    +0.000 A 
ENDBRANCH  16  17
ENDBRANCH   1  16
TORSDOF 8
ENDMDL
MODEL 9
REMARK VINA RESULT:      -6.3      4.138      6.979
REMARK  Name = 
REMARK  10 active torsions:
REMARK  status: ('A' for Active; 'I' for Inactive)
REMARK    1  A    between atoms: C_1  and  O_2
REMARK    2  A    between atoms: O_2  and  C_3
REMARK    3  A    between atoms: C_6  and  S_7
REMARK    4  A    between atoms: S_7  and  C_8
REMARK    5  A    between atoms: C_8  and  C_9
REMARK    6  A    between atoms: C_9  and  O_10
REMARK    7  A    between atoms: C_9  and  C_11
REMARK    8  A    between atoms: C_11  and  N_12
REMARK    9  A    between atoms: C_21  and  O_22
REMARK   10  A    between atoms: O_22  and  C_23
REMARK                            x       y       z     vdW  Elec       q    Type
REMARK                         _______ _______ _______ _____ _____    ______ ____
ROOT
ATOM      1  C   UNL     1       1.185   9.087  18.149  0.00  0.00    +0.000 C 
ENDROOT
BRANCH   1   2
ATOM      2  O   UNL     1       2.025   9.840  17.260  0.00  0.00    +0.000 OA
ATOM      3  H   UNL     1       2.297   9.254  16.531  0.00  0.00    +0.000 HD
ENDBRANCH   1   2
BRANCH   1   4
ATOM      4  C   UNL     1      -0.055   9.906  18.607  0.00  0.00    +0.000 C 
BRANCH   4   5
ATOM      5  S   UNL     1       0.327  11.580  19.266  0.00  0.00    +0.000 S 
BRANCH   5   9
ATOM      6  C   UNL     1      -2.507  12.104  22.948  0.00  0.00    +0.000 A 
ATOM      7  C   UNL     1      -2.819  12.701  21.722  0.00  0.00    +0.000 A 
ATOM      8  C   UNL     1      -1.976  12.560  20.607  0.00  0.00    +0.000 A 
ATOM      9  C   UNL     1      -0.791  11.815  20.684  0.00  0.00    +0.000 A 
ATOM     10  C   UNL     1      -0.466  11.224  21.939  0.00  0.00    +0.000 A 
ATOM     11  C   UNL     1      -1.331  11.382  23.047  0.00  0.00    +0.000 A 
BRANCH   6  13
ATOM     12  C   UNL     1      -4.624  12.989  23.582  0.00  0.00    +0.000 C 
ATOM     13  O   UNL     1      -3.424  12.316  23.943  0.00  0.00    +0.000 OA
ENDBRANCH   6  13
BRANCH  10  14
ATOM     14  O   UNL     1       0.708  10.509  22.006  0.00  0.00    +0.000 OA
ATOM     15  C   UNL     1       0.665   9.218  22.602  0.00  0.00    +0.000 C 
ENDBRANCH  10  14
ENDBRANCH   5   9
ENDBRANCH   4   5
ENDBRANCH   1   4
BRANCH   1  16
ATOM     16  C   UNL     1       2.064   8.435  19.258  0.00  0.00    +0.000 C 
BRANCH  16  17
ATOM     17  N   UNL     1       2.544   7.110  18.910  0.00  0.00    +0.000 N 
ATOM     18  C   UNL     1       3.589   6.910  18.040  0.00  0.00    +0.000 A 
ATOM     19  C   UNL     1       3.372   5.678  17.465  0.00  0.00    +0.000 A 
ATOM     20  C   UNL     1       2.615   4.954  18.406  0.00  0.00    +0.000 A 
ATOM     21  C   UNL     1       2.373   3.580  18.558  0.00  0.00    +0.000 A 
ATOM     22  C   UNL     1       1.812   3.124  19.749  0.00  0.00    +0.000 A 
ATOM     23  C   UNL     1       1.402   4.030  20.728  0.00  0.00    +0.000 A 
ATOM     24  C   UNL     1       1.514   5.428  20.542  0.00  0.00    +0.000 A 
ATOM     25  C   UNL     1       2.165   5.865  19.374  0.00  0.00    +0.000 A 
ENDBRANCH  16  17
ENDBRANCH   1  16
TORSDOF 8
ENDMDL
