MODEL 1
REMARK VINA RESULT:      -5.3      0.000      0.000
REMARK  Name = 
REMARK  1 active torsions:
REMARK  status: ('A' for Active; 'I' for Inactive)
REMARK    1  A    between atoms: N_1  and  C_2
REMARK                            x       y       z     vdW  Elec       q    Type
REMARK                         _______ _______ _______ _____ _____    ______ ____
ROOT
ATOM      1  C   UNL     1       4.010   2.439  19.624  0.00  0.00    +0.000 C 
ATOM      2  C   UNL     1       3.460   1.555  18.477  0.00  0.00    +0.000 C 
ATOM      3  N   UNL     1       2.335   2.227  17.805  0.00  0.00    +0.000 NA
ATOM      4  C   UNL     1       1.262   2.484  18.765  0.00  0.00    +0.000 C 
ATOM      5  N   UNL     1       1.717   3.361  19.843  0.00  0.00    +0.000 NA
ATOM      6  C   UNL     1       2.172   4.623  19.258  0.00  0.00    +0.000 C 
ATOM      7  N   UNL     1       3.257   4.399  18.303  0.00  0.00    +0.000 NA
ATOM      8  C   UNL     1       2.777   3.506  17.251  0.00  0.00    +0.000 C 
ATOM      9  C   UNL     1       4.412   3.794  18.993  0.00  0.00    +0.000 C 
ATOM     10  C   UNL     1       2.826   2.725  20.580  0.00  0.00    +0.000 C 
ENDROOT
BRANCH   1  11
ATOM     11  N   UNL     1       5.137   1.807  20.325  0.00  0.00    +0.000 NA
ATOM     12  H   UNL     1       4.878   1.625  21.295  0.00  0.00    +0.000 HD
ATOM     13  H   UNL     1       5.925   2.453  20.359  0.00  0.00    +0.000 HD
ENDBRANCH   1  11
TORSDOF 1
ENDMDL
MODEL 2
REMARK VINA RESULT:      -5.3      0.211      2.233
REMARK  Name = 
REMARK  1 active torsions:
REMARK  status: ('A' for Active; 'I' for Inactive)
REMARK    1  A    between atoms: N_1  and  C_2
REMARK                            x       y       z     vdW  Elec       q    Type
REMARK                         _______ _______ _______ _____ _____    ______ ____
ROOT
ATOM      1  C   UNL     1       3.886   2.498  19.521  0.00  0.00    +0.000 C 
ATOM      2  C   UNL     1       4.207   3.904  18.957  0.00  0.00    +0.000 C 
ATOM      3  N   UNL     1       3.007   4.497  18.342  0.00  0.00    +0.000 NA
ATOM      4  C   UNL     1       2.531   3.645  17.254  0.00  0.00    +0.000 C 
ATOM      5  N   UNL     1       2.163   2.318  17.745  0.00  0.00    +0.000 NA
ATOM      6  C   UNL     1       1.113   2.467  18.754  0.00  0.00    +0.000 C 
ATOM      7  N   UNL     1       1.566   3.305  19.864  0.00  0.00    +0.000 NA
ATOM      8  C   UNL     1       1.943   4.614  19.339  0.00  0.00    +0.000 C 
ATOM      9  C   UNL     1       2.722   2.672  20.526  0.00  0.00    +0.000 C 
ATOM     10  C   UNL     1       3.338   1.655  18.344  0.00  0.00    +0.000 C 
ENDROOT
BRANCH   1  11
ATOM     11  N   UNL     1       5.058   1.867  20.145  0.00  0.00    +0.000 NA
ATOM     12  H   UNL     1       5.829   1.839  19.477  0.00  0.00    +0.000 HD
ATOM     13  H   UNL     1       4.844   0.896  20.371  0.00  0.00    +0.000 HD
ENDBRANCH   1  11
TORSDOF 1
ENDMDL
MODEL 3
REMARK VINA RESULT:      -5.3      0.216      2.168
REMARK  Name = 
REMARK  1 active torsions:
REMARK  status: ('A' for Active; 'I' for Inactive)
REMARK    1  A    between atoms: N_1  and  C_2
REMARK                            x       y       z     vdW  Elec       q    Type
REMARK                         _______ _______ _______ _____ _____    ______ ____
ROOT
ATOM      1  C   UNL     1       3.880   2.497  19.524  0.00  0.00    +0.000 C 
ATOM      2  C   UNL     1       2.714   2.671  20.529  0.00  0.00    +0.000 C 
ATOM      3  N   UNL     1       1.558   3.301  19.869  0.00  0.00    +0.000 NA
ATOM      4  C   UNL     1       1.936   4.614  19.346  0.00  0.00    +0.000 C 
ATOM      5  N   UNL     1       3.001   4.497  18.350  0.00  0.00    +0.000 NA
ATOM      6  C   UNL     1       2.529   3.645  17.258  0.00  0.00    +0.000 C 
ATOM      7  N   UNL     1       2.156   2.319  17.750  0.00  0.00    +0.000 NA
ATOM      8  C   UNL     1       1.106   2.470  18.754  0.00  0.00    +0.000 C 
ATOM      9  C   UNL     1       3.333   1.658  18.344  0.00  0.00    +0.000 C 
ATOM     10  C   UNL     1       4.204   3.902  18.962  0.00  0.00    +0.000 C 
ENDROOT
BRANCH   1  11
ATOM     11  N   UNL     1       5.058   1.869  20.141  0.00  0.00    +0.000 NA
ATOM     12  H   UNL     1       5.496   1.234  19.473  0.00  0.00    +0.000 HD
ATOM     13  H   UNL     1       4.765   1.294  20.930  0.00  0.00    +0.000 HD
ENDBRANCH   1  11
TORSDOF 1
ENDMDL
MODEL 4
REMARK VINA RESULT:      -5.3      1.134      2.046
REMARK  Name = 
REMARK  1 active torsions:
REMARK  status: ('A' for Active; 'I' for Inactive)
REMARK    1  A    between atoms: N_1  and  C_2
REMARK                            x       y       z     vdW  Elec       q    Type
REMARK                         _______ _______ _______ _____ _____    ______ ____
ROOT
ATOM      1  C   UNL     1       3.831   3.304  19.223  0.00  0.00    +0.000 C 
ATOM      2  C   UNL     1       3.010   2.597  20.329  0.00  0.00    +0.000 C 
ATOM      3  N   UNL     1       1.569   2.806  20.112  0.00  0.00    +0.000 NA
ATOM      4  C   UNL     1       1.263   4.236  20.131  0.00  0.00    +0.000 C 
ATOM      5  N   UNL     1       1.975   4.942  19.067  0.00  0.00    +0.000 NA
ATOM      6  C   UNL     1       1.581   4.369  17.780  0.00  0.00    +0.000 C 
ATOM      7  N   UNL     1       1.888   2.939  17.725  0.00  0.00    +0.000 NA
ATOM      8  C   UNL     1       1.178   2.266  18.809  0.00  0.00    +0.000 C 
ATOM      9  C   UNL     1       3.342   2.736  17.868  0.00  0.00    +0.000 C 
ATOM     10  C   UNL     1       3.432   4.799  19.251  0.00  0.00    +0.000 C 
ENDROOT
BRANCH   1  11
ATOM     11  N   UNL     1       5.279   3.122  19.400  0.00  0.00    +0.000 NA
ATOM     12  H   UNL     1       5.557   2.211  19.033  0.00  0.00    +0.000 HD
ATOM     13  H   UNL     1       5.503   3.107  20.394  0.00  0.00    +0.000 HD
ENDBRANCH   1  11
TORSDOF 1
ENDMDL
MODEL 5
REMARK VINA RESULT:      -5.3      1.117      1.133
REMARK  Name = 
REMARK  1 active torsions:
REMARK  status: ('A' for Active; 'I' for Inactive)
REMARK    1  A    between atoms: N_1  and  C_2
REMARK                            x       y       z     vdW  Elec       q    Type
REMARK                         _______ _______ _______ _____ _____    ______ ____
ROOT
ATOM      1  C   UNL     1       3.788   3.209  19.243  0.00  0.00    +0.000 C 
ATOM      2  C   UNL     1       3.282   2.661  17.885  0.00  0.00    +0.000 C 
ATOM      3  N   UNL     1       1.845   2.939  17.723  0.00  0.00    +0.000 NA
ATOM      4  C   UNL     1       1.089   2.307  18.804  0.00  0.00    +0.000 C 
ATOM      5  N   UNL     1       1.494   2.832  20.107  0.00  0.00    +0.000 NA
ATOM      6  C   UNL     1       1.265   4.277  20.121  0.00  0.00    +0.000 C 
ATOM      7  N   UNL     1       2.021   4.939  19.058  0.00  0.00    +0.000 NA
ATOM      8  C   UNL     1       1.608   4.381  17.773  0.00  0.00    +0.000 C 
ATOM      9  C   UNL     1       3.465   4.723  19.264  0.00  0.00    +0.000 C 
ATOM     10  C   UNL     1       2.923   2.551  20.345  0.00  0.00    +0.000 C 
ENDROOT
BRANCH   1  11
ATOM     11  N   UNL     1       5.221   2.954  19.448  0.00  0.00    +0.000 NA
ATOM     12  H   UNL     1       5.686   2.864  18.544  0.00  0.00    +0.000 HD
ATOM     13  H   UNL     1       5.345   2.058  19.921  0.00  0.00    +0.000 HD
ENDBRANCH   1  11
TORSDOF 1
ENDMDL
MODEL 6
REMARK VINA RESULT:      -5.3      1.131      2.562
REMARK  Name = 
REMARK  1 active torsions:
REMARK  status: ('A' for Active; 'I' for Inactive)
REMARK    1  A    between atoms: N_1  and  C_2
REMARK                            x       y       z     vdW  Elec       q    Type
REMARK                         _______ _______ _______ _____ _____    ______ ____
ROOT
ATOM      1  C   UNL     1       3.855   3.320  19.210  0.00  0.00    +0.000 C 
ATOM      2  C   UNL     1       3.443   4.813  19.234  0.00  0.00    +0.000 C 
ATOM      3  N   UNL     1       1.987   4.947  19.056  0.00  0.00    +0.000 NA
ATOM      4  C   UNL     1       1.585   4.362  17.777  0.00  0.00    +0.000 C 
ATOM      5  N   UNL     1       1.905   2.936  17.726  0.00  0.00    +0.000 NA
ATOM      6  C   UNL     1       1.208   2.261  18.821  0.00  0.00    +0.000 C 
ATOM      7  N   UNL     1       1.602   2.816  20.117  0.00  0.00    +0.000 NA
ATOM      8  C   UNL     1       1.287   4.242  20.129  0.00  0.00    +0.000 C 
ATOM      9  C   UNL     1       3.048   2.614  20.327  0.00  0.00    +0.000 C 
ATOM     10  C   UNL     1       3.360   2.738  17.864  0.00  0.00    +0.000 C 
ENDROOT
BRANCH   1  11
ATOM     11  N   UNL     1       5.303   3.138  19.385  0.00  0.00    +0.000 NA
ATOM     12  H   UNL     1       5.785   4.017  19.193  0.00  0.00    +0.000 HD
ATOM     13  H   UNL     1       5.650   2.469  18.698  0.00  0.00    +0.000 HD
ENDBRANCH   1  11
TORSDOF 1
ENDMDL
MODEL 7
REMARK VINA RESULT:      -5.1      1.420      1.729
REMARK  Name = 
REMARK  1 active torsions:
REMARK  status: ('A' for Active; 'I' for Inactive)
REMARK    1  A    between atoms: N_1  and  C_2
REMARK                            x       y       z     vdW  Elec       q    Type
REMARK                         _______ _______ _______ _____ _____    ______ ____
ROOT
ATOM      1  C   UNL     1       4.570   3.774  18.780  0.00  0.00    +0.000 C 
ATOM      2  C   UNL     1       4.070   3.648  17.319  0.00  0.00    +0.000 C 
ATOM      3  N   UNL     1       2.609   3.466  17.291  0.00  0.00    +0.000 NA
ATOM      4  C   UNL     1       2.243   2.256  18.026  0.00  0.00    +0.000 C 
ATOM      5  N   UNL     1       2.647   2.348  19.428  0.00  0.00    +0.000 NA
ATOM      6  C   UNL     1       1.991   3.511  20.029  0.00  0.00    +0.000 C 
ATOM      7  N   UNL     1       2.351   4.740  19.322  0.00  0.00    +0.000 NA
ATOM      8  C   UNL     1       1.952   4.609  17.923  0.00  0.00    +0.000 C 
ATOM      9  C   UNL     1       3.806   4.961  19.415  0.00  0.00    +0.000 C 
ATOM     10  C   UNL     1       4.112   2.497  19.525  0.00  0.00    +0.000 C 
ENDROOT
BRANCH   1  11
ATOM     11  N   UNL     1       6.027   3.958  18.857  0.00  0.00    +0.000 NA
ATOM     12  H   UNL     1       6.245   4.955  18.874  0.00  0.00    +0.000 HD
ATOM     13  H   UNL     1       6.464   3.587  18.014  0.00  0.00    +0.000 HD
ENDBRANCH   1  11
TORSDOF 1
ENDMDL
MODEL 8
REMARK VINA RESULT:      -5.1      1.262      2.152
REMARK  Name = 
REMARK  1 active torsions:
REMARK  status: ('A' for Active; 'I' for Inactive)
REMARK    1  A    between atoms: N_1  and  C_2
REMARK                            x       y       z     vdW  Elec       q    Type
REMARK                         _______ _______ _______ _____ _____    ______ ____
ROOT
ATOM      1  C   UNL     1       2.378   3.191  20.444  0.00  0.00    +0.000 C 
ATOM      2  C   UNL     1       1.210   2.618  19.603  0.00  0.00    +0.000 C 
ATOM      3  N   UNL     1       1.455   2.835  18.168  0.00  0.00    +0.000 NA
ATOM      4  C   UNL     1       1.583   4.267  17.894  0.00  0.00    +0.000 C 
ATOM      5  N   UNL     1       2.709   4.845  18.625  0.00  0.00    +0.000 NA
ATOM      6  C   UNL     1       3.933   4.152  18.222  0.00  0.00    +0.000 C 
ATOM      7  N   UNL     1       3.841   2.718  18.497  0.00  0.00    +0.000 NA
ATOM      8  C   UNL     1       2.698   2.175  17.769  0.00  0.00    +0.000 C 
ATOM      9  C   UNL     1       3.670   2.499  19.946  0.00  0.00    +0.000 C 
ATOM     10  C   UNL     1       2.504   4.689  20.078  0.00  0.00    +0.000 C 
ENDROOT
BRANCH   1  11
ATOM     11  N   UNL     1       2.175   2.996  21.886  0.00  0.00    +0.000 NA
ATOM     12  H   UNL     1       1.473   2.271  22.039  0.00  0.00    +0.000 HD
ATOM     13  H   UNL     1       1.796   3.849  22.297  0.00  0.00    +0.000 HD
ENDBRANCH   1  11
TORSDOF 1
ENDMDL
MODEL 9
REMARK VINA RESULT:      -5.1      1.269      2.775
REMARK  Name = 
REMARK  1 active torsions:
REMARK  status: ('A' for Active; 'I' for Inactive)
REMARK    1  A    between atoms: N_1  and  C_2
REMARK                            x       y       z     vdW  Elec       q    Type
REMARK                         _______ _______ _______ _____ _____    ______ ____
ROOT
ATOM      1  C   UNL     1       2.358   3.254  20.443  0.00  0.00    +0.000 C 
ATOM      2  C   UNL     1       2.535   4.742  20.049  0.00  0.00    +0.000 C 
ATOM      3  N   UNL     1       2.755   4.866  18.598  0.00  0.00    +0.000 NA
ATOM      4  C   UNL     1       3.954   4.124  18.209  0.00  0.00    +0.000 C 
ATOM      5  N   UNL     1       3.814   2.701  18.512  0.00  0.00    +0.000 NA
ATOM      6  C   UNL     1       2.653   2.180  17.789  0.00  0.00    +0.000 C 
ATOM      7  N   UNL     1       1.434   2.895  18.169  0.00  0.00    +0.000 NA
ATOM      8  C   UNL     1       1.612   4.314  17.872  0.00  0.00    +0.000 C 
ATOM      9  C   UNL     1       1.174   2.707  19.609  0.00  0.00    +0.000 C 
ATOM     10  C   UNL     1       3.626   2.507  19.963  0.00  0.00    +0.000 C 
ENDROOT
BRANCH   1  11
ATOM     11  N   UNL     1       2.136   3.082  21.885  0.00  0.00    +0.000 NA
ATOM     12  H   UNL     1       1.282   2.543  22.038  0.00  0.00    +0.000 HD
ATOM     13  H   UNL     1       1.978   3.991  22.319  0.00  0.00    +0.000 HD
ENDBRANCH   1  11
TORSDOF 1
ENDMDL
