MODEL 1
REMARK VINA RESULT:      -6.7      0.000      0.000
REMARK  Name = 
REMARK  6 active torsions:
REMARK  status: ('A' for Active; 'I' for Inactive)
REMARK    1  A    between atoms: C_1  and  C_2
REMARK    2  A    between atoms: C_2  and  O_3
REMARK    3  A    between atoms: O_3  and  C_4
REMARK    4  A    between atoms: C_9  and  O_10
REMARK    5  A    between atoms: O_10  and  C_11
REMARK    6  A    between atoms: C_15  and  C_17
REMARK                            x       y       z     vdW  Elec       q    Type
REMARK                         _______ _______ _______ _____ _____    ______ ____
ROOT
ATOM      1  C   UNL     1       2.741   6.662  18.582  0.00  0.00    +0.000 C 
ATOM      2  C   UNL     1       2.499   6.350  20.057  0.00  0.00    +0.000 C 
ATOM      3  C   UNL     1       1.396   7.161  20.716  0.00  0.00    +0.000 C 
ATOM      4  N   UNL     1       1.422   8.581  20.388  0.00  0.00    +0.000 N 
ATOM      5  C   UNL     1       0.907   9.461  21.360  0.00  0.00    +0.000 C 
ATOM      6  O   UNL     1       0.809   9.103  22.535  0.00  0.00    +0.000 OA
ATOM      7  C   UNL     1       1.494   8.903  18.975  0.00  0.00    +0.000 C 
ATOM      8  C   UNL     1       2.572   8.140  18.214  0.00  0.00    +0.000 C 
ENDROOT
BRANCH   5   9
ATOM      9  C   UNL     1       0.523  10.836  21.011  0.00  0.00    +0.000 A 
ATOM     10  C   UNL     1      -0.796  11.169  20.504  0.00  0.00    +0.000 A 
ATOM     11  N   UNL     1      -1.023  12.452  20.221  0.00  0.00    +0.000 NA
ATOM     12  S   UNL     1       0.431  13.207  20.553  0.00  0.00    +0.000 S 
ATOM     13  N   UNL     1       1.340  11.904  21.060  0.00  0.00    +0.000 NA
ENDBRANCH   5   9
BRANCH   1  14
ATOM     14  O   UNL     1       1.921   5.819  17.756  0.00  0.00    +0.000 OA
BRANCH  14  20
ATOM     15  C   UNL     1       3.415   3.998  17.420  0.00  0.00    +0.000 A 
ATOM     16  C   UNL     1       3.779   2.667  17.654  0.00  0.00    +0.000 A 
ATOM     17  C   UNL     1       2.948   1.811  18.377  0.00  0.00    +0.000 A 
ATOM     18  C   UNL     1       1.720   2.266  18.834  0.00  0.00    +0.000 A 
ATOM     19  C   UNL     1       1.316   3.570  18.542  0.00  0.00    +0.000 A 
ATOM     20  C   UNL     1       2.176   4.467  17.878  0.00  0.00    +0.000 A 
BRANCH  15  21
ATOM     21  O   UNL     1       4.447   4.830  17.069  0.00  0.00    +0.000 OA
BRANCH  21  23
ATOM     22  C   UNL     1       5.944   5.214  18.887  0.00  0.00    +0.000 C 
ATOM     23  C   UNL     1       5.749   4.509  17.550  0.00  0.00    +0.000 C 
ENDBRANCH  21  23
ENDBRANCH  15  21
ENDBRANCH  14  20
ENDBRANCH   1  14
TORSDOF 5
ENDMDL
MODEL 2
REMARK VINA RESULT:      -6.7      2.274      3.196
REMARK  Name = 
REMARK  6 active torsions:
REMARK  status: ('A' for Active; 'I' for Inactive)
REMARK    1  A    between atoms: C_1  and  C_2
REMARK    2  A    between atoms: C_2  and  O_3
REMARK    3  A    between atoms: O_3  and  C_4
REMARK    4  A    between atoms: C_9  and  O_10
REMARK    5  A    between atoms: O_10  and  C_11
REMARK    6  A    between atoms: C_15  and  C_17
REMARK                            x       y       z     vdW  Elec       q    Type
REMARK                         _______ _______ _______ _____ _____    ______ ____
ROOT
ATOM      1  C   UNL     1       2.692   6.355  18.495  0.00  0.00    +0.000 C 
ATOM      2  C   UNL     1       2.298   7.415  17.471  0.00  0.00    +0.000 C 
ATOM      3  C   UNL     1       2.088   8.811  18.033  0.00  0.00    +0.000 C 
ATOM      4  N   UNL     1       1.325   8.845  19.275  0.00  0.00    +0.000 N 
ATOM      5  C   UNL     1       0.574  10.012  19.519  0.00  0.00    +0.000 C 
ATOM      6  O   UNL     1       0.275  10.765  18.591  0.00  0.00    +0.000 OA
ATOM      7  C   UNL     1       1.782   7.953  20.324  0.00  0.00    +0.000 C 
ATOM      8  C   UNL     1       2.025   6.521  19.864  0.00  0.00    +0.000 C 
ENDROOT
BRANCH   5   9
ATOM      9  C   UNL     1       0.088  10.332  20.868  0.00  0.00    +0.000 A 
ATOM     10  C   UNL     1       0.144  11.676  21.414  0.00  0.00    +0.000 A 
ATOM     11  N   UNL     1      -0.327  11.840  22.651  0.00  0.00    +0.000 NA
ATOM     12  S   UNL     1      -0.788  10.303  23.120  0.00  0.00    +0.000 S 
ATOM     13  N   UNL     1      -0.395   9.438  21.750  0.00  0.00    +0.000 NA
ENDBRANCH   5   9
BRANCH   1  14
ATOM     14  O   UNL     1       4.124   6.288  18.614  0.00  0.00    +0.000 OA
BRANCH  14  20
ATOM     15  C   UNL     1       5.814   6.347  16.941  0.00  0.00    +0.000 A 
ATOM     16  C   UNL     1       6.585   5.697  15.970  0.00  0.00    +0.000 A 
ATOM     17  C   UNL     1       6.352   4.360  15.645  0.00  0.00    +0.000 A 
ATOM     18  C   UNL     1       5.313   3.673  16.255  0.00  0.00    +0.000 A 
ATOM     19  C   UNL     1       4.492   4.334  17.169  0.00  0.00    +0.000 A 
ATOM     20  C   UNL     1       4.762   5.661  17.562  0.00  0.00    +0.000 A 
BRANCH  15  21
ATOM     21  O   UNL     1       6.371   7.489  17.457  0.00  0.00    +0.000 OA
BRANCH  21  23
ATOM     22  C   UNL     1       8.192   8.949  17.955  0.00  0.00    +0.000 C 
ATOM     23  C   UNL     1       7.786   7.518  17.624  0.00  0.00    +0.000 C 
ENDBRANCH  21  23
ENDBRANCH  15  21
ENDBRANCH  14  20
ENDBRANCH   1  14
TORSDOF 5
ENDMDL
MODEL 3
REMARK VINA RESULT:      -6.7      2.154      3.279
REMARK  Name = 
REMARK  6 active torsions:
REMARK  status: ('A' for Active; 'I' for Inactive)
REMARK    1  A    between atoms: C_1  and  C_2
REMARK    2  A    between atoms: C_2  and  O_3
REMARK    3  A    between atoms: O_3  and  C_4
REMARK    4  A    between atoms: C_9  and  O_10
REMARK    5  A    between atoms: O_10  and  C_11
REMARK    6  A    between atoms: C_15  and  C_17
REMARK                            x       y       z     vdW  Elec       q    Type
REMARK                         _______ _______ _______ _____ _____    ______ ____
ROOT
ATOM      1  C   UNL     1       2.882   5.754  18.433  0.00  0.00    +0.000 C 
ATOM      2  C   UNL     1       2.624   6.926  17.491  0.00  0.00    +0.000 C 
ATOM      3  C   UNL     1       2.513   8.283  18.163  0.00  0.00    +0.000 C 
ATOM      4  N   UNL     1       1.704   8.284  19.376  0.00  0.00    +0.000 N 
ATOM      5  C   UNL     1       1.047   9.489  19.692  0.00  0.00    +0.000 C 
ATOM      6  O   UNL     1       0.854  10.340  18.823  0.00  0.00    +0.000 OA
ATOM      7  C   UNL     1       2.036   7.271  20.359  0.00  0.00    +0.000 C 
ATOM      8  C   UNL     1       2.174   5.865  19.787  0.00  0.00    +0.000 C 
ENDROOT
BRANCH   5   9
ATOM      9  C   UNL     1       0.533   9.739  21.047  0.00  0.00    +0.000 A 
ATOM     10  C   UNL     1       1.264   9.348  22.238  0.00  0.00    +0.000 A 
ATOM     11  N   UNL     1       0.693   9.628  23.410  0.00  0.00    +0.000 NA
ATOM     12  S   UNL     1      -0.765  10.333  22.997  0.00  0.00    +0.000 S 
ATOM     13  N   UNL     1      -0.662  10.287  21.333  0.00  0.00    +0.000 NA
ENDBRANCH   5   9
BRANCH   1  14
ATOM     14  O   UNL     1       4.296   5.549  18.596  0.00  0.00    +0.000 OA
BRANCH  14  20
ATOM     15  C   UNL     1       6.020   6.031  17.029  0.00  0.00    +0.000 A 
ATOM     16  C   UNL     1       6.821   5.646  15.948  0.00  0.00    +0.000 A 
ATOM     17  C   UNL     1       6.617   4.426  15.302  0.00  0.00    +0.000 A 
ATOM     18  C   UNL     1       5.577   3.600  15.701  0.00  0.00    +0.000 A 
ATOM     19  C   UNL     1       4.727   4.010  16.728  0.00  0.00    +0.000 A 
ATOM     20  C   UNL     1       4.966   5.204  17.439  0.00  0.00    +0.000 A 
BRANCH  15  21
ATOM     21  O   UNL     1       6.546   7.019  17.820  0.00  0.00    +0.000 OA
BRANCH  21  23
ATOM     22  C   UNL     1       7.905   5.803  19.361  0.00  0.00    +0.000 C 
ATOM     23  C   UNL     1       7.891   6.863  18.266  0.00  0.00    +0.000 C 
ENDBRANCH  21  23
ENDBRANCH  15  21
ENDBRANCH  14  20
ENDBRANCH   1  14
TORSDOF 5
ENDMDL
MODEL 4
REMARK VINA RESULT:      -6.6      1.271      1.567
REMARK  Name = 
REMARK  6 active torsions:
REMARK  status: ('A' for Active; 'I' for Inactive)
REMARK    1  A    between atoms: C_1  and  C_2
REMARK    2  A    between atoms: C_2  and  O_3
REMARK    3  A    between atoms: O_3  and  C_4
REMARK    4  A    between atoms: C_9  and  O_10
REMARK    5  A    between atoms: O_10  and  C_11
REMARK    6  A    between atoms: C_15  and  C_17
REMARK                            x       y       z     vdW  Elec       q    Type
REMARK                         _______ _______ _______ _____ _____    ______ ____
ROOT
ATOM      1  C   UNL     1       2.641   6.770  18.564  0.00  0.00    +0.000 C 
ATOM      2  C   UNL     1       2.340   6.861  20.058  0.00  0.00    +0.000 C 
ATOM      3  C   UNL     1       1.293   7.891  20.445  0.00  0.00    +0.000 C 
ATOM      4  N   UNL     1       1.444   9.176  19.772  0.00  0.00    +0.000 N 
ATOM      5  C   UNL     1       0.980  10.308  20.470  0.00  0.00    +0.000 C 
ATOM      6  O   UNL     1       0.826  10.268  21.691  0.00  0.00    +0.000 OA
ATOM      7  C   UNL     1       1.575   9.123  18.328  0.00  0.00    +0.000 C 
ATOM      8  C   UNL     1       2.603   8.115  17.831  0.00  0.00    +0.000 C 
ENDROOT
BRANCH   5   9
ATOM      9  C   UNL     1       0.719  11.575  19.771  0.00  0.00    +0.000 A 
ATOM     10  C   UNL     1       1.726  12.613  19.645  0.00  0.00    +0.000 A 
ATOM     11  N   UNL     1       1.369  13.718  18.990  0.00  0.00    +0.000 NA
ATOM     12  S   UNL     1      -0.231  13.453  18.584  0.00  0.00    +0.000 S 
ATOM     13  N   UNL     1      -0.461  11.936  19.235  0.00  0.00    +0.000 NA
ENDBRANCH   5   9
BRANCH   1  14
ATOM     14  O   UNL     1       1.774   5.808  17.941  0.00  0.00    +0.000 OA
BRANCH  14  20
ATOM     15  C   UNL     1       3.234   3.985  17.486  0.00  0.00    +0.000 A 
ATOM     16  C   UNL     1       3.708   2.704  17.790  0.00  0.00    +0.000 A 
ATOM     17  C   UNL     1       3.116   1.939  18.796  0.00  0.00    +0.000 A 
ATOM     18  C   UNL     1       2.011   2.430  19.475  0.00  0.00    +0.000 A 
ATOM     19  C   UNL     1       1.485   3.675  19.128  0.00  0.00    +0.000 A 
ATOM     20  C   UNL     1       2.118   4.490  18.167  0.00  0.00    +0.000 A 
BRANCH  15  21
ATOM     21  O   UNL     1       4.110   4.780  16.793  0.00  0.00    +0.000 OA
BRANCH  21  23
ATOM     22  C   UNL     1       5.549   4.400  14.927  0.00  0.00    +0.000 C 
ATOM     23  C   UNL     1       5.368   4.217  16.429  0.00  0.00    +0.000 C 
ENDBRANCH  21  23
ENDBRANCH  15  21
ENDBRANCH  14  20
ENDBRANCH   1  14
TORSDOF 5
ENDMDL
MODEL 5
REMARK VINA RESULT:      -6.6      1.851      3.136
REMARK  Name = 
REMARK  6 active torsions:
REMARK  status: ('A' for Active; 'I' for Inactive)
REMARK    1  A    between atoms: C_1  and  C_2
REMARK    2  A    between atoms: C_2  and  O_3
REMARK    3  A    between atoms: O_3  and  C_4
REMARK    4  A    between atoms: C_9  and  O_10
REMARK    5  A    between atoms: O_10  and  C_11
REMARK    6  A    between atoms: C_15  and  C_17
REMARK                            x       y       z     vdW  Elec       q    Type
REMARK                         _______ _______ _______ _____ _____    ______ ____
ROOT
ATOM      1  C   UNL     1       2.517   6.032  19.175  0.00  0.00    +0.000 C 
ATOM      2  C   UNL     1       2.168   6.817  17.913  0.00  0.00    +0.000 C 
ATOM      3  C   UNL     1       2.057   8.321  18.098  0.00  0.00    +0.000 C 
ATOM      4  N   UNL     1       1.322   8.722  19.292  0.00  0.00    +0.000 N 
ATOM      5  C   UNL     1       0.650   9.958  19.230  0.00  0.00    +0.000 C 
ATOM      6  O   UNL     1       0.378  10.466  18.141  0.00  0.00    +0.000 OA
ATOM      7  C   UNL     1       1.744   8.101  20.534  0.00  0.00    +0.000 C 
ATOM      8  C   UNL     1       1.889   6.586  20.457  0.00  0.00    +0.000 C 
ENDROOT
BRANCH   5   9
ATOM      9  C   UNL     1       0.211  10.644  20.454  0.00  0.00    +0.000 A 
ATOM     10  C   UNL     1       0.757  11.926  20.863  0.00  0.00    +0.000 A 
ATOM     11  N   UNL     1       0.279  12.447  21.993  0.00  0.00    +0.000 NA
ATOM     12  S   UNL     1      -0.808  11.303  22.544  0.00  0.00    +0.000 S 
ATOM     13  N   UNL     1      -0.673  10.155  21.342  0.00  0.00    +0.000 NA
ENDBRANCH   5   9
BRANCH   1  14
ATOM     14  O   UNL     1       3.944   5.905  19.301  0.00  0.00    +0.000 OA
BRANCH  14  20
ATOM     15  C   UNL     1       4.550   4.162  17.801  0.00  0.00    +0.000 A 
ATOM     16  C   UNL     1       5.067   3.745  16.569  0.00  0.00    +0.000 A 
ATOM     17  C   UNL     1       5.583   4.666  15.657  0.00  0.00    +0.000 A 
ATOM     18  C   UNL     1       5.630   6.012  15.989  0.00  0.00    +0.000 A 
ATOM     19  C   UNL     1       5.186   6.428  17.245  0.00  0.00    +0.000 A 
ATOM     20  C   UNL     1       4.594   5.519  18.146  0.00  0.00    +0.000 A 
BRANCH  15  21
ATOM     21  O   UNL     1       3.727   3.258  18.422  0.00  0.00    +0.000 OA
BRANCH  21  23
ATOM     22  C   UNL     1       1.443   2.566  18.476  0.00  0.00    +0.000 C 
ATOM     23  C   UNL     1       2.712   2.638  17.636  0.00  0.00    +0.000 C 
ENDBRANCH  21  23
ENDBRANCH  15  21
ENDBRANCH  14  20
ENDBRANCH   1  14
TORSDOF 5
ENDMDL
MODEL 6
REMARK VINA RESULT:      -6.5      1.005      1.020
REMARK  Name = 
REMARK  6 active torsions:
REMARK  status: ('A' for Active; 'I' for Inactive)
REMARK    1  A    between atoms: C_1  and  C_2
REMARK    2  A    between atoms: C_2  and  O_3
REMARK    3  A    between atoms: O_3  and  C_4
REMARK    4  A    between atoms: C_9  and  O_10
REMARK    5  A    between atoms: O_10  and  C_11
REMARK    6  A    between atoms: C_15  and  C_17
REMARK                            x       y       z     vdW  Elec       q    Type
REMARK                         _______ _______ _______ _____ _____    ______ ____
ROOT
ATOM      1  C   UNL     1       2.634   6.690  18.671  0.00  0.00    +0.000 C 
ATOM      2  C   UNL     1       2.277   6.809  20.150  0.00  0.00    +0.000 C 
ATOM      3  C   UNL     1       1.258   7.884  20.484  0.00  0.00    +0.000 C 
ATOM      4  N   UNL     1       1.486   9.154  19.805  0.00  0.00    +0.000 N 
ATOM      5  C   UNL     1       1.040  10.312  20.473  0.00  0.00    +0.000 C 
ATOM      6  O   UNL     1       0.835  10.291  21.687  0.00  0.00    +0.000 OA
ATOM      7  C   UNL     1       1.672   9.079  18.368  0.00  0.00    +0.000 C 
ATOM      8  C   UNL     1       2.679   8.026  17.923  0.00  0.00    +0.000 C 
ENDROOT
BRANCH   5   9
ATOM      9  C   UNL     1       0.858  11.579  19.751  0.00  0.00    +0.000 A 
ATOM     10  C   UNL     1      -0.394  11.932  19.106  0.00  0.00    +0.000 A 
ATOM     11  N   UNL     1      -0.435  13.110  18.482  0.00  0.00    +0.000 NA
ATOM     12  S   UNL     1       1.106  13.730  18.676  0.00  0.00    +0.000 S 
ATOM     13  N   UNL     1       1.815  12.505  19.558  0.00  0.00    +0.000 NA
ENDBRANCH   5   9
BRANCH   1  14
ATOM     14  O   UNL     1       1.755   5.755  18.022  0.00  0.00    +0.000 OA
BRANCH  14  20
ATOM     15  C   UNL     1       3.235   3.966  17.504  0.00  0.00    +0.000 A 
ATOM     16  C   UNL     1       3.709   2.672  17.751  0.00  0.00    +0.000 A 
ATOM     17  C   UNL     1       3.100   1.852  18.700  0.00  0.00    +0.000 A 
ATOM     18  C   UNL     1       1.977   2.301  19.380  0.00  0.00    +0.000 A 
ATOM     19  C   UNL     1       1.452   3.560  19.087  0.00  0.00    +0.000 A 
ATOM     20  C   UNL     1       2.101   4.428  18.185  0.00  0.00    +0.000 A 
BRANCH  15  21
ATOM     21  O   UNL     1       4.122   4.801  16.874  0.00  0.00    +0.000 OA
BRANCH  21  23
ATOM     22  C   UNL     1       6.042   5.585  18.056  0.00  0.00    +0.000 C 
ATOM     23  C   UNL     1       5.513   4.554  17.066  0.00  0.00    +0.000 C 
ENDBRANCH  21  23
ENDBRANCH  15  21
ENDBRANCH  14  20
ENDBRANCH   1  14
TORSDOF 5
ENDMDL
MODEL 7
REMARK VINA RESULT:      -6.5      1.404      2.336
REMARK  Name = 
REMARK  6 active torsions:
REMARK  status: ('A' for Active; 'I' for Inactive)
REMARK    1  A    between atoms: C_1  and  C_2
REMARK    2  A    between atoms: C_2  and  O_3
REMARK    3  A    between atoms: O_3  and  C_4
REMARK    4  A    between atoms: C_9  and  O_10
REMARK    5  A    between atoms: O_10  and  C_11
REMARK    6  A    between atoms: C_15  and  C_17
REMARK                            x       y       z     vdW  Elec       q    Type
REMARK                         _______ _______ _______ _____ _____    ______ ____
ROOT
ATOM      1  C   UNL     1       2.757   6.915  18.628  0.00  0.00    +0.000 C 
ATOM      2  C   UNL     1       2.501   7.016  20.129  0.00  0.00    +0.000 C 
ATOM      3  C   UNL     1       1.336   7.906  20.527  0.00  0.00    +0.000 C 
ATOM      4  N   UNL     1       1.283   9.175  19.810  0.00  0.00    +0.000 N 
ATOM      5  C   UNL     1       0.692  10.257  20.491  0.00  0.00    +0.000 C 
ATOM      6  O   UNL     1       0.589  10.240  21.719  0.00  0.00    +0.000 OA
ATOM      7  C   UNL     1       1.368   9.088  18.364  0.00  0.00    +0.000 C 
ATOM      8  C   UNL     1       2.507   8.214  17.856  0.00  0.00    +0.000 C 
ENDROOT
BRANCH   5   9
ATOM      9  C   UNL     1       0.234  11.450  19.765  0.00  0.00    +0.000 A 
ATOM     10  C   UNL     1      -1.111  11.563  19.229  0.00  0.00    +0.000 A 
ATOM     11  N   UNL     1      -1.407  12.694  18.589  0.00  0.00    +0.000 NA
ATOM     12  S   UNL     1       0.014  13.573  18.631  0.00  0.00    +0.000 S 
ATOM     13  N   UNL     1       0.997  12.518  19.468  0.00  0.00    +0.000 NA
ENDBRANCH   5   9
BRANCH   1  14
ATOM     14  O   UNL     1       2.010   5.820  18.070  0.00  0.00    +0.000 OA
BRANCH  14  20
ATOM     15  C   UNL     1       2.238   3.576  18.824  0.00  0.00    +0.000 A 
ATOM     16  C   UNL     1       2.806   2.303  18.694  0.00  0.00    +0.000 A 
ATOM     17  C   UNL     1       3.787   2.048  17.736  0.00  0.00    +0.000 A 
ATOM     18  C   UNL     1       4.246   3.079  16.928  0.00  0.00    +0.000 A 
ATOM     19  C   UNL     1       3.739   4.367  17.101  0.00  0.00    +0.000 A 
ATOM     20  C   UNL     1       2.695   4.623  18.013  0.00  0.00    +0.000 A 
BRANCH  15  21
ATOM     21  O   UNL     1       1.040   3.613  19.490  0.00  0.00    +0.000 OA
BRANCH  21  23
ATOM     22  C   UNL     1       2.072   3.665  21.642  0.00  0.00    +0.000 C 
ATOM     23  C   UNL     1       0.986   3.023  20.787  0.00  0.00    +0.000 C 
ENDBRANCH  21  23
ENDBRANCH  15  21
ENDBRANCH  14  20
ENDBRANCH   1  14
TORSDOF 5
ENDMDL
MODEL 8
REMARK VINA RESULT:      -6.5      5.118      7.928
REMARK  Name = 
REMARK  6 active torsions:
REMARK  status: ('A' for Active; 'I' for Inactive)
REMARK    1  A    between atoms: C_1  and  C_2
REMARK    2  A    between atoms: C_2  and  O_3
REMARK    3  A    between atoms: O_3  and  C_4
REMARK    4  A    between atoms: C_9  and  O_10
REMARK    5  A    between atoms: O_10  and  C_11
REMARK    6  A    between atoms: C_15  and  C_17
REMARK                            x       y       z     vdW  Elec       q    Type
REMARK                         _______ _______ _______ _____ _____    ______ ____
ROOT
ATOM      1  C   UNL     1       5.714   4.496  18.804  0.00  0.00    +0.000 C 
ATOM      2  C   UNL     1       6.959   5.254  18.351  0.00  0.00    +0.000 C 
ATOM      3  C   UNL     1       6.940   5.723  16.906  0.00  0.00    +0.000 C 
ATOM      4  N   UNL     1       6.453   4.725  15.961  0.00  0.00    +0.000 N 
ATOM      5  C   UNL     1       6.960   4.803  14.649  0.00  0.00    +0.000 C 
ATOM      6  O   UNL     1       8.009   5.405  14.421  0.00  0.00    +0.000 OA
ATOM      7  C   UNL     1       5.186   4.102  16.295  0.00  0.00    +0.000 C 
ATOM      8  C   UNL     1       5.098   3.595  17.729  0.00  0.00    +0.000 C 
ENDROOT
BRANCH   5   9
ATOM      9  C   UNL     1       6.281   4.128  13.534  0.00  0.00    +0.000 A 
ATOM     10  C   UNL     1       7.011   3.495  12.450  0.00  0.00    +0.000 A 
ATOM     11  N   UNL     1       6.283   2.916  11.495  0.00  0.00    +0.000 NA
ATOM     12  S   UNL     1       4.702   3.214  11.949  0.00  0.00    +0.000 S 
ATOM     13  N   UNL     1       4.948   4.070  13.359  0.00  0.00    +0.000 NA
ENDBRANCH   5   9
BRANCH   1  14
ATOM     14  O   UNL     1       4.743   5.412  19.340  0.00  0.00    +0.000 OA
BRANCH  14  20
ATOM     15  C   UNL     1       2.373   5.411  19.543  0.00  0.00    +0.000 A 
ATOM     16  C   UNL     1       1.186   4.767  19.909  0.00  0.00    +0.000 A 
ATOM     17  C   UNL     1       1.209   3.517  20.530  0.00  0.00    +0.000 A 
ATOM     18  C   UNL     1       2.424   2.920  20.833  0.00  0.00    +0.000 A 
ATOM     19  C   UNL     1       3.613   3.589  20.540  0.00  0.00    +0.000 A 
ATOM     20  C   UNL     1       3.605   4.817  19.846  0.00  0.00    +0.000 A 
BRANCH  15  21
ATOM     21  O   UNL     1       2.232   6.404  18.608  0.00  0.00    +0.000 OA
BRANCH  21  23
ATOM     22  C   UNL     1       1.881   8.651  17.880  0.00  0.00    +0.000 C 
ATOM     23  C   UNL     1       2.161   7.749  19.077  0.00  0.00    +0.000 C 
ENDBRANCH  21  23
ENDBRANCH  15  21
ENDBRANCH  14  20
ENDBRANCH   1  14
TORSDOF 5
ENDMDL
MODEL 9
REMARK VINA RESULT:      -6.5      1.309      2.436
REMARK  Name = 
REMARK  6 active torsions:
REMARK  status: ('A' for Active; 'I' for Inactive)
REMARK    1  A    between atoms: C_1  and  C_2
REMARK    2  A    between atoms: C_2  and  O_3
REMARK    3  A    between atoms: O_3  and  C_4
REMARK    4  A    between atoms: C_9  and  O_10
REMARK    5  A    between atoms: O_10  and  C_11
REMARK    6  A    between atoms: C_15  and  C_17
REMARK                            x       y       z     vdW  Elec       q    Type
REMARK                         _______ _______ _______ _____ _____    ______ ____
ROOT
ATOM      1  C   UNL     1       2.614   7.407  18.948  0.00  0.00    +0.000 C 
ATOM      2  C   UNL     1       2.229   7.284  20.420  0.00  0.00    +0.000 C 
ATOM      3  C   UNL     1       0.956   8.010  20.817  0.00  0.00    +0.000 C 
ATOM      4  N   UNL     1       0.839   9.354  20.265  0.00  0.00    +0.000 N 
ATOM      5  C   UNL     1       0.094  10.281  21.020  0.00  0.00    +0.000 C 
ATOM      6  O   UNL     1      -0.105  10.090  22.220  0.00  0.00    +0.000 OA
ATOM      7  C   UNL     1       1.048   9.471  18.834  0.00  0.00    +0.000 C 
ATOM      8  C   UNL     1       2.303   8.772  18.326  0.00  0.00    +0.000 C 
ENDROOT
BRANCH   5   9
ATOM      9  C   UNL     1      -0.417  11.518  20.411  0.00  0.00    +0.000 A 
ATOM     10  C   UNL     1      -1.712  11.583  19.757  0.00  0.00    +0.000 A 
ATOM     11  N   UNL     1      -2.064  12.761  19.242  0.00  0.00    +0.000 NA
ATOM     12  S   UNL     1      -0.751  13.750  19.547  0.00  0.00    +0.000 S 
ATOM     13  N   UNL     1       0.255  12.681  20.337  0.00  0.00    +0.000 NA
ENDBRANCH   5   9
BRANCH   1  14
ATOM     14  O   UNL     1       2.023   6.338  18.189  0.00  0.00    +0.000 OA
BRANCH  14  20
ATOM     15  C   UNL     1       2.450   4.034  17.780  0.00  0.00    +0.000 A 
ATOM     16  C   UNL     1       3.259   3.026  17.242  0.00  0.00    +0.000 A 
ATOM     17  C   UNL     1       4.494   3.326  16.666  0.00  0.00    +0.000 A 
ATOM     18  C   UNL     1       4.955   4.634  16.666  0.00  0.00    +0.000 A 
ATOM     19  C   UNL     1       4.190   5.634  17.267  0.00  0.00    +0.000 A 
ATOM     20  C   UNL     1       2.908   5.359  17.785  0.00  0.00    +0.000 A 
BRANCH  15  21
ATOM     21  O   UNL     1       1.131   3.698  17.942  0.00  0.00    +0.000 OA
BRANCH  21  23
ATOM     22  C   UNL     1       1.036   3.356  20.303  0.00  0.00    +0.000 C 
ATOM     23  C   UNL     1       0.814   2.724  18.934  0.00  0.00    +0.000 C 
ENDBRANCH  21  23
ENDBRANCH  15  21
ENDBRANCH  14  20
ENDBRANCH   1  14
TORSDOF 5
ENDMDL
