MODEL 1
REMARK VINA RESULT:      -7.2      0.000      0.000
REMARK  Name = 
REMARK  10 active torsions:
REMARK  status: ('A' for Active; 'I' for Inactive)
REMARK    1  A    between atoms: C_1  and  C_2
REMARK    2  A    between atoms: C_5  and  N_6
REMARK    3  A    between atoms: C_7  and  C_9
REMARK    4  A    between atoms: C_9  and  O_10
REMARK    5  A    between atoms: O_10  and  C_11
REMARK    6  A    between atoms: C_11  and  C_13
REMARK    7  A    between atoms: C_13  and  C_14
REMARK    8  A    between atoms: C_14  and  C_15
REMARK    9  A    between atoms: C_15  and  C_17
REMARK   10  A    between atoms: C_23  and  C_24
REMARK                            x       y       z     vdW  Elec       q    Type
REMARK                         _______ _______ _______ _____ _____    ______ ____
ROOT
ATOM      1  C   UNL     1       2.495   3.180  21.059  0.00  0.00    +0.000 C 
ENDROOT
BRANCH   1   3
ATOM      2  N   UNL     1       2.492   5.570  20.534  0.00  0.00    +0.000 N 
ATOM      3  C   UNL     1       1.731   4.411  20.559  0.00  0.00    +0.000 C 
ATOM      4  O   UNL     1       0.550   4.307  20.236  0.00  0.00    +0.000 OA
ATOM      5  H   UNL     1       3.445   5.495  20.890  0.00  0.00    +0.000 HD
BRANCH   2  10
ATOM      6  C   UNL     1       0.877  10.764  18.698  0.00  0.00    +0.000 C 
ATOM      7  C   UNL     1       1.289   9.409  19.200  0.00  0.00    +0.000 A 
ATOM      8  C   UNL     1       2.006   8.561  18.351  0.00  0.00    +0.000 A 
ATOM      9  C   UNL     1       2.409   7.293  18.772  0.00  0.00    +0.000 A 
ATOM     10  C   UNL     1       2.104   6.837  20.050  0.00  0.00    +0.000 A 
ATOM     11  C   UNL     1       1.384   7.682  20.910  0.00  0.00    +0.000 A 
ATOM     12  C   UNL     1       0.971   8.966  20.500  0.00  0.00    +0.000 A 
ATOM     13  C   UNL     1       0.195   9.842  21.446  0.00  0.00    +0.000 C 
ENDBRANCH   2  10
ENDBRANCH   1   3
BRANCH   1  14
ATOM     14  O   UNL     1       3.081   2.407  20.011  0.00  0.00    +0.000 OA
BRANCH  14  15
ATOM     15  C   UNL     1       4.436   2.416  19.972  0.00  0.00    +0.000 C 
ATOM     16  O   UNL     1       5.160   1.652  20.599  0.00  0.00    +0.000 OA
BRANCH  15  17
ATOM     17  C   UNL     1       4.934   3.570  19.142  0.00  0.00    +0.000 C 
BRANCH  17  18
ATOM     18  C   UNL     1       4.331   3.531  17.744  0.00  0.00    +0.000 C 
BRANCH  18  19
ATOM     19  C   UNL     1       5.264   4.133  16.698  0.00  0.00    +0.000 C 
ATOM     20  O   UNL     1       5.339   3.632  15.576  0.00  0.00    +0.000 OA
BRANCH  19  21
ATOM     21  C   UNL     1       6.017   5.314  17.112  0.00  0.00    +0.000 A 
ATOM     22  C   UNL     1       5.695   6.654  16.991  0.00  0.00    +0.000 A 
ATOM     23  C   UNL     1       6.715   7.510  17.502  0.00  0.00    +0.000 A 
ATOM     24  C   UNL     1       7.779   6.798  18.005  0.00  0.00    +0.000 A 
ATOM     25  S   UNL     1       7.545   5.113  17.865  0.00  0.00    +0.000 S 
ENDBRANCH  19  21
ENDBRANCH  18  19
ENDBRANCH  17  18
ENDBRANCH  15  17
ENDBRANCH  14  15
ENDBRANCH   1  14
TORSDOF 8
ENDMDL
MODEL 2
REMARK VINA RESULT:      -7.2      2.590      4.549
REMARK  Name = 
REMARK  10 active torsions:
REMARK  status: ('A' for Active; 'I' for Inactive)
REMARK    1  A    between atoms: C_1  and  C_2
REMARK    2  A    between atoms: C_5  and  N_6
REMARK    3  A    between atoms: C_7  and  C_9
REMARK    4  A    between atoms: C_9  and  O_10
REMARK    5  A    between atoms: O_10  and  C_11
REMARK    6  A    between atoms: C_11  and  C_13
REMARK    7  A    between atoms: C_13  and  C_14
REMARK    8  A    between atoms: C_14  and  C_15
REMARK    9  A    between atoms: C_15  and  C_17
REMARK   10  A    between atoms: C_23  and  C_24
REMARK                            x       y       z     vdW  Elec       q    Type
REMARK                         _______ _______ _______ _____ _____    ______ ____
ROOT
ATOM      1  C   UNL     1       3.752   7.008  17.623  0.00  0.00    +0.000 C 
ENDROOT
BRANCH   1   3
ATOM      2  N   UNL     1       2.191   8.886  17.767  0.00  0.00    +0.000 N 
ATOM      3  C   UNL     1       2.627   7.722  18.380  0.00  0.00    +0.000 C 
ATOM      4  O   UNL     1       2.206   7.250  19.434  0.00  0.00    +0.000 OA
ATOM      5  H   UNL     1       2.687   9.167  16.921  0.00  0.00    +0.000 HD
BRANCH   2  10
ATOM      6  C   UNL     1      -2.248  12.167  19.349  0.00  0.00    +0.000 C 
ATOM      7  C   UNL     1      -1.101  11.295  18.921  0.00  0.00    +0.000 A 
ATOM      8  C   UNL     1       0.179  11.569  19.412  0.00  0.00    +0.000 A 
ATOM      9  C   UNL     1       1.274  10.788  19.041  0.00  0.00    +0.000 A 
ATOM     10  C   UNL     1       1.122   9.715  18.169  0.00  0.00    +0.000 A 
ATOM     11  C   UNL     1      -0.159   9.432  17.671  0.00  0.00    +0.000 A 
ATOM     12  C   UNL     1      -1.277  10.210  18.037  0.00  0.00    +0.000 A 
ATOM     13  C   UNL     1      -2.636   9.882  17.479  0.00  0.00    +0.000 C 
ENDBRANCH   2  10
ENDBRANCH   1   3
BRANCH   1  14
ATOM     14  O   UNL     1       4.538   6.146  18.446  0.00  0.00    +0.000 OA
BRANCH  14  15
ATOM     15  C   UNL     1       5.076   5.073  17.815  0.00  0.00    +0.000 C 
ATOM     16  O   UNL     1       6.196   4.624  18.028  0.00  0.00    +0.000 OA
BRANCH  15  17
ATOM     17  C   UNL     1       4.152   4.578  16.733  0.00  0.00    +0.000 C 
BRANCH  17  18
ATOM     18  C   UNL     1       3.408   3.329  17.187  0.00  0.00    +0.000 C 
BRANCH  18  19
ATOM     19  C   UNL     1       2.098   3.666  17.894  0.00  0.00    +0.000 C 
ATOM     20  O   UNL     1       1.178   4.193  17.269  0.00  0.00    +0.000 OA
BRANCH  19  21
ATOM     21  C   UNL     1       2.022   3.310  19.308  0.00  0.00    +0.000 A 
ATOM     22  C   UNL     1       0.955   3.398  20.184  0.00  0.00    +0.000 A 
ATOM     23  C   UNL     1       1.293   2.971  21.503  0.00  0.00    +0.000 A 
ATOM     24  C   UNL     1       2.603   2.561  21.590  0.00  0.00    +0.000 A 
ATOM     25  S   UNL     1       3.415   2.689  20.093  0.00  0.00    +0.000 S 
ENDBRANCH  19  21
ENDBRANCH  18  19
ENDBRANCH  17  18
ENDBRANCH  15  17
ENDBRANCH  14  15
ENDBRANCH   1  14
TORSDOF 8
ENDMDL
MODEL 3
REMARK VINA RESULT:      -7.1      2.479      3.132
REMARK  Name = 
REMARK  10 active torsions:
REMARK  status: ('A' for Active; 'I' for Inactive)
REMARK    1  A    between atoms: C_1  and  C_2
REMARK    2  A    between atoms: C_5  and  N_6
REMARK    3  A    between atoms: C_7  and  C_9
REMARK    4  A    between atoms: C_9  and  O_10
REMARK    5  A    between atoms: O_10  and  C_11
REMARK    6  A    between atoms: C_11  and  C_13
REMARK    7  A    between atoms: C_13  and  C_14
REMARK    8  A    between atoms: C_14  and  C_15
REMARK    9  A    between atoms: C_15  and  C_17
REMARK   10  A    between atoms: C_23  and  C_24
REMARK                            x       y       z     vdW  Elec       q    Type
REMARK                         _______ _______ _______ _____ _____    ______ ____
ROOT
ATOM      1  C   UNL     1       3.985   4.221  19.573  0.00  0.00    +0.000 C 
ENDROOT
BRANCH   1   3
ATOM      2  N   UNL     1       2.906   6.375  19.999  0.00  0.00    +0.000 N 
ATOM      3  C   UNL     1       2.888   5.230  19.218  0.00  0.00    +0.000 C 
ATOM      4  O   UNL     1       2.094   4.975  18.315  0.00  0.00    +0.000 OA
ATOM      5  H   UNL     1       3.600   6.404  20.746  0.00  0.00    +0.000 HD
BRANCH   2  10
ATOM      6  C   UNL     1      -0.454  11.013  19.588  0.00  0.00    +0.000 C 
ATOM      7  C   UNL     1       0.417   9.796  19.718  0.00  0.00    +0.000 A 
ATOM      8  C   UNL     1       1.201   9.403  18.629  0.00  0.00    +0.000 A 
ATOM      9  C   UNL     1       2.024   8.279  18.702  0.00  0.00    +0.000 A 
ATOM     10  C   UNL     1       2.085   7.515  19.863  0.00  0.00    +0.000 A 
ATOM     11  C   UNL     1       1.302   7.902  20.962  0.00  0.00    +0.000 A 
ATOM     12  C   UNL     1       0.466   9.035  20.905  0.00  0.00    +0.000 A 
ATOM     13  C   UNL     1      -0.365   9.417  22.100  0.00  0.00    +0.000 C 
ENDBRANCH   2  10
ENDBRANCH   1   3
BRANCH   1  14
ATOM     14  O   UNL     1       5.079   4.218  18.655  0.00  0.00    +0.000 OA
BRANCH  14  15
ATOM     15  C   UNL     1       5.968   5.229  18.811  0.00  0.00    +0.000 C 
ATOM     16  O   UNL     1       6.755   5.333  19.746  0.00  0.00    +0.000 OA
BRANCH  15  17
ATOM     17  C   UNL     1       5.781   6.270  17.739  0.00  0.00    +0.000 C 
BRANCH  17  18
ATOM     18  C   UNL     1       5.479   5.616  16.397  0.00  0.00    +0.000 C 
BRANCH  18  19
ATOM     19  C   UNL     1       6.706   5.571  15.491  0.00  0.00    +0.000 C 
ATOM     20  O   UNL     1       7.741   6.149  15.825  0.00  0.00    +0.000 OA
BRANCH  19  21
ATOM     21  C   UNL     1       6.566   4.805  14.256  0.00  0.00    +0.000 A 
ATOM     22  C   UNL     1       5.612   3.868  13.901  0.00  0.00    +0.000 A 
ATOM     23  C   UNL     1       5.838   3.321  12.604  0.00  0.00    +0.000 A 
ATOM     24  C   UNL     1       6.950   3.863  12.004  0.00  0.00    +0.000 A 
ATOM     25  S   UNL     1       7.712   5.024  12.998  0.00  0.00    +0.000 S 
ENDBRANCH  19  21
ENDBRANCH  18  19
ENDBRANCH  17  18
ENDBRANCH  15  17
ENDBRANCH  14  15
ENDBRANCH   1  14
TORSDOF 8
ENDMDL
MODEL 4
REMARK VINA RESULT:      -7.1      4.771      7.386
REMARK  Name = 
REMARK  10 active torsions:
REMARK  status: ('A' for Active; 'I' for Inactive)
REMARK    1  A    between atoms: C_1  and  C_2
REMARK    2  A    between atoms: C_5  and  N_6
REMARK    3  A    between atoms: C_7  and  C_9
REMARK    4  A    between atoms: C_9  and  O_10
REMARK    5  A    between atoms: O_10  and  C_11
REMARK    6  A    between atoms: C_11  and  C_13
REMARK    7  A    between atoms: C_13  and  C_14
REMARK    8  A    between atoms: C_14  and  C_15
REMARK    9  A    between atoms: C_15  and  C_17
REMARK   10  A    between atoms: C_23  and  C_24
REMARK                            x       y       z     vdW  Elec       q    Type
REMARK                         _______ _______ _______ _____ _____    ______ ____
ROOT
ATOM      1  C   UNL     1       7.976   7.321  18.004  0.00  0.00    +0.000 C 
ENDROOT
BRANCH   1   3
ATOM      2  N   UNL     1       9.072   9.207  19.113  0.00  0.00    +0.000 N 
ATOM      3  C   UNL     1       8.185   8.835  18.114  0.00  0.00    +0.000 C 
ATOM      4  O   UNL     1       7.581   9.591  17.356  0.00  0.00    +0.000 OA
ATOM      5  H   UNL     1       9.445   8.453  19.691  0.00  0.00    +0.000 HD
BRANCH   2  10
ATOM      6  C   UNL     1      10.916  14.479  20.443  0.00  0.00    +0.000 C 
ATOM      7  C   UNL     1      10.423  13.097  20.117  0.00  0.00    +0.000 A 
ATOM      8  C   UNL     1      10.712  12.553  18.862  0.00  0.00    +0.000 A 
ATOM      9  C   UNL     1      10.273  11.275  18.513  0.00  0.00    +0.000 A 
ATOM     10  C   UNL     1       9.533  10.508  19.406  0.00  0.00    +0.000 A 
ATOM     11  C   UNL     1       9.238  11.045  20.669  0.00  0.00    +0.000 A 
ATOM     12  C   UNL     1       9.674  12.334  21.038  0.00  0.00    +0.000 A 
ATOM     13  C   UNL     1       9.334  12.882  22.397  0.00  0.00    +0.000 C 
ENDBRANCH   2  10
ENDBRANCH   1   3
BRANCH   1  14
ATOM     14  O   UNL     1       7.546   6.896  16.710  0.00  0.00    +0.000 OA
BRANCH  14  15
ATOM     15  C   UNL     1       7.052   5.635  16.649  0.00  0.00    +0.000 C 
ATOM     16  O   UNL     1       7.728   4.614  16.712  0.00  0.00    +0.000 OA
BRANCH  15  17
ATOM     17  C   UNL     1       5.571   5.659  16.379  0.00  0.00    +0.000 C 
BRANCH  17  18
ATOM     18  C   UNL     1       4.807   4.945  17.487  0.00  0.00    +0.000 C 
BRANCH  18  19
ATOM     19  C   UNL     1       3.626   5.768  17.994  0.00  0.00    +0.000 C 
ATOM     20  O   UNL     1       3.508   6.948  17.660  0.00  0.00    +0.000 OA
BRANCH  19  21
ATOM     21  C   UNL     1       2.677   5.068  18.855  0.00  0.00    +0.000 A 
ATOM     22  C   UNL     1       2.483   5.169  20.221  0.00  0.00    +0.000 A 
ATOM     23  C   UNL     1       1.466   4.290  20.696  0.00  0.00    +0.000 A 
ATOM     24  C   UNL     1       0.908   3.553  19.678  0.00  0.00    +0.000 A 
ATOM     25  S   UNL     1       1.604   3.922  18.164  0.00  0.00    +0.000 S 
ENDBRANCH  19  21
ENDBRANCH  18  19
ENDBRANCH  17  18
ENDBRANCH  15  17
ENDBRANCH  14  15
ENDBRANCH   1  14
TORSDOF 8
ENDMDL
MODEL 5
REMARK VINA RESULT:      -7.0      1.635      1.976
REMARK  Name = 
REMARK  10 active torsions:
REMARK  status: ('A' for Active; 'I' for Inactive)
REMARK    1  A    between atoms: C_1  and  C_2
REMARK    2  A    between atoms: C_5  and  N_6
REMARK    3  A    between atoms: C_7  and  C_9
REMARK    4  A    between atoms: C_9  and  O_10
REMARK    5  A    between atoms: O_10  and  C_11
REMARK    6  A    between atoms: C_11  and  C_13
REMARK    7  A    between atoms: C_13  and  C_14
REMARK    8  A    between atoms: C_14  and  C_15
REMARK    9  A    between atoms: C_15  and  C_17
REMARK   10  A    between atoms: C_23  and  C_24
REMARK                            x       y       z     vdW  Elec       q    Type
REMARK                         _______ _______ _______ _____ _____    ______ ____
ROOT
ATOM      1  C   UNL     1       2.047   3.221  21.631  0.00  0.00    +0.000 C 
ENDROOT
BRANCH   1   3
ATOM      2  N   UNL     1       2.189   5.571  20.965  0.00  0.00    +0.000 N 
ATOM      3  C   UNL     1       1.480   4.389  20.817  0.00  0.00    +0.000 C 
ATOM      4  O   UNL     1       0.478   4.220  20.125  0.00  0.00    +0.000 OA
ATOM      5  H   UNL     1       2.967   5.554  21.625  0.00  0.00    +0.000 HD
BRANCH   2  10
ATOM      6  C   UNL     1       1.253  10.589  18.337  0.00  0.00    +0.000 C 
ATOM      7  C   UNL     1       1.486   9.284  19.045  0.00  0.00    +0.000 A 
ATOM      8  C   UNL     1       2.181   8.268  18.382  0.00  0.00    +0.000 A 
ATOM      9  C   UNL     1       2.420   7.039  18.997  0.00  0.00    +0.000 A 
ATOM     10  C   UNL     1       1.969   6.790  20.289  0.00  0.00    +0.000 A 
ATOM     11  C   UNL     1       1.271   7.804  20.963  0.00  0.00    +0.000 A 
ATOM     12  C   UNL     1       1.022   9.052  20.356  0.00  0.00    +0.000 A 
ATOM     13  C   UNL     1       0.264  10.114  21.106  0.00  0.00    +0.000 C 
ENDBRANCH   2  10
ENDBRANCH   1   3
BRANCH   1  14
ATOM     14  O   UNL     1       3.297   2.735  21.140  0.00  0.00    +0.000 OA
BRANCH  14  15
ATOM     15  C   UNL     1       3.296   2.340  19.844  0.00  0.00    +0.000 C 
ATOM     16  O   UNL     1       2.404   1.691  19.310  0.00  0.00    +0.000 OA
BRANCH  15  17
ATOM     17  C   UNL     1       4.596   2.709  19.177  0.00  0.00    +0.000 C 
BRANCH  17  18
ATOM     18  C   UNL     1       4.801   4.218  19.189  0.00  0.00    +0.000 C 
BRANCH  18  19
ATOM     19  C   UNL     1       6.146   4.619  18.589  0.00  0.00    +0.000 C 
ATOM     20  O   UNL     1       7.092   4.896  19.326  0.00  0.00    +0.000 OA
BRANCH  19  21
ATOM     21  C   UNL     1       6.221   4.629  17.131  0.00  0.00    +0.000 A 
ATOM     22  C   UNL     1       7.328   4.692  16.304  0.00  0.00    +0.000 A 
ATOM     23  C   UNL     1       6.979   4.706  14.921  0.00  0.00    +0.000 A 
ATOM     24  C   UNL     1       5.618   4.643  14.735  0.00  0.00    +0.000 A 
ATOM     25  S   UNL     1       4.772   4.566  16.216  0.00  0.00    +0.000 S 
ENDBRANCH  19  21
ENDBRANCH  18  19
ENDBRANCH  17  18
ENDBRANCH  15  17
ENDBRANCH  14  15
ENDBRANCH   1  14
TORSDOF 8
ENDMDL
MODEL 6
REMARK VINA RESULT:      -7.0      4.277      7.513
REMARK  Name = 
REMARK  10 active torsions:
REMARK  status: ('A' for Active; 'I' for Inactive)
REMARK    1  A    between atoms: C_1  and  C_2
REMARK    2  A    between atoms: C_5  and  N_6
REMARK    3  A    between atoms: C_7  and  C_9
REMARK    4  A    between atoms: C_9  and  O_10
REMARK    5  A    between atoms: O_10  and  C_11
REMARK    6  A    between atoms: C_11  and  C_13
REMARK    7  A    between atoms: C_13  and  C_14
REMARK    8  A    between atoms: C_14  and  C_15
REMARK    9  A    between atoms: C_15  and  C_17
REMARK   10  A    between atoms: C_23  and  C_24
REMARK                            x       y       z     vdW  Elec       q    Type
REMARK                         _______ _______ _______ _____ _____    ______ ____
ROOT
ATOM      1  C   UNL     1       7.039   7.095  17.427  0.00  0.00    +0.000 C 
ENDROOT
BRANCH   1   3
ATOM      2  N   UNL     1       8.213   9.200  17.849  0.00  0.00    +0.000 N 
ATOM      3  C   UNL     1       8.079   7.876  18.237  0.00  0.00    +0.000 C 
ATOM      4  O   UNL     1       8.706   7.311  19.131  0.00  0.00    +0.000 OA
ATOM      5  H   UNL     1       7.654   9.497  17.049  0.00  0.00    +0.000 HD
BRANCH   2  10
ATOM      6  C   UNL     1      11.511  13.288  20.165  0.00  0.00    +0.000 C 
ATOM      7  C   UNL     1      10.655  12.226  19.537  0.00  0.00    +0.000 A 
ATOM      8  C   UNL     1       9.918  11.372  20.363  0.00  0.00    +0.000 A 
ATOM      9  C   UNL     1       9.111  10.369  19.825  0.00  0.00    +0.000 A 
ATOM     10  C   UNL     1       9.019  10.190  18.449  0.00  0.00    +0.000 A 
ATOM     11  C   UNL     1       9.755  11.042  17.611  0.00  0.00    +0.000 A 
ATOM     12  C   UNL     1      10.575  12.061  18.138  0.00  0.00    +0.000 A 
ATOM     13  C   UNL     1      11.356  12.952  17.210  0.00  0.00    +0.000 C 
ENDBRANCH   2  10
ENDBRANCH   1   3
BRANCH   1  14
ATOM     14  O   UNL     1       7.550   6.556  16.208  0.00  0.00    +0.000 OA
BRANCH  14  15
ATOM     15  C   UNL     1       6.955   5.414  15.784  0.00  0.00    +0.000 C 
ATOM     16  O   UNL     1       6.589   5.200  14.634  0.00  0.00    +0.000 OA
BRANCH  15  17
ATOM     17  C   UNL     1       6.700   4.488  16.944  0.00  0.00    +0.000 C 
BRANCH  17  18
ATOM     18  C   UNL     1       5.219   4.146  17.049  0.00  0.00    +0.000 C 
BRANCH  18  19
ATOM     19  C   UNL     1       4.811   3.787  18.475  0.00  0.00    +0.000 C 
ATOM     20  O   UNL     1       5.626   3.890  19.393  0.00  0.00    +0.000 OA
BRANCH  19  21
ATOM     21  C   UNL     1       3.431   3.349  18.657  0.00  0.00    +0.000 A 
ATOM     22  C   UNL     1       2.939   2.211  19.270  0.00  0.00    +0.000 A 
ATOM     23  C   UNL     1       1.516   2.133  19.220  0.00  0.00    +0.000 A 
ATOM     24  C   UNL     1       0.965   3.218  18.580  0.00  0.00    +0.000 A 
ATOM     25  S   UNL     1       2.155   4.320  18.048  0.00  0.00    +0.000 S 
ENDBRANCH  19  21
ENDBRANCH  18  19
ENDBRANCH  17  18
ENDBRANCH  15  17
ENDBRANCH  14  15
ENDBRANCH   1  14
TORSDOF 8
ENDMDL
MODEL 7
REMARK VINA RESULT:      -6.9      4.812      7.656
REMARK  Name = 
REMARK  10 active torsions:
REMARK  status: ('A' for Active; 'I' for Inactive)
REMARK    1  A    between atoms: C_1  and  C_2
REMARK    2  A    between atoms: C_5  and  N_6
REMARK    3  A    between atoms: C_7  and  C_9
REMARK    4  A    between atoms: C_9  and  O_10
REMARK    5  A    between atoms: O_10  and  C_11
REMARK    6  A    between atoms: C_11  and  C_13
REMARK    7  A    between atoms: C_13  and  C_14
REMARK    8  A    between atoms: C_14  and  C_15
REMARK    9  A    between atoms: C_15  and  C_17
REMARK   10  A    between atoms: C_23  and  C_24
REMARK                            x       y       z     vdW  Elec       q    Type
REMARK                         _______ _______ _______ _____ _____    ______ ____
ROOT
ATOM      1  C   UNL     1       8.111   7.331  18.446  0.00  0.00    +0.000 C 
ENDROOT
BRANCH   1   3
ATOM      2  N   UNL     1       9.260   9.315  19.301  0.00  0.00    +0.000 N 
ATOM      3  C   UNL     1       8.302   8.851  18.413  0.00  0.00    +0.000 C 
ATOM      4  O   UNL     1       7.625   9.534  17.648  0.00  0.00    +0.000 OA
ATOM      5  H   UNL     1       9.693   8.617  19.906  0.00  0.00    +0.000 HD
BRANCH   2  10
ATOM      6  C   UNL     1      11.139  14.721  19.755  0.00  0.00    +0.000 C 
ATOM      7  C   UNL     1      10.653  13.306  19.612  0.00  0.00    +0.000 A 
ATOM      8  C   UNL     1      10.133  12.652  20.733  0.00  0.00    +0.000 A 
ATOM      9  C   UNL     1       9.672  11.337  20.650  0.00  0.00    +0.000 A 
ATOM     10  C   UNL     1       9.720  10.641  19.447  0.00  0.00    +0.000 A 
ATOM     11  C   UNL     1      10.240  11.289  18.316  0.00  0.00    +0.000 A 
ATOM     12  C   UNL     1      10.709  12.617  18.383  0.00  0.00    +0.000 A 
ATOM     13  C   UNL     1      11.266  13.280  17.152  0.00  0.00    +0.000 C 
ENDBRANCH   2  10
ENDBRANCH   1   3
BRANCH   1  14
ATOM     14  O   UNL     1       6.867   6.898  17.895  0.00  0.00    +0.000 OA
BRANCH  14  15
ATOM     15  C   UNL     1       6.950   5.878  17.006  0.00  0.00    +0.000 C 
ATOM     16  O   UNL     1       7.379   5.979  15.863  0.00  0.00    +0.000 OA
BRANCH  15  17
ATOM     17  C   UNL     1       6.337   4.626  17.577  0.00  0.00    +0.000 C 
BRANCH  17  18
ATOM     18  C   UNL     1       5.317   4.967  18.656  0.00  0.00    +0.000 C 
BRANCH  18  19
ATOM     19  C   UNL     1       3.910   5.128  18.086  0.00  0.00    +0.000 C 
ATOM     20  O   UNL     1       3.635   6.107  17.391  0.00  0.00    +0.000 OA
BRANCH  19  21
ATOM     21  C   UNL     1       2.962   4.064  18.403  0.00  0.00    +0.000 A 
ATOM     22  C   UNL     1       1.624   3.946  18.075  0.00  0.00    +0.000 A 
ATOM     23  C   UNL     1       1.034   2.758  18.598  0.00  0.00    +0.000 A 
ATOM     24  C   UNL     1       1.942   2.000  19.300  0.00  0.00    +0.000 A 
ATOM     25  S   UNL     1       3.491   2.717  19.324  0.00  0.00    +0.000 S 
ENDBRANCH  19  21
ENDBRANCH  18  19
ENDBRANCH  17  18
ENDBRANCH  15  17
ENDBRANCH  14  15
ENDBRANCH   1  14
TORSDOF 8
ENDMDL
MODEL 8
REMARK VINA RESULT:      -6.9      1.163      1.455
REMARK  Name = 
REMARK  10 active torsions:
REMARK  status: ('A' for Active; 'I' for Inactive)
REMARK    1  A    between atoms: C_1  and  C_2
REMARK    2  A    between atoms: C_5  and  N_6
REMARK    3  A    between atoms: C_7  and  C_9
REMARK    4  A    between atoms: C_9  and  O_10
REMARK    5  A    between atoms: O_10  and  C_11
REMARK    6  A    between atoms: C_11  and  C_13
REMARK    7  A    between atoms: C_13  and  C_14
REMARK    8  A    between atoms: C_14  and  C_15
REMARK    9  A    between atoms: C_15  and  C_17
REMARK   10  A    between atoms: C_23  and  C_24
REMARK                            x       y       z     vdW  Elec       q    Type
REMARK                         _______ _______ _______ _____ _____    ______ ____
ROOT
ATOM      1  C   UNL     1       2.323   3.471  21.519  0.00  0.00    +0.000 C 
ENDROOT
BRANCH   1   3
ATOM      2  N   UNL     1       2.283   5.848  20.940  0.00  0.00    +0.000 N 
ATOM      3  C   UNL     1       1.631   4.633  20.798  0.00  0.00    +0.000 C 
ATOM      4  O   UNL     1       0.589   4.432  20.178  0.00  0.00    +0.000 OA
ATOM      5  H   UNL     1       3.111   5.852  21.538  0.00  0.00    +0.000 HD
BRANCH   2  10
ATOM      6  C   UNL     1       0.877  10.897  18.597  0.00  0.00    +0.000 C 
ATOM      7  C   UNL     1       1.235   9.583  19.232  0.00  0.00    +0.000 A 
ATOM      8  C   UNL     1       1.892   8.617  18.464  0.00  0.00    +0.000 A 
ATOM      9  C   UNL     1       2.243   7.381  19.009  0.00  0.00    +0.000 A 
ATOM     10  C   UNL     1       1.945   7.076  20.333  0.00  0.00    +0.000 A 
ATOM     11  C   UNL     1       1.286   8.040  21.112  0.00  0.00    +0.000 A 
ATOM     12  C   UNL     1       0.925   9.294  20.577  0.00  0.00    +0.000 A 
ATOM     13  C   UNL     1       0.213  10.301  21.438  0.00  0.00    +0.000 C 
ENDBRANCH   2  10
ENDBRANCH   1   3
BRANCH   1  14
ATOM     14  O   UNL     1       3.288   2.792  20.714  0.00  0.00    +0.000 OA
BRANCH  14  15
ATOM     15  C   UNL     1       2.813   2.271  19.556  0.00  0.00    +0.000 C 
ATOM     16  O   UNL     1       1.784   1.613  19.454  0.00  0.00    +0.000 OA
BRANCH  15  17
ATOM     17  C   UNL     1       3.782   2.515  18.429  0.00  0.00    +0.000 C 
BRANCH  17  18
ATOM     18  C   UNL     1       4.850   3.519  18.841  0.00  0.00    +0.000 C 
BRANCH  18  19
ATOM     19  C   UNL     1       4.775   4.806  18.023  0.00  0.00    +0.000 C 
ATOM     20  O   UNL     1       3.754   5.075  17.389  0.00  0.00    +0.000 OA
BRANCH  19  21
ATOM     21  C   UNL     1       5.955   5.664  18.066  0.00  0.00    +0.000 A 
ATOM     22  C   UNL     1       7.045   5.626  18.917  0.00  0.00    +0.000 A 
ATOM     23  C   UNL     1       7.987   6.663  18.648  0.00  0.00    +0.000 A 
ATOM     24  C   UNL     1       7.592   7.453  17.594  0.00  0.00    +0.000 A 
ATOM     25  S   UNL     1       6.101   6.946  16.935  0.00  0.00    +0.000 S 
ENDBRANCH  19  21
ENDBRANCH  18  19
ENDBRANCH  17  18
ENDBRANCH  15  17
ENDBRANCH  14  15
ENDBRANCH   1  14
TORSDOF 8
ENDMDL
MODEL 9
REMARK VINA RESULT:      -6.9      0.986      1.284
REMARK  Name = 
REMARK  10 active torsions:
REMARK  status: ('A' for Active; 'I' for Inactive)
REMARK    1  A    between atoms: C_1  and  C_2
REMARK    2  A    between atoms: C_5  and  N_6
REMARK    3  A    between atoms: C_7  and  C_9
REMARK    4  A    between atoms: C_9  and  O_10
REMARK    5  A    between atoms: O_10  and  C_11
REMARK    6  A    between atoms: C_11  and  C_13
REMARK    7  A    between atoms: C_13  and  C_14
REMARK    8  A    between atoms: C_14  and  C_15
REMARK    9  A    between atoms: C_15  and  C_17
REMARK   10  A    between atoms: C_23  and  C_24
REMARK                            x       y       z     vdW  Elec       q    Type
REMARK                         _______ _______ _______ _____ _____    ______ ____
ROOT
ATOM      1  C   UNL     1       3.007   3.419  20.437  0.00  0.00    +0.000 C 
ENDROOT
BRANCH   1   3
ATOM      2  N   UNL     1       2.836   5.810  19.945  0.00  0.00    +0.000 N 
ATOM      3  C   UNL     1       2.127   4.660  20.256  0.00  0.00    +0.000 C 
ATOM      4  O   UNL     1       0.909   4.570  20.397  0.00  0.00    +0.000 OA
ATOM      5  H   UNL     1       3.853   5.723  19.920  0.00  0.00    +0.000 HD
BRANCH   2  10
ATOM      6  C   UNL     1       0.675  11.012  18.834  0.00  0.00    +0.000 C 
ATOM      7  C   UNL     1       1.233   9.652  19.148  0.00  0.00    +0.000 A 
ATOM      8  C   UNL     1       1.890   8.940  18.140  0.00  0.00    +0.000 A 
ATOM      9  C   UNL     1       2.422   7.673  18.384  0.00  0.00    +0.000 A 
ATOM     10  C   UNL     1       2.310   7.083  19.638  0.00  0.00    +0.000 A 
ATOM     11  C   UNL     1       1.652   7.790  20.656  0.00  0.00    +0.000 A 
ATOM     12  C   UNL     1       1.110   9.071  20.427  0.00  0.00    +0.000 A 
ATOM     13  C   UNL     1       0.405   9.799  21.540  0.00  0.00    +0.000 C 
ENDBRANCH   2  10
ENDBRANCH   1   3
BRANCH   1  14
ATOM     14  O   UNL     1       3.716   3.043  19.256  0.00  0.00    +0.000 OA
BRANCH  14  15
ATOM     15  C   UNL     1       2.949   2.861  18.153  0.00  0.00    +0.000 C 
ATOM     16  O   UNL     1       1.968   2.129  18.096  0.00  0.00    +0.000 OA
BRANCH  15  17
ATOM     17  C   UNL     1       3.534   3.593  16.975  0.00  0.00    +0.000 C 
BRANCH  17  18
ATOM     18  C   UNL     1       5.049   3.690  17.095  0.00  0.00    +0.000 C 
BRANCH  18  19
ATOM     19  C   UNL     1       5.620   4.838  16.267  0.00  0.00    +0.000 C 
ATOM     20  O   UNL     1       5.375   4.910  15.062  0.00  0.00    +0.000 OA
BRANCH  19  21
ATOM     21  C   UNL     1       6.430   5.812  16.992  0.00  0.00    +0.000 A 
ATOM     22  C   UNL     1       6.481   7.189  16.864  0.00  0.00    +0.000 A 
ATOM     23  C   UNL     1       7.429   7.786  17.747  0.00  0.00    +0.000 A 
ATOM     24  C   UNL     1       8.064   6.849  18.528  0.00  0.00    +0.000 A 
ATOM     25  S   UNL     1       7.518   5.265  18.201  0.00  0.00    +0.000 S 
ENDBRANCH  19  21
ENDBRANCH  18  19
ENDBRANCH  17  18
ENDBRANCH  15  17
ENDBRANCH  14  15
ENDBRANCH   1  14
TORSDOF 8
ENDMDL
