MODEL 1
REMARK VINA RESULT:      -8.6      0.000      0.000
REMARK  Name = 
REMARK  7 active torsions:
REMARK  status: ('A' for Active; 'I' for Inactive)
REMARK    1  A    between atoms: C_1  and  C_2
REMARK    2  A    between atoms: C_4  and  N_5
REMARK    3  A    between atoms: N_5  and  C_6
REMARK    4  A    between atoms: C_6  and  C_7
REMARK    5  A    between atoms: C_7  and  N_8
REMARK    6  A    between atoms: C_17  and  N_18
REMARK    7  A    between atoms: C_19  and  C_21
REMARK                            x       y       z     vdW  Elec       q    Type
REMARK                         _______ _______ _______ _____ _____    ______ ____
ROOT
ATOM      1  C   UNL     1       4.841   6.934  15.157  0.00  0.00    +0.000 C 
ATOM      2  C   UNL     1       5.422   6.072  16.243  0.00  0.00    +0.000 A 
ATOM      3  C   UNL     1       4.919   4.777  16.417  0.00  0.00    +0.000 A 
ATOM      4  C   UNL     1       5.382   3.984  17.461  0.00  0.00    +0.000 A 
ATOM      5  N   UNL     1       6.345   4.415  18.290  0.00  0.00    +0.000 NA
ATOM      6  C   UNL     1       6.871   5.639  18.112  0.00  0.00    +0.000 A 
ATOM      7  C   UNL     1       7.882   6.049  18.960  0.00  0.00    +0.000 A 
ATOM      8  C   UNL     1       8.462   7.317  18.864  0.00  0.00    +0.000 A 
ATOM      9  C   UNL     1       8.038   8.222  17.892  0.00  0.00    +0.000 A 
ATOM     10  C   UNL     1       7.010   7.828  17.033  0.00  0.00    +0.000 A 
ATOM     11  C   UNL     1       6.430   6.534  17.114  0.00  0.00    +0.000 A 
ENDROOT
BRANCH   9  12
ATOM     12  N   UNL     1       8.585   9.518  17.734  0.00  0.00    +0.000 N 
ATOM     13  C   UNL     1       9.079  10.291  18.776  0.00  0.00    +0.000 C 
ATOM     14  O   UNL     1       9.168   9.944  19.947  0.00  0.00    +0.000 OA
ATOM     15  H   UNL     1       8.753   9.827  16.793  0.00  0.00    +0.000 HD
BRANCH  13  16
ATOM     16  C   UNL     1       9.586  11.651  18.438  0.00  0.00    +0.000 A 
ATOM     17  C   UNL     1      10.917  11.917  18.120  0.00  0.00    +0.000 A 
ATOM     18  C   UNL     1      11.283  13.201  17.702  0.00  0.00    +0.000 A 
ATOM     19  C   UNL     1      10.326  14.219  17.599  0.00  0.00    +0.000 A 
ATOM     20 CL   UNL     1      10.849  15.764  17.032  0.00  0.00    +0.000 Cl
ATOM     21  C   UNL     1       8.993  13.956  17.932  0.00  0.00    +0.000 A 
ATOM     22 CL   UNL     1       7.752  15.152  17.821  0.00  0.00    +0.000 Cl
ATOM     23  C   UNL     1       8.628  12.677  18.352  0.00  0.00    +0.000 A 
ENDBRANCH  13  16
ENDBRANCH   9  12
BRANCH   4  24
ATOM     24  N   UNL     1       4.747   2.760  17.665  0.00  0.00    +0.000 N 
ATOM     25  H   UNL     1       5.126   2.249  18.454  0.00  0.00    +0.000 HD
BRANCH  24  26
ATOM     26  C   UNL     1       3.295   2.687  17.512  0.00  0.00    +0.000 C 
BRANCH  26  27
ATOM     27  C   UNL     1       2.690   2.275  18.876  0.00  0.00    +0.000 C 
BRANCH  27  28
ATOM     28  N   UNL     1       3.159   3.023  20.059  0.00  0.00    +0.000 NA
ATOM     29  C   UNL     1       2.651   2.510  21.337  0.00  0.00    +0.000 C 
ATOM     30  C   UNL     1       1.321   3.204  21.544  0.00  0.00    +0.000 C 
ATOM     31  C   UNL     1       1.578   4.597  21.007  0.00  0.00    +0.000 C 
ATOM     32  C   UNL     1       2.703   4.428  19.988  0.00  0.00    +0.000 C 
ENDBRANCH  27  28
ENDBRANCH  26  27
ENDBRANCH  24  26
ENDBRANCH   4  24
TORSDOF 6
ENDMDL
MODEL 2
REMARK VINA RESULT:      -8.4      1.377      1.732
REMARK  Name = 
REMARK  7 active torsions:
REMARK  status: ('A' for Active; 'I' for Inactive)
REMARK    1  A    between atoms: C_1  and  C_2
REMARK    2  A    between atoms: C_4  and  N_5
REMARK    3  A    between atoms: N_5  and  C_6
REMARK    4  A    between atoms: C_6  and  C_7
REMARK    5  A    between atoms: C_7  and  N_8
REMARK    6  A    between atoms: C_17  and  N_18
REMARK    7  A    between atoms: C_19  and  C_21
REMARK                            x       y       z     vdW  Elec       q    Type
REMARK                         _______ _______ _______ _____ _____    ______ ____
ROOT
ATOM      1  C   UNL     1       2.595   7.281  17.964  0.00  0.00    +0.000 C 
ATOM      2  C   UNL     1       3.462   6.105  17.610  0.00  0.00    +0.000 A 
ATOM      3  C   UNL     1       2.872   4.838  17.515  0.00  0.00    +0.000 A 
ATOM      4  C   UNL     1       3.660   3.720  17.265  0.00  0.00    +0.000 A 
ATOM      5  N   UNL     1       4.981   3.829  17.062  0.00  0.00    +0.000 NA
ATOM      6  C   UNL     1       5.558   5.043  17.105  0.00  0.00    +0.000 A 
ATOM      7  C   UNL     1       6.917   5.133  16.864  0.00  0.00    +0.000 A 
ATOM      8  C   UNL     1       7.600   6.351  16.920  0.00  0.00    +0.000 A 
ATOM      9  C   UNL     1       6.925   7.533  17.220  0.00  0.00    +0.000 A 
ATOM     10  C   UNL     1       5.554   7.459  17.478  0.00  0.00    +0.000 A 
ATOM     11  C   UNL     1       4.851   6.226  17.403  0.00  0.00    +0.000 A 
ENDROOT
BRANCH   9  12
ATOM     12  N   UNL     1       7.552   8.800  17.287  0.00  0.00    +0.000 N 
ATOM     13  C   UNL     1       8.479   9.164  18.255  0.00  0.00    +0.000 C 
ATOM     14  O   UNL     1       8.923   8.435  19.132  0.00  0.00    +0.000 OA
ATOM     15  H   UNL     1       7.421   9.413  16.501  0.00  0.00    +0.000 HD
BRANCH  13  16
ATOM     16  C   UNL     1       9.014  10.554  18.200  0.00  0.00    +0.000 A 
ATOM     17  C   UNL     1      10.370  10.858  18.307  0.00  0.00    +0.000 A 
ATOM     18  C   UNL     1      10.798  12.179  18.128  0.00  0.00    +0.000 A 
ATOM     19  C   UNL     1       9.877  13.195  17.842  0.00  0.00    +0.000 A 
ATOM     20 CL   UNL     1      10.487  14.790  17.591  0.00  0.00    +0.000 Cl
ATOM     21  C   UNL     1       8.514  12.892  17.749  0.00  0.00    +0.000 A 
ATOM     22 CL   UNL     1       7.317  14.083  17.389  0.00  0.00    +0.000 Cl
ATOM     23  C   UNL     1       8.087  11.576  17.930  0.00  0.00    +0.000 A 
ENDBRANCH  13  16
ENDBRANCH   9  12
BRANCH   4  24
ATOM     24  N   UNL     1       3.038   2.473  17.318  0.00  0.00    +0.000 N 
ATOM     25  H   UNL     1       3.067   1.983  16.432  0.00  0.00    +0.000 HD
BRANCH  24  26
ATOM     26  C   UNL     1       3.238   1.638  18.502  0.00  0.00    +0.000 C 
BRANCH  26  27
ATOM     27  C   UNL     1       1.933   1.670  19.335  0.00  0.00    +0.000 C 
BRANCH  27  28
ATOM     28  N   UNL     1       2.033   2.229  20.698  0.00  0.00    +0.000 NA
ATOM     29  C   UNL     1       0.888   3.056  21.095  0.00  0.00    +0.000 C 
ATOM     30  C   UNL     1       1.214   4.451  20.602  0.00  0.00    +0.000 C 
ATOM     31  C   UNL     1       2.707   4.554  20.837  0.00  0.00    +0.000 C 
ATOM     32  C   UNL     1       3.214   3.113  20.800  0.00  0.00    +0.000 C 
ENDBRANCH  27  28
ENDBRANCH  26  27
ENDBRANCH  24  26
ENDBRANCH   4  24
TORSDOF 6
ENDMDL
MODEL 3
REMARK VINA RESULT:      -8.2      8.623     11.137
REMARK  Name = 
REMARK  7 active torsions:
REMARK  status: ('A' for Active; 'I' for Inactive)
REMARK    1  A    between atoms: C_1  and  C_2
REMARK    2  A    between atoms: C_4  and  N_5
REMARK    3  A    between atoms: N_5  and  C_6
REMARK    4  A    between atoms: C_6  and  C_7
REMARK    5  A    between atoms: C_7  and  N_8
REMARK    6  A    between atoms: C_17  and  N_18
REMARK    7  A    between atoms: C_19  and  C_21
REMARK                            x       y       z     vdW  Elec       q    Type
REMARK                         _______ _______ _______ _____ _____    ______ ____
ROOT
ATOM      1  C   UNL     1      -1.394  12.089  18.970  0.00  0.00    +0.000 C 
ATOM      2  C   UNL     1      -1.252  11.741  20.425  0.00  0.00    +0.000 A 
ATOM      3  C   UNL     1      -1.969  12.488  21.370  0.00  0.00    +0.000 A 
ATOM      4  C   UNL     1      -1.799  12.240  22.727  0.00  0.00    +0.000 A 
ATOM      5  N   UNL     1      -0.993  11.260  23.162  0.00  0.00    +0.000 NA
ATOM      6  C   UNL     1      -0.331  10.504  22.269  0.00  0.00    +0.000 A 
ATOM      7  C   UNL     1       0.471   9.481  22.741  0.00  0.00    +0.000 A 
ATOM      8  C   UNL     1       1.217   8.668  21.883  0.00  0.00    +0.000 A 
ATOM      9  C   UNL     1       1.173   8.861  20.503  0.00  0.00    +0.000 A 
ATOM     10  C   UNL     1       0.376   9.897  20.009  0.00  0.00    +0.000 A 
ATOM     11  C   UNL     1      -0.399  10.714  20.876  0.00  0.00    +0.000 A 
ENDROOT
BRANCH   9  12
ATOM     12  N   UNL     1       1.897   8.071  19.577  0.00  0.00    +0.000 N 
ATOM     13  C   UNL     1       2.101   6.705  19.706  0.00  0.00    +0.000 C 
ATOM     14  O   UNL     1       1.640   5.990  20.587  0.00  0.00    +0.000 OA
ATOM     15  H   UNL     1       2.149   8.509  18.708  0.00  0.00    +0.000 HD
BRANCH  13  16
ATOM     16  C   UNL     1       2.921   6.034  18.657  0.00  0.00    +0.000 A 
ATOM     17  C   UNL     1       3.748   6.724  17.773  0.00  0.00    +0.000 A 
ATOM     18  C   UNL     1       4.571   6.007  16.896  0.00  0.00    +0.000 A 
ATOM     19  C   UNL     1       4.571   4.607  16.900  0.00  0.00    +0.000 A 
ATOM     20 CL   UNL     1       5.647   3.796  15.821  0.00  0.00    +0.000 Cl
ATOM     21  C   UNL     1       3.729   3.914  17.778  0.00  0.00    +0.000 A 
ATOM     22 CL   UNL     1       3.677   2.190  17.853  0.00  0.00    +0.000 Cl
ATOM     23  C   UNL     1       2.906   4.628  18.650  0.00  0.00    +0.000 A 
ENDBRANCH  13  16
ENDBRANCH   9  12
BRANCH   4  24
ATOM     24  N   UNL     1      -2.433  13.104  23.620  0.00  0.00    +0.000 N 
ATOM     25  H   UNL     1      -2.238  14.078  23.425  0.00  0.00    +0.000 HD
BRANCH  24  26
ATOM     26  C   UNL     1      -3.805  12.809  24.030  0.00  0.00    +0.000 C 
BRANCH  26  27
ATOM     27  C   UNL     1      -4.605  14.133  24.010  0.00  0.00    +0.000 C 
BRANCH  27  28
ATOM     28  N   UNL     1      -5.750  14.199  23.080  0.00  0.00    +0.000 NA
ATOM     29  C   UNL     1      -6.974  14.754  23.671  0.00  0.00    +0.000 C 
ATOM     30  C   UNL     1      -7.680  13.573  24.305  0.00  0.00    +0.000 C 
ATOM     31  C   UNL     1      -7.410  12.450  23.326  0.00  0.00    +0.000 C 
ATOM     32  C   UNL     1      -6.113  12.842  22.621  0.00  0.00    +0.000 C 
ENDBRANCH  27  28
ENDBRANCH  26  27
ENDBRANCH  24  26
ENDBRANCH   4  24
TORSDOF 6
ENDMDL
MODEL 4
REMARK VINA RESULT:      -8.0      8.079     10.697
REMARK  Name = 
REMARK  7 active torsions:
REMARK  status: ('A' for Active; 'I' for Inactive)
REMARK    1  A    between atoms: C_1  and  C_2
REMARK    2  A    between atoms: C_4  and  N_5
REMARK    3  A    between atoms: N_5  and  C_6
REMARK    4  A    between atoms: C_6  and  C_7
REMARK    5  A    between atoms: C_7  and  N_8
REMARK    6  A    between atoms: C_17  and  N_18
REMARK    7  A    between atoms: C_19  and  C_21
REMARK                            x       y       z     vdW  Elec       q    Type
REMARK                         _______ _______ _______ _____ _____    ______ ____
ROOT
ATOM      1  C   UNL     1      -1.117  11.925  18.771  0.00  0.00    +0.000 C 
ATOM      2  C   UNL     1      -1.088  11.596  20.238  0.00  0.00    +0.000 A 
ATOM      3  C   UNL     1      -1.851  12.374  21.118  0.00  0.00    +0.000 A 
ATOM      4  C   UNL     1      -1.785  12.144  22.487  0.00  0.00    +0.000 A 
ATOM      5  N   UNL     1      -1.036  11.152  22.992  0.00  0.00    +0.000 NA
ATOM      6  C   UNL     1      -0.330  10.367  22.160  0.00  0.00    +0.000 A 
ATOM      7  C   UNL     1       0.411   9.333  22.702  0.00  0.00    +0.000 A 
ATOM      8  C   UNL     1       1.197   8.490  21.911  0.00  0.00    +0.000 A 
ATOM      9  C   UNL     1       1.255   8.662  20.529  0.00  0.00    +0.000 A 
ATOM     10  C   UNL     1       0.521   9.708  19.965  0.00  0.00    +0.000 A 
ATOM     11  C   UNL     1      -0.294  10.556  20.762  0.00  0.00    +0.000 A 
ENDROOT
BRANCH   9  12
ATOM     12  N   UNL     1       2.024   7.841  19.668  0.00  0.00    +0.000 N 
ATOM     13  C   UNL     1       2.127   6.462  19.788  0.00  0.00    +0.000 C 
ATOM     14  O   UNL     1       1.529   5.766  20.599  0.00  0.00    +0.000 OA
ATOM     15  H   UNL     1       2.395   8.275  18.841  0.00  0.00    +0.000 HD
BRANCH  13  16
ATOM     16  C   UNL     1       3.011   5.756  18.818  0.00  0.00    +0.000 A 
ATOM     17  C   UNL     1       2.654   4.571  18.176  0.00  0.00    +0.000 A 
ATOM     18  C   UNL     1       3.495   4.037  17.193  0.00  0.00    +0.000 A 
ATOM     19  C   UNL     1       4.690   4.683  16.848  0.00  0.00    +0.000 A 
ATOM     20 CL   UNL     1       5.651   3.986  15.595  0.00  0.00    +0.000 Cl
ATOM     21  C   UNL     1       5.055   5.865  17.502  0.00  0.00    +0.000 A 
ATOM     22 CL   UNL     1       6.504   6.726  17.129  0.00  0.00    +0.000 Cl
ATOM     23  C   UNL     1       4.218   6.395  18.485  0.00  0.00    +0.000 A 
ENDBRANCH  13  16
ENDBRANCH   9  12
BRANCH   4  24
ATOM     24  N   UNL     1      -2.459  13.036  23.320  0.00  0.00    +0.000 N 
ATOM     25  H   UNL     1      -2.562  13.955  22.907  0.00  0.00    +0.000 HD
BRANCH  24  26
ATOM     26  C   UNL     1      -3.615  12.556  24.075  0.00  0.00    +0.000 C 
BRANCH  26  27
ATOM     27  C   UNL     1      -4.883  13.206  23.472  0.00  0.00    +0.000 C 
BRANCH  27  28
ATOM     28  N   UNL     1      -5.690  12.363  22.566  0.00  0.00    +0.000 NA
ATOM     29  C   UNL     1      -5.482  12.642  21.140  0.00  0.00    +0.000 C 
ATOM     30  C   UNL     1      -6.450  13.759  20.808  0.00  0.00    +0.000 C 
ATOM     31  C   UNL     1      -7.669  13.410  21.636  0.00  0.00    +0.000 C 
ATOM     32  C   UNL     1      -7.130  12.590  22.807  0.00  0.00    +0.000 C 
ENDBRANCH  27  28
ENDBRANCH  26  27
ENDBRANCH  24  26
ENDBRANCH   4  24
TORSDOF 6
ENDMDL
MODEL 5
REMARK VINA RESULT:      -8.0      8.800     10.772
REMARK  Name = 
REMARK  7 active torsions:
REMARK  status: ('A' for Active; 'I' for Inactive)
REMARK    1  A    between atoms: C_1  and  C_2
REMARK    2  A    between atoms: C_4  and  N_5
REMARK    3  A    between atoms: N_5  and  C_6
REMARK    4  A    between atoms: C_6  and  C_7
REMARK    5  A    between atoms: C_7  and  N_8
REMARK    6  A    between atoms: C_17  and  N_18
REMARK    7  A    between atoms: C_19  and  C_21
REMARK                            x       y       z     vdW  Elec       q    Type
REMARK                         _______ _______ _______ _____ _____    ______ ____
ROOT
ATOM      1  C   UNL     1      -2.893   9.741  16.021  0.00  0.00    +0.000 C 
ATOM      2  C   UNL     1      -2.687  10.486  17.311  0.00  0.00    +0.000 A 
ATOM      3  C   UNL     1      -3.710  11.322  17.776  0.00  0.00    +0.000 A 
ATOM      4  C   UNL     1      -3.519  12.082  18.925  0.00  0.00    +0.000 A 
ATOM      5  N   UNL     1      -2.385  11.999  19.635  0.00  0.00    +0.000 NA
ATOM      6  C   UNL     1      -1.409  11.168  19.229  0.00  0.00    +0.000 A 
ATOM      7  C   UNL     1      -0.261  11.078  19.994  0.00  0.00    +0.000 A 
ATOM      8  C   UNL     1       0.813  10.263  19.626  0.00  0.00    +0.000 A 
ATOM      9  C   UNL     1       0.761   9.499  18.462  0.00  0.00    +0.000 A 
ATOM     10  C   UNL     1      -0.387   9.586  17.670  0.00  0.00    +0.000 A 
ATOM     11  C   UNL     1      -1.490  10.398  18.050  0.00  0.00    +0.000 A 
ENDROOT
BRANCH   9  12
ATOM     12  N   UNL     1       1.808   8.648  18.033  0.00  0.00    +0.000 N 
ATOM     13  C   UNL     1       2.337   7.615  18.794  0.00  0.00    +0.000 C 
ATOM     14  O   UNL     1       1.939   7.259  19.896  0.00  0.00    +0.000 OA
ATOM     15  H   UNL     1       2.077   8.713  17.067  0.00  0.00    +0.000 HD
BRANCH  13  16
ATOM     16  C   UNL     1       3.464   6.840  18.204  0.00  0.00    +0.000 A 
ATOM     17  C   UNL     1       4.302   7.340  17.209  0.00  0.00    +0.000 A 
ATOM     18  C   UNL     1       5.408   6.589  16.793  0.00  0.00    +0.000 A 
ATOM     19  C   UNL     1       5.679   5.341  17.369  0.00  0.00    +0.000 A 
ATOM     20 CL   UNL     1       7.087   4.495  16.836  0.00  0.00    +0.000 Cl
ATOM     21  C   UNL     1       4.831   4.831  18.358  0.00  0.00    +0.000 A 
ATOM     22 CL   UNL     1       5.101   3.308  19.124  0.00  0.00    +0.000 Cl
ATOM     23  C   UNL     1       3.726   5.579  18.769  0.00  0.00    +0.000 A 
ENDBRANCH  13  16
ENDBRANCH   9  12
BRANCH   4  24
ATOM     24  N   UNL     1      -4.517  12.996  19.261  0.00  0.00    +0.000 N 
ATOM     25  H   UNL     1      -5.393  12.811  18.787  0.00  0.00    +0.000 HD
BRANCH  24  26
ATOM     26  C   UNL     1      -4.637  13.425  20.654  0.00  0.00    +0.000 C 
BRANCH  26  27
ATOM     27  C   UNL     1      -5.687  12.520  21.344  0.00  0.00    +0.000 C 
BRANCH  27  28
ATOM     28  N   UNL     1      -6.963  13.158  21.722  0.00  0.00    +0.000 NA
ATOM     29  C   UNL     1      -6.828  14.542  22.194  0.00  0.00    +0.000 C 
ATOM     30  C   UNL     1      -6.553  14.430  23.680  0.00  0.00    +0.000 C 
ATOM     31  C   UNL     1      -7.424  13.265  24.099  0.00  0.00    +0.000 C 
ATOM     32  C   UNL     1      -7.591  12.420  22.838  0.00  0.00    +0.000 C 
ENDBRANCH  27  28
ENDBRANCH  26  27
ENDBRANCH  24  26
ENDBRANCH   4  24
TORSDOF 6
ENDMDL
MODEL 6
REMARK VINA RESULT:      -8.0      8.388     10.429
REMARK  Name = 
REMARK  7 active torsions:
REMARK  status: ('A' for Active; 'I' for Inactive)
REMARK    1  A    between atoms: C_1  and  C_2
REMARK    2  A    between atoms: C_4  and  N_5
REMARK    3  A    between atoms: N_5  and  C_6
REMARK    4  A    between atoms: C_6  and  C_7
REMARK    5  A    between atoms: C_7  and  N_8
REMARK    6  A    between atoms: C_17  and  N_18
REMARK    7  A    between atoms: C_19  and  C_21
REMARK                            x       y       z     vdW  Elec       q    Type
REMARK                         _______ _______ _______ _____ _____    ______ ____
ROOT
ATOM      1  C   UNL     1      -3.118   9.671  16.518  0.00  0.00    +0.000 C 
ATOM      2  C   UNL     1      -2.678  10.537  17.666  0.00  0.00    +0.000 A 
ATOM      3  C   UNL     1      -3.596  11.437  18.221  0.00  0.00    +0.000 A 
ATOM      4  C   UNL     1      -3.197  12.304  19.233  0.00  0.00    +0.000 A 
ATOM      5  N   UNL     1      -1.952  12.269  19.729  0.00  0.00    +0.000 NA
ATOM      6  C   UNL     1      -1.069  11.382  19.239  0.00  0.00    +0.000 A 
ATOM      7  C   UNL     1       0.200  11.346  19.787  0.00  0.00    +0.000 A 
ATOM      8  C   UNL     1       1.187  10.476  19.315  0.00  0.00    +0.000 A 
ATOM      9  C   UNL     1       0.921   9.600  18.265  0.00  0.00    +0.000 A 
ATOM     10  C   UNL     1      -0.353   9.631  17.691  0.00  0.00    +0.000 A 
ATOM     11  C   UNL     1      -1.366  10.499  18.179  0.00  0.00    +0.000 A 
ENDROOT
BRANCH   9  12
ATOM     12  N   UNL     1       1.870   8.689  17.742  0.00  0.00    +0.000 N 
ATOM     13  C   UNL     1       2.392   7.613  18.447  0.00  0.00    +0.000 C 
ATOM     14  O   UNL     1       2.064   7.267  19.575  0.00  0.00    +0.000 OA
ATOM     15  H   UNL     1       2.062   8.750  16.758  0.00  0.00    +0.000 HD
BRANCH  13  16
ATOM     16  C   UNL     1       3.412   6.775  17.757  0.00  0.00    +0.000 A 
ATOM     17  C   UNL     1       4.518   7.304  17.092  0.00  0.00    +0.000 A 
ATOM     18  C   UNL     1       5.489   6.440  16.571  0.00  0.00    +0.000 A 
ATOM     19  C   UNL     1       5.360   5.053  16.713  0.00  0.00    +0.000 A 
ATOM     20 CL   UNL     1       6.622   4.056  16.083  0.00  0.00    +0.000 Cl
ATOM     21  C   UNL     1       4.243   4.521  17.367  0.00  0.00    +0.000 A 
ATOM     22 CL   UNL     1       4.016   2.824  17.592  0.00  0.00    +0.000 Cl
ATOM     23  C   UNL     1       3.274   5.381  17.883  0.00  0.00    +0.000 A 
ENDBRANCH  13  16
ENDBRANCH   9  12
BRANCH   4  24
ATOM     24  N   UNL     1      -4.115  13.267  19.649  0.00  0.00    +0.000 N 
ATOM     25  H   UNL     1      -4.757  13.539  18.915  0.00  0.00    +0.000 HD
BRANCH  24  26
ATOM     26  C   UNL     1      -4.704  13.146  20.982  0.00  0.00    +0.000 C 
BRANCH  26  27
ATOM     27  C   UNL     1      -4.041  14.206  21.895  0.00  0.00    +0.000 C 
BRANCH  27  28
ATOM     28  N   UNL     1      -3.009  13.719  22.832  0.00  0.00    +0.000 NA
ATOM     29  C   UNL     1      -3.267  12.377  23.368  0.00  0.00    +0.000 C 
ATOM     30  C   UNL     1      -4.136  12.596  24.589  0.00  0.00    +0.000 C 
ATOM     31  C   UNL     1      -3.568  13.867  25.186  0.00  0.00    +0.000 C 
ATOM     32  C   UNL     1      -2.931  14.607  24.011  0.00  0.00    +0.000 C 
ENDBRANCH  27  28
ENDBRANCH  26  27
ENDBRANCH  24  26
ENDBRANCH   4  24
TORSDOF 6
ENDMDL
MODEL 7
REMARK VINA RESULT:      -8.0      0.868      1.142
REMARK  Name = 
REMARK  7 active torsions:
REMARK  status: ('A' for Active; 'I' for Inactive)
REMARK    1  A    between atoms: C_1  and  C_2
REMARK    2  A    between atoms: C_4  and  N_5
REMARK    3  A    between atoms: N_5  and  C_6
REMARK    4  A    between atoms: C_6  and  C_7
REMARK    5  A    between atoms: C_7  and  N_8
REMARK    6  A    between atoms: C_17  and  N_18
REMARK    7  A    between atoms: C_19  and  C_21
REMARK                            x       y       z     vdW  Elec       q    Type
REMARK                         _______ _______ _______ _____ _____    ______ ____
ROOT
ATOM      1  C   UNL     1       4.984   6.871  15.259  0.00  0.00    +0.000 C 
ATOM      2  C   UNL     1       5.513   6.062  16.410  0.00  0.00    +0.000 A 
ATOM      3  C   UNL     1       4.972   4.792  16.645  0.00  0.00    +0.000 A 
ATOM      4  C   UNL     1       5.387   4.051  17.747  0.00  0.00    +0.000 A 
ATOM      5  N   UNL     1       6.337   4.508  18.576  0.00  0.00    +0.000 NA
ATOM      6  C   UNL     1       6.899   5.707  18.341  0.00  0.00    +0.000 A 
ATOM      7  C   UNL     1       7.897   6.142  19.193  0.00  0.00    +0.000 A 
ATOM      8  C   UNL     1       8.511   7.388  19.040  0.00  0.00    +0.000 A 
ATOM      9  C   UNL     1       8.137   8.244  18.004  0.00  0.00    +0.000 A 
ATOM     10  C   UNL     1       7.122   7.824  17.141  0.00  0.00    +0.000 A 
ATOM     11  C   UNL     1       6.508   6.550  17.281  0.00  0.00    +0.000 A 
ENDROOT
BRANCH   9  12
ATOM     12  N   UNL     1       8.721   9.514  17.786  0.00  0.00    +0.000 N 
ATOM     13  C   UNL     1       9.153  10.361  18.798  0.00  0.00    +0.000 C 
ATOM     14  O   UNL     1       9.148  10.107  19.996  0.00  0.00    +0.000 OA
ATOM     15  H   UNL     1       8.964   9.745  16.839  0.00  0.00    +0.000 HD
BRANCH  13  16
ATOM     16  C   UNL     1       9.710  11.682  18.393  0.00  0.00    +0.000 A 
ATOM     17  C   UNL     1      10.809  11.824  17.546  0.00  0.00    +0.000 A 
ATOM     18  C   UNL     1      11.195  13.101  17.124  0.00  0.00    +0.000 A 
ATOM     19  C   UNL     1      10.488  14.236  17.543  0.00  0.00    +0.000 A 
ATOM     20 CL   UNL     1      10.998  15.772  16.943  0.00  0.00    +0.000 Cl
ATOM     21  C   UNL     1       9.395  14.095  18.405  0.00  0.00    +0.000 A 
ATOM     22 CL   UNL     1       8.465  15.440  18.959  0.00  0.00    +0.000 Cl
ATOM     23  C   UNL     1       9.012  12.821  18.829  0.00  0.00    +0.000 A 
ENDBRANCH  13  16
ENDBRANCH   9  12
BRANCH   4  24
ATOM     24  N   UNL     1       4.716   2.857  18.004  0.00  0.00    +0.000 N 
ATOM     25  H   UNL     1       4.868   2.160  17.285  0.00  0.00    +0.000 HD
BRANCH  24  26
ATOM     26  C   UNL     1       4.690   2.347  19.374  0.00  0.00    +0.000 C 
BRANCH  26  27
ATOM     27  C   UNL     1       3.503   3.014  20.110  0.00  0.00    +0.000 C 
BRANCH  27  28
ATOM     28  N   UNL     1       2.505   3.702  19.267  0.00  0.00    +0.000 NA
ATOM     29  C   UNL     1       1.455   4.396  20.021  0.00  0.00    +0.000 C 
ATOM     30  C   UNL     1       0.386   3.351  20.267  0.00  0.00    +0.000 C 
ATOM     31  C   UNL     1       0.392   2.549  18.982  0.00  0.00    +0.000 C 
ATOM     32  C   UNL     1       1.798   2.723  18.413  0.00  0.00    +0.000 C 
ENDBRANCH  27  28
ENDBRANCH  26  27
ENDBRANCH  24  26
ENDBRANCH   4  24
TORSDOF 6
ENDMDL
MODEL 8
REMARK VINA RESULT:      -7.9      6.048      8.198
REMARK  Name = 
REMARK  7 active torsions:
REMARK  status: ('A' for Active; 'I' for Inactive)
REMARK    1  A    between atoms: C_1  and  C_2
REMARK    2  A    between atoms: C_4  and  N_5
REMARK    3  A    between atoms: N_5  and  C_6
REMARK    4  A    between atoms: C_6  and  C_7
REMARK    5  A    between atoms: C_7  and  N_8
REMARK    6  A    between atoms: C_17  and  N_18
REMARK    7  A    between atoms: C_19  and  C_21
REMARK                            x       y       z     vdW  Elec       q    Type
REMARK                         _______ _______ _______ _____ _____    ______ ____
ROOT
ATOM      1  C   UNL     1       1.958   4.945  21.210  0.00  0.00    +0.000 C 
ATOM      2  C   UNL     1       2.354   5.415  19.838  0.00  0.00    +0.000 A 
ATOM      3  C   UNL     1       2.885   4.485  18.935  0.00  0.00    +0.000 A 
ATOM      4  C   UNL     1       3.331   4.904  17.686  0.00  0.00    +0.000 A 
ATOM      5  N   UNL     1       3.222   6.184  17.300  0.00  0.00    +0.000 NA
ATOM      6  C   UNL     1       2.675   7.082  18.136  0.00  0.00    +0.000 A 
ATOM      7  C   UNL     1       2.547   8.389  17.704  0.00  0.00    +0.000 A 
ATOM      8  C   UNL     1       2.018   9.392  18.522  0.00  0.00    +0.000 A 
ATOM      9  C   UNL     1       1.591   9.103  19.817  0.00  0.00    +0.000 A 
ATOM     10  C   UNL     1       1.723   7.790  20.274  0.00  0.00    +0.000 A 
ATOM     11  C   UNL     1       2.242   6.762  19.440  0.00  0.00    +0.000 A 
ENDROOT
BRANCH   9  12
ATOM     12  N   UNL     1       1.040  10.067  20.695  0.00  0.00    +0.000 N 
ATOM     13  C   UNL     1       0.059  10.981  20.337  0.00  0.00    +0.000 C 
ATOM     14  O   UNL     1      -0.505  11.040  19.252  0.00  0.00    +0.000 OA
ATOM     15  H   UNL     1       1.277   9.981  21.668  0.00  0.00    +0.000 HD
BRANCH  13  16
ATOM     16  C   UNL     1      -0.382  11.952  21.377  0.00  0.00    +0.000 A 
ATOM     17  C   UNL     1       0.210  13.201  21.562  0.00  0.00    +0.000 A 
ATOM     18  C   UNL     1      -0.342  14.098  22.484  0.00  0.00    +0.000 A 
ATOM     19  C   UNL     1      -1.482  13.752  23.222  0.00  0.00    +0.000 A 
ATOM     20 CL   UNL     1      -2.128  14.929  24.307  0.00  0.00    +0.000 Cl
ATOM     21  C   UNL     1      -2.068  12.494  23.048  0.00  0.00    +0.000 A 
ATOM     22 CL   UNL     1      -3.479  11.996  23.909  0.00  0.00    +0.000 Cl
ATOM     23  C   UNL     1      -1.516  11.599  22.130  0.00  0.00    +0.000 A 
ENDBRANCH  13  16
ENDBRANCH   9  12
BRANCH   4  24
ATOM     24  N   UNL     1       3.973   3.960  16.886  0.00  0.00    +0.000 N 
ATOM     25  H   UNL     1       3.368   3.190  16.626  0.00  0.00    +0.000 HD
BRANCH  24  26
ATOM     26  C   UNL     1       4.878   4.427  15.836  0.00  0.00    +0.000 C 
BRANCH  26  27
ATOM     27  C   UNL     1       6.267   3.791  16.085  0.00  0.00    +0.000 C 
BRANCH  27  28
ATOM     28  N   UNL     1       7.359   4.714  16.455  0.00  0.00    +0.000 NA
ATOM     29  C   UNL     1       7.826   4.570  17.839  0.00  0.00    +0.000 C 
ATOM     30  C   UNL     1       6.921   5.465  18.660  0.00  0.00    +0.000 C 
ATOM     31  C   UNL     1       6.704   6.656  17.750  0.00  0.00    +0.000 C 
ATOM     32  C   UNL     1       6.904   6.116  16.335  0.00  0.00    +0.000 C 
ENDBRANCH  27  28
ENDBRANCH  26  27
ENDBRANCH  24  26
ENDBRANCH   4  24
TORSDOF 6
ENDMDL
MODEL 9
REMARK VINA RESULT:      -7.8      5.652      7.879
REMARK  Name = 
REMARK  7 active torsions:
REMARK  status: ('A' for Active; 'I' for Inactive)
REMARK    1  A    between atoms: C_1  and  C_2
REMARK    2  A    between atoms: C_4  and  N_5
REMARK    3  A    between atoms: N_5  and  C_6
REMARK    4  A    between atoms: C_6  and  C_7
REMARK    5  A    between atoms: C_7  and  N_8
REMARK    6  A    between atoms: C_17  and  N_18
REMARK    7  A    between atoms: C_19  and  C_21
REMARK                            x       y       z     vdW  Elec       q    Type
REMARK                         _______ _______ _______ _____ _____    ______ ____
ROOT
ATOM      1  C   UNL     1       1.962   4.778  21.217  0.00  0.00    +0.000 C 
ATOM      2  C   UNL     1       2.411   5.265  19.868  0.00  0.00    +0.000 A 
ATOM      3  C   UNL     1       3.049   4.365  19.005  0.00  0.00    +0.000 A 
ATOM      4  C   UNL     1       3.543   4.806  17.782  0.00  0.00    +0.000 A 
ATOM      5  N   UNL     1       3.382   6.075  17.381  0.00  0.00    +0.000 NA
ATOM      6  C   UNL     1       2.734   6.943  18.177  0.00  0.00    +0.000 A 
ATOM      7  C   UNL     1       2.555   8.238  17.729  0.00  0.00    +0.000 A 
ATOM      8  C   UNL     1       1.920   9.211  18.506  0.00  0.00    +0.000 A 
ATOM      9  C   UNL     1       1.434   8.902  19.776  0.00  0.00    +0.000 A 
ATOM     10  C   UNL     1       1.616   7.600  20.249  0.00  0.00    +0.000 A 
ATOM     11  C   UNL     1       2.244   6.602  19.455  0.00  0.00    +0.000 A 
ENDROOT
BRANCH   9  12
ATOM     12  N   UNL     1       0.776   9.834  20.613  0.00  0.00    +0.000 N 
ATOM     13  C   UNL     1       0.556  11.164  20.281  0.00  0.00    +0.000 C 
ATOM     14  O   UNL     1       0.837  11.693  19.213  0.00  0.00    +0.000 OA
ATOM     15  H   UNL     1       0.319   9.467  21.429  0.00  0.00    +0.000 HD
BRANCH  13  16
ATOM     16  C   UNL     1      -0.121  12.019  21.297  0.00  0.00    +0.000 A 
ATOM     17  C   UNL     1      -1.062  11.534  22.203  0.00  0.00    +0.000 A 
ATOM     18  C   UNL     1      -1.562  12.381  23.199  0.00  0.00    +0.000 A 
ATOM     19  C   UNL     1      -1.125  13.709  23.294  0.00  0.00    +0.000 A 
ATOM     20 CL   UNL     1      -1.754  14.677  24.577  0.00  0.00    +0.000 Cl
ATOM     21  C   UNL     1      -0.191  14.200  22.375  0.00  0.00    +0.000 A 
ATOM     22 CL   UNL     1       0.407  15.818  22.429  0.00  0.00    +0.000 Cl
ATOM     23  C   UNL     1       0.305  13.356  21.380  0.00  0.00    +0.000 A 
ENDBRANCH  13  16
ENDBRANCH   9  12
BRANCH   4  24
ATOM     24  N   UNL     1       4.287   3.898  17.028  0.00  0.00    +0.000 N 
ATOM     25  H   UNL     1       3.794   3.029  16.864  0.00  0.00    +0.000 HD
BRANCH  24  26
ATOM     26  C   UNL     1       5.068   4.398  15.897  0.00  0.00    +0.000 C 
BRANCH  26  27
ATOM     27  C   UNL     1       6.502   3.827  16.018  0.00  0.00    +0.000 C 
BRANCH  27  28
ATOM     28  N   UNL     1       7.550   4.763  16.471  0.00  0.00    +0.000 NA
ATOM     29  C   UNL     1       7.973   4.565  17.863  0.00  0.00    +0.000 C 
ATOM     30  C   UNL     1       7.011   5.390  18.692  0.00  0.00    +0.000 C 
ATOM     31  C   UNL     1       6.789   6.618  17.833  0.00  0.00    +0.000 C 
ATOM     32  C   UNL     1       7.055   6.154  16.403  0.00  0.00    +0.000 C 
ENDBRANCH  27  28
ENDBRANCH  26  27
ENDBRANCH  24  26
ENDBRANCH   4  24
TORSDOF 6
ENDMDL
