MODEL 1
REMARK VINA RESULT:      -6.3      0.000      0.000
REMARK  Name = 
REMARK  7 active torsions:
REMARK  status: ('A' for Active; 'I' for Inactive)
REMARK    1  A    between atoms: C_1  and  C_2
REMARK    2  A    between atoms: C_5  and  C_6
REMARK    3  A    between atoms: C_6  and  N_7
REMARK    4  A    between atoms: C_10  and  C_11
REMARK    5  A    between atoms: C_11  and  C_12
REMARK    6  A    between atoms: C_14  and  C_15
REMARK    7  A    between atoms: C_16  and  N_17
REMARK                            x       y       z     vdW  Elec       q    Type
REMARK                         _______ _______ _______ _____ _____    ______ ____
ROOT
ATOM      1  C   UNL     1       7.399   5.064  13.194  0.00  0.00    +0.000 C 
ATOM      2  C   UNL     1       6.892   5.101  14.599  0.00  0.00    +0.000 A 
ATOM      3  N   UNL     1       5.675   5.622  14.817  0.00  0.00    +0.000 NA
ATOM      4  C   UNL     1       5.286   5.700  16.099  0.00  0.00    +0.000 A 
ATOM      5  C   UNL     1       6.053   5.296  17.177  0.00  0.00    +0.000 A 
ATOM      6  C   UNL     1       7.263   4.732  16.829  0.00  0.00    +0.000 A 
ATOM      7  N   UNL     1       7.705   4.654  15.566  0.00  0.00    +0.000 NA
ENDROOT
BRANCH   6   8
ATOM      8  N   UNL     1       8.122   4.208  17.799  0.00  0.00    +0.000 N 
ATOM      9  H   UNL     1       8.909   3.715  17.319  0.00  0.00    +0.000 HD
ATOM     10  H   UNL     1       8.577   5.011  18.239  0.00  0.00    +0.000 HD
ENDBRANCH   6   8
BRANCH   5  11
ATOM     11  C   UNL     1       5.728   5.585  18.615  0.00  0.00    +0.000 C 
BRANCH  11  12
ATOM     12  N   UNL     1       4.794   4.596  19.197  0.00  0.00    +0.000 N 
ATOM     13  C   UNL     1       5.189   3.358  19.450  0.00  0.00    +0.000 A 
ATOM     14  S   UNL     1       3.981   2.484  20.285  0.00  0.00    +0.000 S 
ATOM     15  C   UNL     1       2.894   3.819  20.234  0.00  0.00    +0.000 A 
ATOM     16  C   UNL     1       3.467   4.859  19.528  0.00  0.00    +0.000 A 
ATOM     17  C   UNL     1       2.872   6.163  19.165  0.00  0.00    +0.000 C 
BRANCH  15  18
ATOM     18  C   UNL     1       1.568   3.739  20.953  0.00  0.00    +0.000 C 
BRANCH  18  19
ATOM     19  C   UNL     1       0.353   3.523  20.056  0.00  0.00    +0.000 C 
ATOM     20 CL   UNL     1       0.662   2.308  18.793  0.00  0.00    +0.000 Cl
ENDBRANCH  18  19
ENDBRANCH  15  18
ENDBRANCH  11  12
ENDBRANCH   5  11
TORSDOF 5
ENDMDL
MODEL 2
REMARK VINA RESULT:      -6.2      1.316      1.762
REMARK  Name = 
REMARK  7 active torsions:
REMARK  status: ('A' for Active; 'I' for Inactive)
REMARK    1  A    between atoms: C_1  and  C_2
REMARK    2  A    between atoms: C_5  and  C_6
REMARK    3  A    between atoms: C_6  and  N_7
REMARK    4  A    between atoms: C_10  and  C_11
REMARK    5  A    between atoms: C_11  and  C_12
REMARK    6  A    between atoms: C_14  and  C_15
REMARK    7  A    between atoms: C_16  and  N_17
REMARK                            x       y       z     vdW  Elec       q    Type
REMARK                         _______ _______ _______ _____ _____    ______ ____
ROOT
ATOM      1  C   UNL     1       6.769   4.469  13.486  0.00  0.00    +0.000 C 
ATOM      2  C   UNL     1       6.472   4.491  14.950  0.00  0.00    +0.000 A 
ATOM      3  N   UNL     1       5.199   4.668  15.333  0.00  0.00    +0.000 NA
ATOM      4  C   UNL     1       4.984   4.750  16.655  0.00  0.00    +0.000 A 
ATOM      5  C   UNL     1       5.976   4.678  17.617  0.00  0.00    +0.000 A 
ATOM      6  C   UNL     1       7.238   4.447  17.109  0.00  0.00    +0.000 A 
ATOM      7  N   UNL     1       7.505   4.381  15.797  0.00  0.00    +0.000 NA
ENDROOT
BRANCH   6   8
ATOM      8  N   UNL     1       8.337   4.276  17.955  0.00  0.00    +0.000 N 
ATOM      9  H   UNL     1       9.172   4.727  17.515  0.00  0.00    +0.000 HD
ATOM     10  H   UNL     1       8.157   4.858  18.776  0.00  0.00    +0.000 HD
ENDBRANCH   6   8
BRANCH   5  11
ATOM     11  C   UNL     1       5.783   4.996  19.072  0.00  0.00    +0.000 C 
BRANCH  11  12
ATOM     12  N   UNL     1       4.363   4.931  19.484  0.00  0.00    +0.000 N 
ATOM     13  C   UNL     1       3.618   6.024  19.521  0.00  0.00    +0.000 A 
ATOM     14  S   UNL     1       1.983   5.645  19.846  0.00  0.00    +0.000 S 
ATOM     15  C   UNL     1       2.338   3.966  19.994  0.00  0.00    +0.000 A 
ATOM     16  C   UNL     1       3.698   3.764  19.853  0.00  0.00    +0.000 A 
ATOM     17  C   UNL     1       4.459   2.504  19.985  0.00  0.00    +0.000 C 
BRANCH  15  18
ATOM     18  C   UNL     1       1.217   2.972  20.187  0.00  0.00    +0.000 C 
BRANCH  18  19
ATOM     19  C   UNL     1       0.816   2.194  18.938  0.00  0.00    +0.000 C 
ATOM     20 CL   UNL     1       1.932   2.481  17.583  0.00  0.00    +0.000 Cl
ENDBRANCH  18  19
ENDBRANCH  15  18
ENDBRANCH  11  12
ENDBRANCH   5  11
TORSDOF 5
ENDMDL
MODEL 3
REMARK VINA RESULT:      -6.1      1.617      1.658
REMARK  Name = 
REMARK  7 active torsions:
REMARK  status: ('A' for Active; 'I' for Inactive)
REMARK    1  A    between atoms: C_1  and  C_2
REMARK    2  A    between atoms: C_5  and  C_6
REMARK    3  A    between atoms: C_6  and  N_7
REMARK    4  A    between atoms: C_10  and  C_11
REMARK    5  A    between atoms: C_11  and  C_12
REMARK    6  A    between atoms: C_14  and  C_15
REMARK    7  A    between atoms: C_16  and  N_17
REMARK                            x       y       z     vdW  Elec       q    Type
REMARK                         _______ _______ _______ _____ _____    ______ ____
ROOT
ATOM      1  C   UNL     1       7.882   4.950  12.815  0.00  0.00    +0.000 C 
ATOM      2  C   UNL     1       7.062   4.976  14.064  0.00  0.00    +0.000 A 
ATOM      3  N   UNL     1       5.845   4.412  14.031  0.00  0.00    +0.000 NA
ATOM      4  C   UNL     1       5.114   4.517  15.152  0.00  0.00    +0.000 A 
ATOM      5  C   UNL     1       5.528   5.168  16.301  0.00  0.00    +0.000 A 
ATOM      6  C   UNL     1       6.813   5.665  16.235  0.00  0.00    +0.000 A 
ATOM      7  N   UNL     1       7.572   5.605  15.131  0.00  0.00    +0.000 NA
ENDROOT
BRANCH   6   8
ATOM      8  N   UNL     1       7.405   6.286  17.338  0.00  0.00    +0.000 N 
ATOM      9  H   UNL     1       8.260   6.796  17.017  0.00  0.00    +0.000 HD
ATOM     10  H   UNL     1       6.771   7.037  17.616  0.00  0.00    +0.000 HD
ENDBRANCH   6   8
BRANCH   5  11
ATOM     11  C   UNL     1       4.641   5.489  17.470  0.00  0.00    +0.000 C 
BRANCH  11  12
ATOM     12  N   UNL     1       4.225   4.282  18.216  0.00  0.00    +0.000 N 
ATOM     13  C   UNL     1       5.122   3.496  18.788  0.00  0.00    +0.000 A 
ATOM     14  S   UNL     1       4.370   2.287  19.735  0.00  0.00    +0.000 S 
ATOM     15  C   UNL     1       2.798   2.832  19.290  0.00  0.00    +0.000 A 
ATOM     16  C   UNL     1       2.904   3.873  18.388  0.00  0.00    +0.000 A 
ATOM     17  C   UNL     1       1.823   4.591  17.680  0.00  0.00    +0.000 C 
BRANCH  15  18
ATOM     18  C   UNL     1       1.577   2.207  19.921  0.00  0.00    +0.000 C 
BRANCH  18  19
ATOM     19  C   UNL     1       1.083   2.886  21.195  0.00  0.00    +0.000 C 
ATOM     20 CL   UNL     1       2.285   4.018  21.859  0.00  0.00    +0.000 Cl
ENDBRANCH  18  19
ENDBRANCH  15  18
ENDBRANCH  11  12
ENDBRANCH   5  11
TORSDOF 5
ENDMDL
MODEL 4
REMARK VINA RESULT:      -6.0      2.281      2.934
REMARK  Name = 
REMARK  7 active torsions:
REMARK  status: ('A' for Active; 'I' for Inactive)
REMARK    1  A    between atoms: C_1  and  C_2
REMARK    2  A    between atoms: C_5  and  C_6
REMARK    3  A    between atoms: C_6  and  N_7
REMARK    4  A    between atoms: C_10  and  C_11
REMARK    5  A    between atoms: C_11  and  C_12
REMARK    6  A    between atoms: C_14  and  C_15
REMARK    7  A    between atoms: C_16  and  N_17
REMARK                            x       y       z     vdW  Elec       q    Type
REMARK                         _______ _______ _______ _____ _____    ______ ____
ROOT
ATOM      1  C   UNL     1       8.573   9.506  17.877  0.00  0.00    +0.000 C 
ATOM      2  C   UNL     1       7.949   8.149  17.886  0.00  0.00    +0.000 A 
ATOM      3  N   UNL     1       7.036   7.869  16.944  0.00  0.00    +0.000 NA
ATOM      4  C   UNL     1       6.449   6.665  17.028  0.00  0.00    +0.000 A 
ATOM      5  C   UNL     1       6.716   5.729  18.012  0.00  0.00    +0.000 A 
ATOM      6  C   UNL     1       7.706   6.107  18.896  0.00  0.00    +0.000 A 
ATOM      7  N   UNL     1       8.303   7.307  18.866  0.00  0.00    +0.000 NA
ENDROOT
BRANCH   6   8
ATOM      8  N   UNL     1       8.143   5.244  19.904  0.00  0.00    +0.000 N 
ATOM      9  H   UNL     1       7.451   4.466  20.002  0.00  0.00    +0.000 HD
ATOM     10  H   UNL     1       8.975   4.777  19.537  0.00  0.00    +0.000 HD
ENDBRANCH   6   8
BRANCH   5  11
ATOM     11  C   UNL     1       5.911   4.484  18.251  0.00  0.00    +0.000 C 
BRANCH  11  12
ATOM     12  N   UNL     1       4.674   4.746  19.019  0.00  0.00    +0.000 N 
ATOM     13  C   UNL     1       4.118   5.947  19.020  0.00  0.00    +0.000 A 
ATOM     14  S   UNL     1       2.612   5.929  19.827  0.00  0.00    +0.000 S 
ATOM     15  C   UNL     1       2.774   4.260  20.222  0.00  0.00    +0.000 A 
ATOM     16  C   UNL     1       3.997   3.794  19.779  0.00  0.00    +0.000 A 
ATOM     17  C   UNL     1       4.595   2.455  19.968  0.00  0.00    +0.000 C 
BRANCH  15  18
ATOM     18  C   UNL     1       1.637   3.531  20.898  0.00  0.00    +0.000 C 
BRANCH  18  19
ATOM     19  C   UNL     1       0.955   2.461  20.051  0.00  0.00    +0.000 C 
ATOM     20 CL   UNL     1       0.952   2.878  18.322  0.00  0.00    +0.000 Cl
ENDBRANCH  18  19
ENDBRANCH  15  18
ENDBRANCH  11  12
ENDBRANCH   5  11
TORSDOF 5
ENDMDL
MODEL 5
REMARK VINA RESULT:      -6.0      0.691      1.609
REMARK  Name = 
REMARK  7 active torsions:
REMARK  status: ('A' for Active; 'I' for Inactive)
REMARK    1  A    between atoms: C_1  and  C_2
REMARK    2  A    between atoms: C_5  and  C_6
REMARK    3  A    between atoms: C_6  and  N_7
REMARK    4  A    between atoms: C_10  and  C_11
REMARK    5  A    between atoms: C_11  and  C_12
REMARK    6  A    between atoms: C_14  and  C_15
REMARK    7  A    between atoms: C_16  and  N_17
REMARK                            x       y       z     vdW  Elec       q    Type
REMARK                         _______ _______ _______ _____ _____    ______ ____
ROOT
ATOM      1  C   UNL     1       7.023   4.592  13.430  0.00  0.00    +0.000 C 
ATOM      2  C   UNL     1       6.775   4.983  14.851  0.00  0.00    +0.000 A 
ATOM      3  N   UNL     1       7.590   4.487  15.793  0.00  0.00    +0.000 NA
ATOM      4  C   UNL     1       7.292   4.806  17.062  0.00  0.00    +0.000 A 
ATOM      5  C   UNL     1       6.213   5.585  17.442  0.00  0.00    +0.000 A 
ATOM      6  C   UNL     1       5.474   6.078  16.386  0.00  0.00    +0.000 A 
ATOM      7  N   UNL     1       5.719   5.768  15.105  0.00  0.00    +0.000 NA
ENDROOT
BRANCH   6   8
ATOM      8  N   UNL     1       4.395   6.940  16.599  0.00  0.00    +0.000 N 
ATOM      9  H   UNL     1       4.221   7.011  17.627  0.00  0.00    +0.000 HD
ATOM     10  H   UNL     1       4.724   7.875  16.349  0.00  0.00    +0.000 HD
ENDBRANCH   6   8
BRANCH   5  11
ATOM     11  C   UNL     1       5.737   5.759  18.856  0.00  0.00    +0.000 C 
BRANCH  11  12
ATOM     12  N   UNL     1       4.842   4.665  19.294  0.00  0.00    +0.000 N 
ATOM     13  C   UNL     1       5.262   3.410  19.306  0.00  0.00    +0.000 A 
ATOM     14  S   UNL     1       4.103   2.379  20.024  0.00  0.00    +0.000 S 
ATOM     15  C   UNL     1       2.999   3.681  20.257  0.00  0.00    +0.000 A 
ATOM     16  C   UNL     1       3.529   4.840  19.722  0.00  0.00    +0.000 A 
ATOM     17  C   UNL     1       2.903   6.176  19.621  0.00  0.00    +0.000 C 
BRANCH  15  18
ATOM     18  C   UNL     1       1.709   3.451  21.007  0.00  0.00    +0.000 C 
BRANCH  18  19
ATOM     19  C   UNL     1       0.468   3.292  20.133  0.00  0.00    +0.000 C 
ATOM     20 CL   UNL     1       0.849   2.558  18.558  0.00  0.00    +0.000 Cl
ENDBRANCH  18  19
ENDBRANCH  15  18
ENDBRANCH  11  12
ENDBRANCH   5  11
TORSDOF 5
ENDMDL
MODEL 6
REMARK VINA RESULT:      -5.9      1.026      1.084
REMARK  Name = 
REMARK  7 active torsions:
REMARK  status: ('A' for Active; 'I' for Inactive)
REMARK    1  A    between atoms: C_1  and  C_2
REMARK    2  A    between atoms: C_5  and  C_6
REMARK    3  A    between atoms: C_6  and  N_7
REMARK    4  A    between atoms: C_10  and  C_11
REMARK    5  A    between atoms: C_11  and  C_12
REMARK    6  A    between atoms: C_14  and  C_15
REMARK    7  A    between atoms: C_16  and  N_17
REMARK                            x       y       z     vdW  Elec       q    Type
REMARK                         _______ _______ _______ _____ _____    ______ ____
ROOT
ATOM      1  C   UNL     1       7.022   4.161  12.866  0.00  0.00    +0.000 C 
ATOM      2  C   UNL     1       6.705   4.447  14.298  0.00  0.00    +0.000 A 
ATOM      3  N   UNL     1       5.799   3.671  14.911  0.00  0.00    +0.000 NA
ATOM      4  C   UNL     1       5.492   4.003  16.174  0.00  0.00    +0.000 A 
ATOM      5  C   UNL     1       6.031   5.080  16.855  0.00  0.00    +0.000 A 
ATOM      6  C   UNL     1       6.986   5.777  16.142  0.00  0.00    +0.000 A 
ATOM      7  N   UNL     1       7.309   5.497  14.872  0.00  0.00    +0.000 NA
ENDROOT
BRANCH   6   8
ATOM      8  N   UNL     1       7.677   6.847  16.716  0.00  0.00    +0.000 N 
ATOM      9  H   UNL     1       8.435   6.468  17.327  0.00  0.00    +0.000 HD
ATOM     10  H   UNL     1       8.189   7.296  15.954  0.00  0.00    +0.000 HD
ENDBRANCH   6   8
BRANCH   5  11
ATOM     11  C   UNL     1       5.532   5.597  18.174  0.00  0.00    +0.000 C 
BRANCH  11  12
ATOM     12  N   UNL     1       4.677   4.618  18.881  0.00  0.00    +0.000 N 
ATOM     13  C   UNL     1       5.173   3.468  19.307  0.00  0.00    +0.000 A 
ATOM     14  S   UNL     1       4.029   2.612  20.246  0.00  0.00    +0.000 S 
ATOM     15  C   UNL     1       2.830   3.825  20.000  0.00  0.00    +0.000 A 
ATOM     16  C   UNL     1       3.325   4.805  19.160  0.00  0.00    +0.000 A 
ATOM     17  C   UNL     1       2.625   5.987  18.614  0.00  0.00    +0.000 C 
BRANCH  15  18
ATOM     18  C   UNL     1       1.502   3.727  20.712  0.00  0.00    +0.000 C 
BRANCH  18  19
ATOM     19  C   UNL     1       0.335   3.256  19.849  0.00  0.00    +0.000 C 
ATOM     20 CL   UNL     1       0.856   2.129  18.575  0.00  0.00    +0.000 Cl
ENDBRANCH  18  19
ENDBRANCH  15  18
ENDBRANCH  11  12
ENDBRANCH   5  11
TORSDOF 5
ENDMDL
MODEL 7
REMARK VINA RESULT:      -5.8      2.286      3.296
REMARK  Name = 
REMARK  7 active torsions:
REMARK  status: ('A' for Active; 'I' for Inactive)
REMARK    1  A    between atoms: C_1  and  C_2
REMARK    2  A    between atoms: C_5  and  C_6
REMARK    3  A    between atoms: C_6  and  N_7
REMARK    4  A    between atoms: C_10  and  C_11
REMARK    5  A    between atoms: C_11  and  C_12
REMARK    6  A    between atoms: C_14  and  C_15
REMARK    7  A    between atoms: C_16  and  N_17
REMARK                            x       y       z     vdW  Elec       q    Type
REMARK                         _______ _______ _______ _____ _____    ______ ____
ROOT
ATOM      1  C   UNL     1       8.548   8.600  18.158  0.00  0.00    +0.000 C 
ATOM      2  C   UNL     1       7.631   7.436  17.967  0.00  0.00    +0.000 A 
ATOM      3  N   UNL     1       7.612   6.486  18.914  0.00  0.00    +0.000 NA
ATOM      4  C   UNL     1       6.827   5.425  18.672  0.00  0.00    +0.000 A 
ATOM      5  C   UNL     1       6.070   5.254  17.527  0.00  0.00    +0.000 A 
ATOM      6  C   UNL     1       6.131   6.315  16.647  0.00  0.00    +0.000 A 
ATOM      7  N   UNL     1       6.917   7.385  16.834  0.00  0.00    +0.000 NA
ENDROOT
BRANCH   6   8
ATOM      8  N   UNL     1       5.367   6.329  15.477  0.00  0.00    +0.000 N 
ATOM      9  H   UNL     1       5.356   7.302  15.095  0.00  0.00    +0.000 HD
ATOM     10  H   UNL     1       5.903   5.807  14.781  0.00  0.00    +0.000 HD
ENDBRANCH   6   8
BRANCH   5  11
ATOM     11  C   UNL     1       5.374   3.979  17.142  0.00  0.00    +0.000 C 
BRANCH  11  12
ATOM     12  N   UNL     1       4.020   3.872  17.728  0.00  0.00    +0.000 N 
ATOM     13  C   UNL     1       3.003   4.545  17.213  0.00  0.00    +0.000 A 
ATOM     14  S   UNL     1       1.529   4.101  17.956  0.00  0.00    +0.000 S 
ATOM     15  C   UNL     1       2.328   3.019  19.033  0.00  0.00    +0.000 A 
ATOM     16  C   UNL     1       3.694   3.083  18.829  0.00  0.00    +0.000 A 
ATOM     17  C   UNL     1       4.768   2.395  19.575  0.00  0.00    +0.000 C 
BRANCH  15  18
ATOM     18  C   UNL     1       1.519   2.148  19.964  0.00  0.00    +0.000 C 
BRANCH  18  19
ATOM     19  C   UNL     1       1.224   2.757  21.332  0.00  0.00    +0.000 C 
ATOM     20 CL   UNL     1       2.256   4.166  21.674  0.00  0.00    +0.000 Cl
ENDBRANCH  18  19
ENDBRANCH  15  18
ENDBRANCH  11  12
ENDBRANCH   5  11
TORSDOF 5
ENDMDL
MODEL 8
REMARK VINA RESULT:      -5.8      2.108      2.632
REMARK  Name = 
REMARK  7 active torsions:
REMARK  status: ('A' for Active; 'I' for Inactive)
REMARK    1  A    between atoms: C_1  and  C_2
REMARK    2  A    between atoms: C_5  and  C_6
REMARK    3  A    between atoms: C_6  and  N_7
REMARK    4  A    between atoms: C_10  and  C_11
REMARK    5  A    between atoms: C_11  and  C_12
REMARK    6  A    between atoms: C_14  and  C_15
REMARK    7  A    between atoms: C_16  and  N_17
REMARK                            x       y       z     vdW  Elec       q    Type
REMARK                         _______ _______ _______ _____ _____    ______ ____
ROOT
ATOM      1  C   UNL     1       7.975   8.247  17.711  0.00  0.00    +0.000 C 
ATOM      2  C   UNL     1       6.951   7.263  17.246  0.00  0.00    +0.000 A 
ATOM      3  N   UNL     1       5.694   7.401  17.693  0.00  0.00    +0.000 NA
ATOM      4  C   UNL     1       4.821   6.458  17.307  0.00  0.00    +0.000 A 
ATOM      5  C   UNL     1       5.140   5.375  16.507  0.00  0.00    +0.000 A 
ATOM      6  C   UNL     1       6.448   5.363  16.068  0.00  0.00    +0.000 A 
ATOM      7  N   UNL     1       7.361   6.269  16.446  0.00  0.00    +0.000 NA
ENDROOT
BRANCH   6   8
ATOM      8  N   UNL     1       6.909   4.375  15.194  0.00  0.00    +0.000 N 
ATOM      9  H   UNL     1       7.722   3.889  15.636  0.00  0.00    +0.000 HD
ATOM     10  H   UNL     1       6.184   3.655  15.172  0.00  0.00    +0.000 HD
ENDBRANCH   6   8
BRANCH   5  11
ATOM     11  C   UNL     1       4.238   4.199  16.258  0.00  0.00    +0.000 C 
BRANCH  11  12
ATOM     12  N   UNL     1       3.894   3.474  17.501  0.00  0.00    +0.000 N 
ATOM     13  C   UNL     1       4.796   2.736  18.127  0.00  0.00    +0.000 A 
ATOM     14  S   UNL     1       4.197   2.163  19.621  0.00  0.00    +0.000 S 
ATOM     15  C   UNL     1       2.661   2.898  19.355  0.00  0.00    +0.000 A 
ATOM     16  C   UNL     1       2.642   3.499  18.111  0.00  0.00    +0.000 A 
ATOM     17  C   UNL     1       1.515   4.174  17.433  0.00  0.00    +0.000 C 
BRANCH  15  18
ATOM     18  C   UNL     1       1.611   2.862  20.439  0.00  0.00    +0.000 C 
BRANCH  18  19
ATOM     19  C   UNL     1       1.747   3.938  21.513  0.00  0.00    +0.000 C 
ATOM     20 CL   UNL     1       1.705   5.578  20.826  0.00  0.00    +0.000 Cl
ENDBRANCH  18  19
ENDBRANCH  15  18
ENDBRANCH  11  12
ENDBRANCH   5  11
TORSDOF 5
ENDMDL
MODEL 9
REMARK VINA RESULT:      -5.7      3.672      6.576
REMARK  Name = 
REMARK  7 active torsions:
REMARK  status: ('A' for Active; 'I' for Inactive)
REMARK    1  A    between atoms: C_1  and  C_2
REMARK    2  A    between atoms: C_5  and  C_6
REMARK    3  A    between atoms: C_6  and  N_7
REMARK    4  A    between atoms: C_10  and  C_11
REMARK    5  A    between atoms: C_11  and  C_12
REMARK    6  A    between atoms: C_14  and  C_15
REMARK    7  A    between atoms: C_16  and  N_17
REMARK                            x       y       z     vdW  Elec       q    Type
REMARK                         _______ _______ _______ _____ _____    ______ ____
ROOT
ATOM      1  C   UNL     1       1.071   2.483  22.189  0.00  0.00    +0.000 C 
ATOM      2  C   UNL     1       1.844   2.950  20.998  0.00  0.00    +0.000 A 
ATOM      3  N   UNL     1       2.482   4.127  21.082  0.00  0.00    +0.000 NA
ATOM      4  C   UNL     1       3.106   4.542  19.970  0.00  0.00    +0.000 A 
ATOM      5  C   UNL     1       3.117   3.851  18.771  0.00  0.00    +0.000 A 
ATOM      6  C   UNL     1       2.470   2.632  18.818  0.00  0.00    +0.000 A 
ATOM      7  N   UNL     1       1.813   2.187  19.898  0.00  0.00    +0.000 NA
ENDROOT
BRANCH   6   8
ATOM      8  N   UNL     1       2.453   1.781  17.710  0.00  0.00    +0.000 N 
ATOM      9  H   UNL     1       3.407   1.371  17.588  0.00  0.00    +0.000 HD
ATOM     10  H   UNL     1       1.882   0.977  17.978  0.00  0.00    +0.000 HD
ENDBRANCH   6   8
BRANCH   5  11
ATOM     11  C   UNL     1       3.611   4.406  17.466  0.00  0.00    +0.000 C 
BRANCH  11  12
ATOM     12  N   UNL     1       4.963   4.997  17.576  0.00  0.00    +0.000 N 
ATOM     13  C   UNL     1       6.031   4.227  17.707  0.00  0.00    +0.000 A 
ATOM     14  S   UNL     1       7.469   5.147  17.624  0.00  0.00    +0.000 S 
ATOM     15  C   UNL     1       6.590   6.620  17.468  0.00  0.00    +0.000 A 
ATOM     16  C   UNL     1       5.234   6.363  17.548  0.00  0.00    +0.000 A 
ATOM     17  C   UNL     1       4.114   7.328  17.545  0.00  0.00    +0.000 C 
BRANCH  15  18
ATOM     18  C   UNL     1       7.326   7.916  17.224  0.00  0.00    +0.000 C 
BRANCH  18  19
ATOM     19  C   UNL     1       8.347   8.295  18.292  0.00  0.00    +0.000 C 
ATOM     20 CL   UNL     1       8.768  10.023  18.232  0.00  0.00    +0.000 Cl
ENDBRANCH  18  19
ENDBRANCH  15  18
ENDBRANCH  11  12
ENDBRANCH   5  11
TORSDOF 5
ENDMDL
