MODEL 1
REMARK VINA RESULT:      -7.9      0.000      0.000
REMARK  Name = 
REMARK  7 active torsions:
REMARK  status: ('A' for Active; 'I' for Inactive)
REMARK    1  A    between atoms: C_1  and  C_2
REMARK    2  A    between atoms: C_2  and  O_3
REMARK    3  A    between atoms: O_3  and  C_4
REMARK    4  A    between atoms: C_4  and  C_6
REMARK    5  A    between atoms: C_13  and  C_14
REMARK    6  A    between atoms: C_24  and  N_25
REMARK    7  A    between atoms: N_26  and  C_27
REMARK                            x       y       z     vdW  Elec       q    Type
REMARK                         _______ _______ _______ _____ _____    ______ ____
ROOT
ATOM      1  C   UNL     1       1.072  10.676  20.305  0.00  0.00    +0.000 C 
ATOM      2  C   UNL     1      -0.230  10.604  21.107  0.00  0.00    +0.000 C 
ATOM      3  C   UNL     1      -0.301   9.323  21.943  0.00  0.00    +0.000 C 
ATOM      4  C   UNL     1      -0.007   8.070  21.114  0.00  0.00    +0.000 C 
ATOM      5  N   UNL     1       1.273   8.257  20.439  0.00  0.00    +0.000 N 
ATOM      6  C   UNL     1       1.981   7.113  20.084  0.00  0.00    +0.000 A 
ATOM      7  N   UNL     1       2.895   7.253  19.074  0.00  0.00    +0.000 NA
ATOM      8  C   UNL     1       3.706   6.229  18.702  0.00  0.00    +0.000 A 
ATOM      9  C   UNL     1       3.553   5.079  19.478  0.00  0.00    +0.000 A 
ATOM     10  C   UNL     1       4.276   3.895  19.508  0.00  0.00    +0.000 A 
ATOM     11  N   UNL     1       3.591   3.113  20.419  0.00  0.00    +0.000 N 
ATOM     12  C   UNL     1       3.822   1.723  20.733  0.00  0.00    +0.000 C 
ATOM     13  N   UNL     1       2.602   3.763  21.070  0.00  0.00    +0.000 NA
ATOM     14  C   UNL     1       2.584   4.970  20.499  0.00  0.00    +0.000 A 
ATOM     15  N   UNL     1       1.765   5.992  20.817  0.00  0.00    +0.000 NA
ATOM     16  C   UNL     1       1.326   9.391  19.514  0.00  0.00    +0.000 C 
ENDROOT
BRANCH   8  17
ATOM     17  C   UNL     1       4.687   6.425  17.646  0.00  0.00    +0.000 A 
ATOM     18  C   UNL     1       6.004   6.850  17.962  0.00  0.00    +0.000 A 
ATOM     19  C   UNL     1       7.065   6.612  17.083  0.00  0.00    +0.000 A 
ATOM     20  C   UNL     1       6.771   5.908  15.940  0.00  0.00    +0.000 A 
ATOM     21  C   UNL     1       5.474   5.641  15.563  0.00  0.00    +0.000 A 
ATOM     22  C   UNL     1       4.403   5.981  16.347  0.00  0.00    +0.000 A 
ATOM     23  O   UNL     1       5.412   4.779  14.507  0.00  0.00    +0.000 OA
ATOM     24  C   UNL     1       6.759   4.275  14.564  0.00  0.00    +0.000 C 
ATOM     25  O   UNL     1       7.663   5.231  15.160  0.00  0.00    +0.000 OA
ENDBRANCH   8  17
BRANCH  10  26
ATOM     26  N   UNL     1       5.380   3.455  18.866  0.00  0.00    +0.000 N 
ATOM     27  H   UNL     1       5.657   2.477  18.927  0.00  0.00    +0.000 HD
ATOM     28  H   UNL     1       5.786   3.906  18.050  0.00  0.00    +0.000 HD
ENDBRANCH  10  26
BRANCH   1  29
ATOM     29  C   UNL     1       1.108  11.852  19.351  0.00  0.00    +0.000 C 
ATOM     30  O   UNL     1       2.053  12.146  18.634  0.00  0.00    +0.000 OA
BRANCH  29  31
ATOM     31  O   UNL     1      -0.025  12.593  19.503  0.00  0.00    +0.000 OA
BRANCH  31  33
ATOM     32  C   UNL     1      -1.668  11.876  17.930  0.00  0.00    +0.000 C 
ATOM     33  C   UNL     1      -0.673  12.969  18.280  0.00  0.00    +0.000 C 
ENDBRANCH  31  33
ENDBRANCH  29  31
ENDBRANCH   1  29
TORSDOF 5
ENDMDL
MODEL 2
REMARK VINA RESULT:      -7.7      0.779      1.260
REMARK  Name = 
REMARK  7 active torsions:
REMARK  status: ('A' for Active; 'I' for Inactive)
REMARK    1  A    between atoms: C_1  and  C_2
REMARK    2  A    between atoms: C_2  and  O_3
REMARK    3  A    between atoms: O_3  and  C_4
REMARK    4  A    between atoms: C_4  and  C_6
REMARK    5  A    between atoms: C_13  and  C_14
REMARK    6  A    between atoms: C_24  and  N_25
REMARK    7  A    between atoms: N_26  and  C_27
REMARK                            x       y       z     vdW  Elec       q    Type
REMARK                         _______ _______ _______ _____ _____    ______ ____
ROOT
ATOM      1  C   UNL     1       0.928  10.693  20.316  0.00  0.00    +0.000 C 
ATOM      2  C   UNL     1      -0.365  10.602  21.129  0.00  0.00    +0.000 C 
ATOM      3  C   UNL     1      -0.405   9.324  21.974  0.00  0.00    +0.000 C 
ATOM      4  C   UNL     1      -0.094   8.073  21.150  0.00  0.00    +0.000 C 
ATOM      5  N   UNL     1       1.176   8.279  20.462  0.00  0.00    +0.000 N 
ATOM      6  C   UNL     1       1.903   7.147  20.108  0.00  0.00    +0.000 A 
ATOM      7  N   UNL     1       2.805   7.299  19.089  0.00  0.00    +0.000 NA
ATOM      8  C   UNL     1       3.632   6.288  18.716  0.00  0.00    +0.000 A 
ATOM      9  C   UNL     1       3.508   5.140  19.500  0.00  0.00    +0.000 A 
ATOM     10  C   UNL     1       4.253   3.970  19.530  0.00  0.00    +0.000 A 
ATOM     11  N   UNL     1       3.592   3.181  20.452  0.00  0.00    +0.000 N 
ATOM     12  C   UNL     1       3.852   1.797  20.773  0.00  0.00    +0.000 C 
ATOM     13  N   UNL     1       2.596   3.816  21.108  0.00  0.00    +0.000 NA
ATOM     14  C   UNL     1       2.550   5.018  20.530  0.00  0.00    +0.000 A 
ATOM     15  N   UNL     1       1.714   6.027  20.849  0.00  0.00    +0.000 NA
ATOM     16  C   UNL     1       1.200   9.409  19.530  0.00  0.00    +0.000 C 
ENDROOT
BRANCH   8  17
ATOM     17  C   UNL     1       4.600   6.496  17.651  0.00  0.00    +0.000 A 
ATOM     18  C   UNL     1       5.888   7.018  17.944  0.00  0.00    +0.000 A 
ATOM     19  C   UNL     1       6.963   6.807  17.075  0.00  0.00    +0.000 A 
ATOM     20  C   UNL     1       6.715   6.033  15.966  0.00  0.00    +0.000 A 
ATOM     21  C   UNL     1       5.438   5.667  15.604  0.00  0.00    +0.000 A 
ATOM     22  C   UNL     1       4.346   5.974  16.374  0.00  0.00    +0.000 A 
ATOM     23  O   UNL     1       5.432   4.754  14.590  0.00  0.00    +0.000 OA
ATOM     24  C   UNL     1       6.808   4.340  14.668  0.00  0.00    +0.000 C 
ATOM     25  O   UNL     1       7.649   5.378  15.218  0.00  0.00    +0.000 OA
ENDBRANCH   8  17
BRANCH  10  26
ATOM     26  N   UNL     1       5.360   3.547  18.881  0.00  0.00    +0.000 N 
ATOM     27  H   UNL     1       5.926   4.202  18.345  0.00  0.00    +0.000 HD
ATOM     28  H   UNL     1       5.891   2.718  19.136  0.00  0.00    +0.000 HD
ENDBRANCH  10  26
BRANCH   1  29
ATOM     29  C   UNL     1       0.933  11.864  19.355  0.00  0.00    +0.000 C 
ATOM     30  O   UNL     1       0.064  12.097  18.527  0.00  0.00    +0.000 OA
BRANCH  29  31
ATOM     31  O   UNL     1       2.106  12.546  19.477  0.00  0.00    +0.000 OA
BRANCH  31  33
ATOM     32  C   UNL     1       3.049  14.405  18.319  0.00  0.00    +0.000 C 
ATOM     33  C   UNL     1       2.720  12.924  18.237  0.00  0.00    +0.000 C 
ENDBRANCH  31  33
ENDBRANCH  29  31
ENDBRANCH   1  29
TORSDOF 5
ENDMDL
MODEL 3
REMARK VINA RESULT:      -7.6      0.908      1.043
REMARK  Name = 
REMARK  7 active torsions:
REMARK  status: ('A' for Active; 'I' for Inactive)
REMARK    1  A    between atoms: C_1  and  C_2
REMARK    2  A    between atoms: C_2  and  O_3
REMARK    3  A    between atoms: O_3  and  C_4
REMARK    4  A    between atoms: C_4  and  C_6
REMARK    5  A    between atoms: C_13  and  C_14
REMARK    6  A    between atoms: C_24  and  N_25
REMARK    7  A    between atoms: N_26  and  C_27
REMARK                            x       y       z     vdW  Elec       q    Type
REMARK                         _______ _______ _______ _____ _____    ______ ____
ROOT
ATOM      1  C   UNL     1       1.368  11.254  19.637  0.00  0.00    +0.000 C 
ATOM      2  C   UNL     1       0.019  11.365  20.353  0.00  0.00    +0.000 C 
ATOM      3  C   UNL     1      -0.220  10.173  21.284  0.00  0.00    +0.000 C 
ATOM      4  C   UNL     1       0.007   8.832  20.581  0.00  0.00    +0.000 C 
ATOM      5  N   UNL     1       1.337   8.847  19.981  0.00  0.00    +0.000 N 
ATOM      6  C   UNL     1       1.956   7.620  19.769  0.00  0.00    +0.000 A 
ATOM      7  N   UNL     1       2.938   7.592  18.814  0.00  0.00    +0.000 NA
ATOM      8  C   UNL     1       3.671   6.473  18.583  0.00  0.00    +0.000 A 
ATOM      9  C   UNL     1       3.367   5.412  19.437  0.00  0.00    +0.000 A 
ATOM     10  C   UNL     1       3.975   4.177  19.612  0.00  0.00    +0.000 A 
ATOM     11  N   UNL     1       3.168   3.540  20.536  0.00  0.00    +0.000 N 
ATOM     12  C   UNL     1       3.250   2.167  20.977  0.00  0.00    +0.000 C 
ATOM     13  N   UNL     1       2.205   4.327  21.063  0.00  0.00    +0.000 NA
ATOM     14  C   UNL     1       2.333   5.476  20.396  0.00  0.00    +0.000 A 
ATOM     15  N   UNL     1       1.594   6.590  20.574  0.00  0.00    +0.000 NA
ATOM     16  C   UNL     1       1.549   9.887  18.973  0.00  0.00    +0.000 C 
ENDROOT
BRANCH   8  17
ATOM     17  C   UNL     1       4.728   6.490  17.583  0.00  0.00    +0.000 A 
ATOM     18  C   UNL     1       6.077   6.704  17.970  0.00  0.00    +0.000 A 
ATOM     19  C   UNL     1       7.133   6.283  17.155  0.00  0.00    +0.000 A 
ATOM     20  C   UNL     1       6.792   5.615  16.003  0.00  0.00    +0.000 A 
ATOM     21  C   UNL     1       5.492   5.553  15.554  0.00  0.00    +0.000 A 
ATOM     22  C   UNL     1       4.448   6.074  16.274  0.00  0.00    +0.000 A 
ATOM     23  O   UNL     1       5.350   4.693  14.504  0.00  0.00    +0.000 OA
ATOM     24  C   UNL     1       6.593   3.981  14.642  0.00  0.00    +0.000 C 
ATOM     25  O   UNL     1       7.605   4.790  15.281  0.00  0.00    +0.000 OA
ENDBRANCH   8  17
BRANCH  10  26
ATOM     26  N   UNL     1       5.070   3.588  19.084  0.00  0.00    +0.000 N 
ATOM     27  H   UNL     1       5.027   2.629  18.745  0.00  0.00    +0.000 HD
ATOM     28  H   UNL     1       5.849   4.095  18.670  0.00  0.00    +0.000 HD
ENDBRANCH  10  26
BRANCH   1  29
ATOM     29  C   UNL     1       1.568  12.335  18.596  0.00  0.00    +0.000 C 
ATOM     30  O   UNL     1       2.552  12.444  17.878  0.00  0.00    +0.000 OA
BRANCH  29  31
ATOM     31  O   UNL     1       0.542  13.227  18.665  0.00  0.00    +0.000 OA
BRANCH  31  33
ATOM     32  C   UNL     1      -0.325  15.401  19.122  0.00  0.00    +0.000 C 
ATOM     33  C   UNL     1       0.935  14.590  18.880  0.00  0.00    +0.000 C 
ENDBRANCH  31  33
ENDBRANCH  29  31
ENDBRANCH   1  29
TORSDOF 5
ENDMDL
MODEL 4
REMARK VINA RESULT:      -7.1      2.997      5.086
REMARK  Name = 
REMARK  7 active torsions:
REMARK  status: ('A' for Active; 'I' for Inactive)
REMARK    1  A    between atoms: C_1  and  C_2
REMARK    2  A    between atoms: C_2  and  O_3
REMARK    3  A    between atoms: O_3  and  C_4
REMARK    4  A    between atoms: C_4  and  C_6
REMARK    5  A    between atoms: C_13  and  C_14
REMARK    6  A    between atoms: C_24  and  N_25
REMARK    7  A    between atoms: N_26  and  C_27
REMARK                            x       y       z     vdW  Elec       q    Type
REMARK                         _______ _______ _______ _____ _____    ______ ____
ROOT
ATOM      1  C   UNL     1       0.429   9.471  19.595  0.00  0.00    +0.000 C 
ATOM      2  C   UNL     1       0.738  10.925  19.229  0.00  0.00    +0.000 C 
ATOM      3  C   UNL     1       1.558  11.015  17.938  0.00  0.00    +0.000 C 
ATOM      4  C   UNL     1       2.786  10.102  17.964  0.00  0.00    +0.000 C 
ATOM      5  N   UNL     1       2.345   8.748  18.283  0.00  0.00    +0.000 N 
ATOM      6  C   UNL     1       3.148   7.697  17.853  0.00  0.00    +0.000 A 
ATOM      7  N   UNL     1       3.011   6.513  18.529  0.00  0.00    +0.000 NA
ATOM      8  C   UNL     1       3.677   5.395  18.143  0.00  0.00    +0.000 A 
ATOM      9  C   UNL     1       4.440   5.563  16.986  0.00  0.00    +0.000 A 
ATOM     10  C   UNL     1       5.136   4.648  16.210  0.00  0.00    +0.000 A 
ATOM     11  N   UNL     1       5.756   5.430  15.254  0.00  0.00    +0.000 N 
ATOM     12  C   UNL     1       6.728   5.012  14.271  0.00  0.00    +0.000 C 
ATOM     13  N   UNL     1       5.382   6.727  15.275  0.00  0.00    +0.000 NA
ATOM     14  C   UNL     1       4.569   6.807  16.332  0.00  0.00    +0.000 A 
ATOM     15  N   UNL     1       3.926   7.911  16.764  0.00  0.00    +0.000 NA
ATOM     16  C   UNL     1       1.688   8.601  19.584  0.00  0.00    +0.000 C 
ENDROOT
BRANCH   8  17
ATOM     17  C   UNL     1       3.482   4.146  18.865  0.00  0.00    +0.000 A 
ATOM     18  C   UNL     1       4.571   3.525  19.529  0.00  0.00    +0.000 A 
ATOM     19  C   UNL     1       4.354   2.623  20.575  0.00  0.00    +0.000 A 
ATOM     20  C   UNL     1       3.048   2.419  20.950  0.00  0.00    +0.000 A 
ATOM     21  C   UNL     1       1.993   2.895  20.204  0.00  0.00    +0.000 A 
ATOM     22  C   UNL     1       2.181   3.677  19.094  0.00  0.00    +0.000 A 
ATOM     23  O   UNL     1       0.799   2.744  20.846  0.00  0.00    +0.000 OA
ATOM     24  C   UNL     1       1.299   2.501  22.174  0.00  0.00    +0.000 C 
ATOM     25  O   UNL     1       2.623   1.924  22.148  0.00  0.00    +0.000 OA
ENDBRANCH   8  17
BRANCH  10  26
ATOM     26  N   UNL     1       5.285   3.306  16.251  0.00  0.00    +0.000 N 
ATOM     27  H   UNL     1       5.043   2.785  17.092  0.00  0.00    +0.000 HD
ATOM     28  H   UNL     1       5.290   2.705  15.430  0.00  0.00    +0.000 HD
ENDBRANCH  10  26
BRANCH   1  29
ATOM     29  C   UNL     1      -0.246   9.338  20.944  0.00  0.00    +0.000 C 
ATOM     30  O   UNL     1      -0.510   8.279  21.495  0.00  0.00    +0.000 OA
BRANCH  29  31
ATOM     31  O   UNL     1      -0.616  10.571  21.390  0.00  0.00    +0.000 OA
BRANCH  31  33
ATOM     32  C   UNL     1      -1.889  11.657  23.088  0.00  0.00    +0.000 C 
ATOM     33  C   UNL     1      -0.756  10.685  22.813  0.00  0.00    +0.000 C 
ENDBRANCH  31  33
ENDBRANCH  29  31
ENDBRANCH   1  29
TORSDOF 5
ENDMDL
MODEL 5
REMARK VINA RESULT:      -6.3      6.881      9.054
REMARK  Name = 
REMARK  7 active torsions:
REMARK  status: ('A' for Active; 'I' for Inactive)
REMARK    1  A    between atoms: C_1  and  C_2
REMARK    2  A    between atoms: C_2  and  O_3
REMARK    3  A    between atoms: O_3  and  C_4
REMARK    4  A    between atoms: C_4  and  C_6
REMARK    5  A    between atoms: C_13  and  C_14
REMARK    6  A    between atoms: C_24  and  N_25
REMARK    7  A    between atoms: N_26  and  C_27
REMARK                            x       y       z     vdW  Elec       q    Type
REMARK                         _______ _______ _______ _____ _____    ______ ____
ROOT
ATOM      1  C   UNL     1      -3.747  14.173  23.793  0.00  0.00    +0.000 C 
ATOM      2  C   UNL     1      -3.437  14.784  25.161  0.00  0.00    +0.000 C 
ATOM      3  C   UNL     1      -2.167  15.640  25.118  0.00  0.00    +0.000 C 
ATOM      4  C   UNL     1      -0.989  14.897  24.482  0.00  0.00    +0.000 C 
ATOM      5  N   UNL     1      -1.407  14.405  23.174  0.00  0.00    +0.000 N 
ATOM      6  C   UNL     1      -0.414  14.188  22.225  0.00  0.00    +0.000 A 
ATOM      7  N   UNL     1      -0.718  13.313  21.216  0.00  0.00    +0.000 NA
ATOM      8  C   UNL     1       0.139  13.090  20.187  0.00  0.00    +0.000 A 
ATOM      9  C   UNL     1       1.296  13.869  20.237  0.00  0.00    +0.000 A 
ATOM     10  C   UNL     1       2.325  14.036  19.322  0.00  0.00    +0.000 A 
ATOM     11  N   UNL     1       3.218  14.864  19.976  0.00  0.00    +0.000 N 
ATOM     12  C   UNL     1       4.541  15.247  19.543  0.00  0.00    +0.000 C 
ATOM     13  N   UNL     1       2.761  15.348  21.151  0.00  0.00    +0.000 NA
ATOM     14  C   UNL     1       1.580  14.745  21.307  0.00  0.00    +0.000 A 
ATOM     15  N   UNL     1       0.726  14.914  22.336  0.00  0.00    +0.000 NA
ATOM     16  C   UNL     1      -2.529  13.464  23.196  0.00  0.00    +0.000 C 
ENDROOT
BRANCH   8  17
ATOM     17  C   UNL     1      -0.233  12.179  19.115  0.00  0.00    +0.000 A 
ATOM     18  C   UNL     1       0.219  10.833  19.130  0.00  0.00    +0.000 A 
ATOM     19  C   UNL     1      -0.458   9.841  18.414  0.00  0.00    +0.000 A 
ATOM     20  C   UNL     1      -1.597  10.230  17.750  0.00  0.00    +0.000 A 
ATOM     21  C   UNL     1      -1.939  11.555  17.606  0.00  0.00    +0.000 A 
ATOM     22  C   UNL     1      -1.216  12.562  18.192  0.00  0.00    +0.000 A 
ATOM     23  O   UNL     1      -3.189  11.710  17.082  0.00  0.00    +0.000 OA
ATOM     24  C   UNL     1      -3.680  10.375  17.302  0.00  0.00    +0.000 C 
ATOM     25  O   UNL     1      -2.605   9.410  17.336  0.00  0.00    +0.000 OA
ENDBRANCH   8  17
BRANCH  10  26
ATOM     26  N   UNL     1       2.555  13.570  18.075  0.00  0.00    +0.000 N 
ATOM     27  H   UNL     1       2.874  12.614  17.932  0.00  0.00    +0.000 HD
ATOM     28  H   UNL     1       2.125  13.948  17.234  0.00  0.00    +0.000 HD
ENDBRANCH  10  26
BRANCH   1  29
ATOM     29  C   UNL     1      -4.907  13.200  23.835  0.00  0.00    +0.000 C 
ATOM     30  O   UNL     1      -4.943  12.180  24.508  0.00  0.00    +0.000 OA
BRANCH  29  31
ATOM     31  O   UNL     1      -5.848  13.576  22.925  0.00  0.00    +0.000 OA
BRANCH  31  33
ATOM     32  C   UNL     1      -7.251  12.249  21.527  0.00  0.00    +0.000 C 
ATOM     33  C   UNL     1      -5.854  12.815  21.709  0.00  0.00    +0.000 C 
ENDBRANCH  31  33
ENDBRANCH  29  31
ENDBRANCH   1  29
TORSDOF 5
ENDMDL
MODEL 6
REMARK VINA RESULT:      -6.3      6.818      8.906
REMARK  Name = 
REMARK  7 active torsions:
REMARK  status: ('A' for Active; 'I' for Inactive)
REMARK    1  A    between atoms: C_1  and  C_2
REMARK    2  A    between atoms: C_2  and  O_3
REMARK    3  A    between atoms: O_3  and  C_4
REMARK    4  A    between atoms: C_4  and  C_6
REMARK    5  A    between atoms: C_13  and  C_14
REMARK    6  A    between atoms: C_24  and  N_25
REMARK    7  A    between atoms: N_26  and  C_27
REMARK                            x       y       z     vdW  Elec       q    Type
REMARK                         _______ _______ _______ _____ _____    ______ ____
ROOT
ATOM      1  C   UNL     1      -5.592  13.491  22.438  0.00  0.00    +0.000 C 
ATOM      2  C   UNL     1      -5.686  13.925  23.903  0.00  0.00    +0.000 C 
ATOM      3  C   UNL     1      -4.418  14.659  24.351  0.00  0.00    +0.000 C 
ATOM      4  C   UNL     1      -3.145  13.882  24.009  0.00  0.00    +0.000 C 
ATOM      5  N   UNL     1      -3.166  13.570  22.584  0.00  0.00    +0.000 N 
ATOM      6  C   UNL     1      -1.942  13.362  21.957  0.00  0.00    +0.000 A 
ATOM      7  N   UNL     1      -1.969  12.630  20.800  0.00  0.00    +0.000 NA
ATOM      8  C   UNL     1      -0.850  12.437  20.055  0.00  0.00    +0.000 A 
ATOM      9  C   UNL     1       0.277  13.097  20.548  0.00  0.00    +0.000 A 
ATOM     10  C   UNL     1       1.546  13.263  20.013  0.00  0.00    +0.000 A 
ATOM     11  N   UNL     1       2.238  13.932  21.005  0.00  0.00    +0.000 N 
ATOM     12  C   UNL     1       3.649  14.235  21.041  0.00  0.00    +0.000 C 
ATOM     13  N   UNL     1       1.469  14.331  22.041  0.00  0.00    +0.000 NA
ATOM     14  C   UNL     1       0.266  13.827  21.757  0.00  0.00    +0.000 A 
ATOM     15  N   UNL     1      -0.853  13.965  22.496  0.00  0.00    +0.000 NA
ATOM     16  C   UNL     1      -4.291  12.740  22.148  0.00  0.00    +0.000 C 
ENDROOT
BRANCH   8  17
ATOM     17  C   UNL     1      -0.923  11.681  18.814  0.00  0.00    +0.000 A 
ATOM     18  C   UNL     1      -0.478  10.334  18.768  0.00  0.00    +0.000 A 
ATOM     19  C   UNL     1      -0.937   9.459  17.779  0.00  0.00    +0.000 A 
ATOM     20  C   UNL     1      -1.868   9.959  16.900  0.00  0.00    +0.000 A 
ATOM     21  C   UNL     1      -2.175  11.300  16.848  0.00  0.00    +0.000 A 
ATOM     22  C   UNL     1      -1.637  12.205  17.727  0.00  0.00    +0.000 A 
ATOM     23  O   UNL     1      -3.248  11.553  16.044  0.00  0.00    +0.000 OA
ATOM     24  C   UNL     1      -3.766  10.212  15.954  0.00  0.00    +0.000 C 
ATOM     25  O   UNL     1      -2.728   9.225  16.136  0.00  0.00    +0.000 OA
ENDBRANCH   8  17
BRANCH  10  26
ATOM     26  N   UNL     1       2.123  12.910  18.844  0.00  0.00    +0.000 N 
ATOM     27  H   UNL     1       1.602  12.975  17.971  0.00  0.00    +0.000 HD
ATOM     28  H   UNL     1       3.126  12.907  18.678  0.00  0.00    +0.000 HD
ENDBRANCH  10  26
BRANCH   1  29
ATOM     29  C   UNL     1      -6.760  12.631  22.006  0.00  0.00    +0.000 C 
ATOM     30  O   UNL     1      -7.909  12.752  22.408  0.00  0.00    +0.000 OA
BRANCH  29  31
ATOM     31  O   UNL     1      -6.313  11.632  21.195  0.00  0.00    +0.000 OA
BRANCH  31  33
ATOM     32  C   UNL     1      -6.802  10.894  18.981  0.00  0.00    +0.000 C 
ATOM     33  C   UNL     1      -7.324  10.993  20.403  0.00  0.00    +0.000 C 
ENDBRANCH  31  33
ENDBRANCH  29  31
ENDBRANCH   1  29
TORSDOF 5
ENDMDL
MODEL 7
REMARK VINA RESULT:      -6.2      4.471      8.639
REMARK  Name = 
REMARK  7 active torsions:
REMARK  status: ('A' for Active; 'I' for Inactive)
REMARK    1  A    between atoms: C_1  and  C_2
REMARK    2  A    between atoms: C_2  and  O_3
REMARK    3  A    between atoms: O_3  and  C_4
REMARK    4  A    between atoms: C_4  and  C_6
REMARK    5  A    between atoms: C_13  and  C_14
REMARK    6  A    between atoms: C_24  and  N_25
REMARK    7  A    between atoms: N_26  and  C_27
REMARK                            x       y       z     vdW  Elec       q    Type
REMARK                         _______ _______ _______ _____ _____    ______ ____
ROOT
ATOM      1  C   UNL     1       5.048   3.089  11.607  0.00  0.00    +0.000 C 
ATOM      2  C   UNL     1       6.213   3.563  10.735  0.00  0.00    +0.000 C 
ATOM      3  C   UNL     1       7.480   3.784  11.567  0.00  0.00    +0.000 C 
ATOM      4  C   UNL     1       7.222   4.659  12.796  0.00  0.00    +0.000 C 
ATOM      5  N   UNL     1       6.121   4.074  13.553  0.00  0.00    +0.000 N 
ATOM      6  C   UNL     1       6.060   4.355  14.914  0.00  0.00    +0.000 A 
ATOM      7  N   UNL     1       4.833   4.223  15.508  0.00  0.00    +0.000 NA
ATOM      8  C   UNL     1       4.670   4.385  16.846  0.00  0.00    +0.000 A 
ATOM      9  C   UNL     1       5.860   4.631  17.534  0.00  0.00    +0.000 A 
ATOM     10  C   UNL     1       6.130   4.711  18.892  0.00  0.00    +0.000 A 
ATOM     11  N   UNL     1       7.466   5.059  18.943  0.00  0.00    +0.000 N 
ATOM     12  C   UNL     1       8.238   5.418  20.109  0.00  0.00    +0.000 C 
ATOM     13  N   UNL     1       8.085   5.049  17.742  0.00  0.00    +0.000 NA
ATOM     14  C   UNL     1       7.102   4.779  16.880  0.00  0.00    +0.000 A 
ATOM     15  N   UNL     1       7.224   4.652  15.543  0.00  0.00    +0.000 NA
ATOM     16  C   UNL     1       4.850   3.985  12.831  0.00  0.00    +0.000 C 
ENDROOT
BRANCH   8  17
ATOM     17  C   UNL     1       3.357   4.205  17.446  0.00  0.00    +0.000 A 
ATOM     18  C   UNL     1       2.709   2.944  17.388  0.00  0.00    +0.000 A 
ATOM     19  C   UNL     1       1.711   2.606  18.308  0.00  0.00    +0.000 A 
ATOM     20  C   UNL     1       1.437   3.533  19.285  0.00  0.00    +0.000 A 
ATOM     21  C   UNL     1       1.947   4.810  19.242  0.00  0.00    +0.000 A 
ATOM     22  C   UNL     1       2.831   5.209  18.273  0.00  0.00    +0.000 A 
ATOM     23  O   UNL     1       1.705   5.502  20.393  0.00  0.00    +0.000 OA
ATOM     24  C   UNL     1       1.358   4.390  21.239  0.00  0.00    +0.000 C 
ATOM     25  O   UNL     1       0.823   3.285  20.478  0.00  0.00    +0.000 OA
ENDBRANCH   8  17
BRANCH  10  26
ATOM     26  N   UNL     1       5.387   4.536  20.007  0.00  0.00    +0.000 N 
ATOM     27  H   UNL     1       4.894   3.659  20.166  0.00  0.00    +0.000 HD
ATOM     28  H   UNL     1       5.529   5.045  20.875  0.00  0.00    +0.000 HD
ENDBRANCH  10  26
BRANCH   1  29
ATOM     29  C   UNL     1       3.742   3.007  10.844  0.00  0.00    +0.000 C 
ATOM     30  O   UNL     1       3.123   1.977  10.619  0.00  0.00    +0.000 OA
BRANCH  29  31
ATOM     31  O   UNL     1       3.427   4.238  10.352  0.00  0.00    +0.000 OA
BRANCH  31  33
ATOM     32  C   UNL     1       1.961   5.284   8.788  0.00  0.00    +0.000 C 
ATOM     33  C   UNL     1       3.072   4.263   8.962  0.00  0.00    +0.000 C 
ENDBRANCH  31  33
ENDBRANCH  29  31
ENDBRANCH   1  29
TORSDOF 5
ENDMDL
MODEL 8
REMARK VINA RESULT:      -6.1      1.561      1.984
REMARK  Name = 
REMARK  7 active torsions:
REMARK  status: ('A' for Active; 'I' for Inactive)
REMARK    1  A    between atoms: C_1  and  C_2
REMARK    2  A    between atoms: C_2  and  O_3
REMARK    3  A    between atoms: O_3  and  C_4
REMARK    4  A    between atoms: C_4  and  C_6
REMARK    5  A    between atoms: C_13  and  C_14
REMARK    6  A    between atoms: C_24  and  N_25
REMARK    7  A    between atoms: N_26  and  C_27
REMARK                            x       y       z     vdW  Elec       q    Type
REMARK                         _______ _______ _______ _____ _____    ______ ____
ROOT
ATOM      1  C   UNL     1       1.231  10.531  21.200  0.00  0.00    +0.000 C 
ATOM      2  C   UNL     1      -0.161  10.616  21.832  0.00  0.00    +0.000 C 
ATOM      3  C   UNL     1      -0.573   9.279  22.457  0.00  0.00    +0.000 C 
ATOM      4  C   UNL     1      -0.395   8.106  21.490  0.00  0.00    +0.000 C 
ATOM      5  N   UNL     1       0.978   8.121  20.998  0.00  0.00    +0.000 N 
ATOM      6  C   UNL     1       1.513   6.914  20.560  0.00  0.00    +0.000 A 
ATOM      7  N   UNL     1       2.568   6.998  19.689  0.00  0.00    +0.000 NA
ATOM      8  C   UNL     1       3.227   5.889  19.264  0.00  0.00    +0.000 A 
ATOM      9  C   UNL     1       2.767   4.704  19.839  0.00  0.00    +0.000 A 
ATOM     10  C   UNL     1       3.256   3.408  19.775  0.00  0.00    +0.000 A 
ATOM     11  N   UNL     1       2.325   2.667  20.479  0.00  0.00    +0.000 N 
ATOM     12  C   UNL     1       2.259   1.231  20.609  0.00  0.00    +0.000 C 
ATOM     13  N   UNL     1       1.387   3.412  21.104  0.00  0.00    +0.000 NA
ATOM     14  C   UNL     1       1.663   4.660  20.718  0.00  0.00    +0.000 A 
ATOM     15  N   UNL     1       1.003   5.775  21.090  0.00  0.00    +0.000 NA
ATOM     16  C   UNL     1       1.359   9.329  20.262  0.00  0.00    +0.000 C 
ENDROOT
BRANCH   8  17
ATOM     17  C   UNL     1       4.363   6.019  18.365  0.00  0.00    +0.000 A 
ATOM     18  C   UNL     1       4.207   6.635  17.096  0.00  0.00    +0.000 A 
ATOM     19  C   UNL     1       5.304   7.181  16.423  0.00  0.00    +0.000 A 
ATOM     20  C   UNL     1       6.512   7.133  17.075  0.00  0.00    +0.000 A 
ATOM     21  C   UNL     1       6.690   6.397  18.225  0.00  0.00    +0.000 A 
ATOM     22  C   UNL     1       5.654   5.742  18.838  0.00  0.00    +0.000 A 
ATOM     23  O   UNL     1       7.901   6.634  18.807  0.00  0.00    +0.000 OA
ATOM     24  C   UNL     1       8.237   7.849  18.111  0.00  0.00    +0.000 C 
ATOM     25  O   UNL     1       7.597   7.920  16.818  0.00  0.00    +0.000 OA
ENDBRANCH   8  17
BRANCH  10  26
ATOM     26  N   UNL     1       4.342   2.843  19.203  0.00  0.00    +0.000 N 
ATOM     27  H   UNL     1       5.196   2.705  19.740  0.00  0.00    +0.000 HD
ATOM     28  H   UNL     1       4.308   2.227  18.394  0.00  0.00    +0.000 HD
ENDBRANCH  10  26
BRANCH   1  29
ATOM     29  C   UNL     1       1.606  11.786  20.440  0.00  0.00    +0.000 C 
ATOM     30  O   UNL     1       2.075  12.797  20.942  0.00  0.00    +0.000 OA
BRANCH  29  31
ATOM     31  O   UNL     1       1.232  11.656  19.137  0.00  0.00    +0.000 OA
BRANCH  31  33
ATOM     32  C   UNL     1      -1.040  11.774  18.420  0.00  0.00    +0.000 C 
ATOM     33  C   UNL     1       0.220  12.574  18.701  0.00  0.00    +0.000 C 
ENDBRANCH  31  33
ENDBRANCH  29  31
ENDBRANCH   1  29
TORSDOF 5
ENDMDL
MODEL 9
REMARK VINA RESULT:      -6.0      4.959      8.289
REMARK  Name = 
REMARK  7 active torsions:
REMARK  status: ('A' for Active; 'I' for Inactive)
REMARK    1  A    between atoms: C_1  and  C_2
REMARK    2  A    between atoms: C_2  and  O_3
REMARK    3  A    between atoms: O_3  and  C_4
REMARK    4  A    between atoms: C_4  and  C_6
REMARK    5  A    between atoms: C_13  and  C_14
REMARK    6  A    between atoms: C_24  and  N_25
REMARK    7  A    between atoms: N_26  and  C_27
REMARK                            x       y       z     vdW  Elec       q    Type
REMARK                         _______ _______ _______ _____ _____    ______ ____
ROOT
ATOM      1  C   UNL     1      -4.542  13.709  23.418  0.00  0.00    +0.000 C 
ATOM      2  C   UNL     1      -5.722  14.665  23.224  0.00  0.00    +0.000 C 
ATOM      3  C   UNL     1      -6.491  14.350  21.936  0.00  0.00    +0.000 C 
ATOM      4  C   UNL     1      -5.567  14.242  20.721  0.00  0.00    +0.000 C 
ATOM      5  N   UNL     1      -4.518  13.275  21.026  0.00  0.00    +0.000 N 
ATOM      6  C   UNL     1      -3.911  12.630  19.953  0.00  0.00    +0.000 A 
ATOM      7  N   UNL     1      -2.663  12.114  20.182  0.00  0.00    +0.000 NA
ATOM      8  C   UNL     1      -2.011  11.389  19.237  0.00  0.00    +0.000 A 
ATOM      9  C   UNL     1      -2.752  11.181  18.073  0.00  0.00    +0.000 A 
ATOM     10  C   UNL     1      -2.502  10.393  16.959  0.00  0.00    +0.000 A 
ATOM     11  N   UNL     1      -3.559  10.673  16.113  0.00  0.00    +0.000 N 
ATOM     12  C   UNL     1      -3.731  10.237  14.747  0.00  0.00    +0.000 C 
ATOM     13  N   UNL     1      -4.520  11.444  16.667  0.00  0.00    +0.000 NA
ATOM     14  C   UNL     1      -4.029  11.749  17.870  0.00  0.00    +0.000 A 
ATOM     15  N   UNL     1      -4.633  12.500  18.813  0.00  0.00    +0.000 NA
ATOM     16  C   UNL     1      -3.667  13.623  22.166  0.00  0.00    +0.000 C 
ENDROOT
BRANCH   8  17
ATOM     17  C   UNL     1      -0.700  10.828  19.527  0.00  0.00    +0.000 A 
ATOM     18  C   UNL     1      -0.541   9.876  20.568  0.00  0.00    +0.000 A 
ATOM     19  C   UNL     1       0.549   9.000  20.581  0.00  0.00    +0.000 A 
ATOM     20  C   UNL     1       1.413   9.080  19.515  0.00  0.00    +0.000 A 
ATOM     21  C   UNL     1       1.347  10.104  18.598  0.00  0.00    +0.000 A 
ATOM     22  C   UNL     1       0.361  11.056  18.639  0.00  0.00    +0.000 A 
ATOM     23  O   UNL     1       2.168   9.892  17.529  0.00  0.00    +0.000 OA
ATOM     24  C   UNL     1       2.412   8.487  17.723  0.00  0.00    +0.000 C 
ATOM     25  O   UNL     1       2.282   8.108  19.111  0.00  0.00    +0.000 OA
ENDBRANCH   8  17
BRANCH  10  26
ATOM     26  N   UNL     1      -1.520   9.529  16.624  0.00  0.00    +0.000 N 
ATOM     27  H   UNL     1      -0.566   9.680  16.948  0.00  0.00    +0.000 HD
ATOM     28  H   UNL     1      -1.675   8.557  16.367  0.00  0.00    +0.000 HD
ENDBRANCH  10  26
BRANCH   1  29
ATOM     29  C   UNL     1      -3.672  14.087  24.598  0.00  0.00    +0.000 C 
ATOM     30  O   UNL     1      -3.652  13.502  25.672  0.00  0.00    +0.000 OA
BRANCH  29  31
ATOM     31  O   UNL     1      -3.006  15.242  24.319  0.00  0.00    +0.000 OA
BRANCH  31  33
ATOM     32  C   UNL     1      -0.732  15.617  23.705  0.00  0.00    +0.000 C 
ATOM     33  C   UNL     1      -1.678  15.322  24.856  0.00  0.00    +0.000 C 
ENDBRANCH  31  33
ENDBRANCH  29  31
ENDBRANCH   1  29
TORSDOF 5
ENDMDL
