MODEL 1
REMARK VINA RESULT:      -6.7      0.000      0.000
REMARK  Name = 
REMARK  4 active torsions:
REMARK  status: ('A' for Active; 'I' for Inactive)
REMARK    1  A    between atoms: C_2  and  N_3
REMARK    2  A    between atoms: C_2  and  N_11
REMARK    3  A    between atoms: N_3  and  C_4
REMARK    4  A    between atoms: N_11  and  C_12
REMARK                            x       y       z     vdW  Elec       q    Type
REMARK                         _______ _______ _______ _____ _____    ______ ____
ROOT
ATOM      1  S   UNL     1       1.411   3.894  20.795  0.00  0.00    +0.000 S 
ATOM      2  C   UNL     1       2.764   4.629  20.150  0.00  0.00    +0.000 C 
ENDROOT
BRANCH   2   3
ATOM      3  N   UNL     1       3.775   3.834  19.653  0.00  0.00    +0.000 N 
ATOM      4  H   UNL     1       3.859   2.914  20.075  0.00  0.00    +0.000 HD
BRANCH   3   5
ATOM      5  C   UNL     1       4.553   4.089  18.507  0.00  0.00    +0.000 A 
ATOM      6  C   UNL     1       5.898   4.423  18.671  0.00  0.00    +0.000 A 
ATOM      7  C   UNL     1       6.689   4.703  17.552  0.00  0.00    +0.000 A 
ATOM      8  C   UNL     1       6.146   4.591  16.270  0.00  0.00    +0.000 A 
ATOM      9 CL   UNL     1       7.120   4.936  14.896  0.00  0.00    +0.000 Cl
ATOM     10  C   UNL     1       4.822   4.205  16.099  0.00  0.00    +0.000 A 
ATOM     11  C   UNL     1       4.022   3.968  17.219  0.00  0.00    +0.000 A 
ENDBRANCH   3   5
ENDBRANCH   2   3
BRANCH   2  12
ATOM     12  N   UNL     1       3.088   5.970  20.195  0.00  0.00    +0.000 N 
ATOM     13  H   UNL     1       3.750   6.189  20.931  0.00  0.00    +0.000 HD
BRANCH  12  14
ATOM     14  C   UNL     1       2.468   7.069  19.574  0.00  0.00    +0.000 A 
ATOM     15  C   UNL     1       2.700   7.405  18.239  0.00  0.00    +0.000 A 
ATOM     16  C   UNL     1       2.138   8.564  17.697  0.00  0.00    +0.000 A 
ATOM     17  C   UNL     1       1.327   9.382  18.484  0.00  0.00    +0.000 A 
ATOM     18  C   UNL     1       1.098   9.045  19.816  0.00  0.00    +0.000 A 
ATOM     19 CL   UNL     1       0.086  10.044  20.786  0.00  0.00    +0.000 Cl
ATOM     20  C   UNL     1       1.681   7.907  20.369  0.00  0.00    +0.000 A 
ENDBRANCH  12  14
ENDBRANCH   2  12
TORSDOF 4
ENDMDL
MODEL 2
REMARK VINA RESULT:      -6.6      0.350      1.182
REMARK  Name = 
REMARK  4 active torsions:
REMARK  status: ('A' for Active; 'I' for Inactive)
REMARK    1  A    between atoms: C_2  and  N_3
REMARK    2  A    between atoms: C_2  and  N_11
REMARK    3  A    between atoms: N_3  and  C_4
REMARK    4  A    between atoms: N_11  and  C_12
REMARK                            x       y       z     vdW  Elec       q    Type
REMARK                         _______ _______ _______ _____ _____    ______ ____
ROOT
ATOM      1  S   UNL     1       1.456   3.342  20.070  0.00  0.00    +0.000 S 
ATOM      2  C   UNL     1       2.743   4.404  20.021  0.00  0.00    +0.000 C 
ENDROOT
BRANCH   2   3
ATOM      3  N   UNL     1       3.998   3.911  19.736  0.00  0.00    +0.000 N 
ATOM      4  H   UNL     1       4.328   3.169  20.346  0.00  0.00    +0.000 HD
BRANCH   3   5
ATOM      5  C   UNL     1       4.764   4.186  18.587  0.00  0.00    +0.000 A 
ATOM      6  C   UNL     1       4.220   3.898  17.334  0.00  0.00    +0.000 A 
ATOM      7  C   UNL     1       4.966   4.140  16.176  0.00  0.00    +0.000 A 
ATOM      8  C   UNL     1       6.231   4.723  16.272  0.00  0.00    +0.000 A 
ATOM      9 CL   UNL     1       7.146   5.020  14.848  0.00  0.00    +0.000 Cl
ATOM     10  C   UNL     1       6.755   5.063  17.515  0.00  0.00    +0.000 A 
ATOM     11  C   UNL     1       6.026   4.782  18.672  0.00  0.00    +0.000 A 
ENDBRANCH   3   5
ENDBRANCH   2   3
BRANCH   2  12
ATOM     12  N   UNL     1       2.745   5.732  20.399  0.00  0.00    +0.000 N 
ATOM     13  H   UNL     1       2.924   5.858  21.389  0.00  0.00    +0.000 HD
BRANCH  12  14
ATOM     14  C   UNL     1       2.297   6.869  19.702  0.00  0.00    +0.000 A 
ATOM     15  C   UNL     1       2.568   7.072  18.347  0.00  0.00    +0.000 A 
ATOM     16  C   UNL     1       2.187   8.265  17.725  0.00  0.00    +0.000 A 
ATOM     17  C   UNL     1       1.518   9.250  18.452  0.00  0.00    +0.000 A 
ATOM     18  C   UNL     1       1.251   9.045  19.803  0.00  0.00    +0.000 A 
ATOM     19 CL   UNL     1       0.413  10.252  20.700  0.00  0.00    +0.000 Cl
ATOM     20  C   UNL     1       1.656   7.871  20.435  0.00  0.00    +0.000 A 
ENDBRANCH  12  14
ENDBRANCH   2  12
TORSDOF 4
ENDMDL
MODEL 3
REMARK VINA RESULT:      -6.6      3.997      7.049
REMARK  Name = 
REMARK  4 active torsions:
REMARK  status: ('A' for Active; 'I' for Inactive)
REMARK    1  A    between atoms: C_2  and  N_3
REMARK    2  A    between atoms: C_2  and  N_11
REMARK    3  A    between atoms: N_3  and  C_4
REMARK    4  A    between atoms: N_11  and  C_12
REMARK                            x       y       z     vdW  Elec       q    Type
REMARK                         _______ _______ _______ _____ _____    ______ ____
ROOT
ATOM      1  S   UNL     1       4.516   6.489  17.046  0.00  0.00    +0.000 S 
ATOM      2  C   UNL     1       4.969   4.988  16.472  0.00  0.00    +0.000 C 
ENDROOT
BRANCH   2   3
ATOM      3  N   UNL     1       4.125   3.918  16.680  0.00  0.00    +0.000 N 
ATOM      4  H   UNL     1       4.126   3.209  15.953  0.00  0.00    +0.000 HD
BRANCH   3   5
ATOM      5  C   UNL     1       3.430   3.619  17.867  0.00  0.00    +0.000 A 
ATOM      6  C   UNL     1       4.160   3.231  18.992  0.00  0.00    +0.000 A 
ATOM      7  C   UNL     1       3.495   2.907  20.179  0.00  0.00    +0.000 A 
ATOM      8  C   UNL     1       2.106   3.028  20.254  0.00  0.00    +0.000 A 
ATOM      9 CL   UNL     1       1.290   2.630  21.714  0.00  0.00    +0.000 Cl
ATOM     10  C   UNL     1       1.378   3.468  19.153  0.00  0.00    +0.000 A 
ATOM     11  C   UNL     1       2.040   3.750  17.957  0.00  0.00    +0.000 A 
ENDBRANCH   3   5
ENDBRANCH   2   3
BRANCH   2  12
ATOM     12  N   UNL     1       6.191   4.631  15.938  0.00  0.00    +0.000 N 
ATOM     13  H   UNL     1       6.939   4.654  16.622  0.00  0.00    +0.000 HD
BRANCH  12  14
ATOM     14  C   UNL     1       6.585   4.500  14.594  0.00  0.00    +0.000 A 
ATOM     15  C   UNL     1       7.543   5.332  14.010  0.00  0.00    +0.000 A 
ATOM     16  C   UNL     1       7.827   5.226  12.646  0.00  0.00    +0.000 A 
ATOM     17  C   UNL     1       7.166   4.278  11.864  0.00  0.00    +0.000 A 
ATOM     18  C   UNL     1       6.210   3.452  12.450  0.00  0.00    +0.000 A 
ATOM     19 CL   UNL     1       5.403   2.271  11.492  0.00  0.00    +0.000 Cl
ATOM     20  C   UNL     1       5.901   3.573  13.803  0.00  0.00    +0.000 A 
ENDBRANCH  12  14
ENDBRANCH   2  12
TORSDOF 4
ENDMDL
MODEL 4
REMARK VINA RESULT:      -6.6      4.002      6.992
REMARK  Name = 
REMARK  4 active torsions:
REMARK  status: ('A' for Active; 'I' for Inactive)
REMARK    1  A    between atoms: C_2  and  N_3
REMARK    2  A    between atoms: C_2  and  N_11
REMARK    3  A    between atoms: N_3  and  C_4
REMARK    4  A    between atoms: N_11  and  C_12
REMARK                            x       y       z     vdW  Elec       q    Type
REMARK                         _______ _______ _______ _____ _____    ______ ____
ROOT
ATOM      1  S   UNL     1       7.441   5.313  18.032  0.00  0.00    +0.000 S 
ATOM      2  C   UNL     1       6.247   4.769  16.999  0.00  0.00    +0.000 C 
ENDROOT
BRANCH   2   3
ATOM      3  N   UNL     1       5.568   3.613  17.323  0.00  0.00    +0.000 N 
ATOM      4  H   UNL     1       6.072   2.746  17.158  0.00  0.00    +0.000 HD
BRANCH   3   5
ATOM      5  C   UNL     1       4.356   3.527  18.033  0.00  0.00    +0.000 A 
ATOM      6  C   UNL     1       4.391   3.160  19.379  0.00  0.00    +0.000 A 
ATOM      7  C   UNL     1       3.200   3.045  20.104  0.00  0.00    +0.000 A 
ATOM      8  C   UNL     1       1.983   3.354  19.495  0.00  0.00    +0.000 A 
ATOM      9 CL   UNL     1       0.520   3.212  20.387  0.00  0.00    +0.000 Cl
ATOM     10  C   UNL     1       1.946   3.774  18.170  0.00  0.00    +0.000 A 
ATOM     11  C   UNL     1       3.132   3.847  17.436  0.00  0.00    +0.000 A 
ENDBRANCH   3   5
ENDBRANCH   2   3
BRANCH   2  12
ATOM     12  N   UNL     1       5.948   5.249  15.740  0.00  0.00    +0.000 N 
ATOM     13  H   UNL     1       5.108   5.815  15.726  0.00  0.00    +0.000 HD
BRANCH  12  14
ATOM     14  C   UNL     1       6.462   4.873  14.486  0.00  0.00    +0.000 A 
ATOM     15  C   UNL     1       7.549   5.523  13.896  0.00  0.00    +0.000 A 
ATOM     16  C   UNL     1       7.958   5.177  12.605  0.00  0.00    +0.000 A 
ATOM     17  C   UNL     1       7.293   4.170  11.906  0.00  0.00    +0.000 A 
ATOM     18  C   UNL     1       6.209   3.525  12.497  0.00  0.00    +0.000 A 
ATOM     19 CL   UNL     1       5.395   2.271  11.643  0.00  0.00    +0.000 Cl
ATOM     20  C   UNL     1       5.778   3.887  13.771  0.00  0.00    +0.000 A 
ENDBRANCH  12  14
ENDBRANCH   2  12
TORSDOF 4
ENDMDL
MODEL 5
REMARK VINA RESULT:      -6.6      3.727      4.485
REMARK  Name = 
REMARK  4 active torsions:
REMARK  status: ('A' for Active; 'I' for Inactive)
REMARK    1  A    between atoms: C_2  and  N_3
REMARK    2  A    between atoms: C_2  and  N_11
REMARK    3  A    between atoms: N_3  and  C_4
REMARK    4  A    between atoms: N_11  and  C_12
REMARK                            x       y       z     vdW  Elec       q    Type
REMARK                         _______ _______ _______ _____ _____    ______ ____
ROOT
ATOM      1  S   UNL     1       7.579   5.639  19.133  0.00  0.00    +0.000 S 
ATOM      2  C   UNL     1       6.276   4.796  18.518  0.00  0.00    +0.000 C 
ENDROOT
BRANCH   2   3
ATOM      3  N   UNL     1       5.651   5.275  17.386  0.00  0.00    +0.000 N 
ATOM      4  H   UNL     1       5.022   6.060  17.530  0.00  0.00    +0.000 HD
BRANCH   3   5
ATOM      5  C   UNL     1       5.949   4.925  16.055  0.00  0.00    +0.000 A 
ATOM      6  C   UNL     1       7.177   5.313  15.518  0.00  0.00    +0.000 A 
ATOM      7  C   UNL     1       7.491   4.998  14.193  0.00  0.00    +0.000 A 
ATOM      8  C   UNL     1       6.598   4.246  13.426  0.00  0.00    +0.000 A 
ATOM      9 CL   UNL     1       6.985   3.860  11.796  0.00  0.00    +0.000 Cl
ATOM     10  C   UNL     1       5.397   3.810  13.973  0.00  0.00    +0.000 A 
ATOM     11  C   UNL     1       5.067   4.161  15.283  0.00  0.00    +0.000 A 
ENDBRANCH   3   5
ENDBRANCH   2   3
BRANCH   2  12
ATOM     12  N   UNL     1       5.616   3.734  19.104  0.00  0.00    +0.000 N 
ATOM     13  H   UNL     1       6.246   3.089  19.567  0.00  0.00    +0.000 HD
BRANCH  12  14
ATOM     14  C   UNL     1       4.291   3.292  18.937  0.00  0.00    +0.000 A 
ATOM     15  C   UNL     1       3.930   2.354  17.968  0.00  0.00    +0.000 A 
ATOM     16  C   UNL     1       2.585   2.023  17.777  0.00  0.00    +0.000 A 
ATOM     17  C   UNL     1       1.600   2.616  18.566  0.00  0.00    +0.000 A 
ATOM     18  C   UNL     1       1.963   3.552  19.531  0.00  0.00    +0.000 A 
ATOM     19 CL   UNL     1       0.751   4.275  20.517  0.00  0.00    +0.000 Cl
ATOM     20  C   UNL     1       3.299   3.909  19.705  0.00  0.00    +0.000 A 
ENDBRANCH  12  14
ENDBRANCH   2  12
TORSDOF 4
ENDMDL
MODEL 6
REMARK VINA RESULT:      -6.5      1.652      5.802
REMARK  Name = 
REMARK  4 active torsions:
REMARK  status: ('A' for Active; 'I' for Inactive)
REMARK    1  A    between atoms: C_2  and  N_3
REMARK    2  A    between atoms: C_2  and  N_11
REMARK    3  A    between atoms: N_3  and  C_4
REMARK    4  A    between atoms: N_11  and  C_12
REMARK                            x       y       z     vdW  Elec       q    Type
REMARK                         _______ _______ _______ _____ _____    ______ ____
ROOT
ATOM      1  S   UNL     1       3.437   1.478  18.604  0.00  0.00    +0.000 S 
ATOM      2  C   UNL     1       3.956   3.064  18.609  0.00  0.00    +0.000 C 
ENDROOT
BRANCH   2   3
ATOM      3  N   UNL     1       3.102   4.041  18.142  0.00  0.00    +0.000 N 
ATOM      4  H   UNL     1       2.643   3.838  17.259  0.00  0.00    +0.000 HD
BRANCH   3   5
ATOM      5  C   UNL     1       2.659   5.174  18.851  0.00  0.00    +0.000 A 
ATOM      6  C   UNL     1       2.776   6.429  18.252  0.00  0.00    +0.000 A 
ATOM      7  C   UNL     1       2.365   7.574  18.941  0.00  0.00    +0.000 A 
ATOM      8  C   UNL     1       1.784   7.454  20.205  0.00  0.00    +0.000 A 
ATOM      9 CL   UNL     1       1.279   8.863  21.051  0.00  0.00    +0.000 Cl
ATOM     10  C   UNL     1       1.614   6.201  20.784  0.00  0.00    +0.000 A 
ATOM     11  C   UNL     1       2.064   5.063  20.112  0.00  0.00    +0.000 A 
ENDBRANCH   3   5
ENDBRANCH   2   3
BRANCH   2  12
ATOM     12  N   UNL     1       5.228   3.527  18.878  0.00  0.00    +0.000 N 
ATOM     13  H   UNL     1       5.545   3.283  19.810  0.00  0.00    +0.000 HD
BRANCH  12  14
ATOM     14  C   UNL     1       6.012   4.466  18.184  0.00  0.00    +0.000 A 
ATOM     15  C   UNL     1       6.548   5.597  18.802  0.00  0.00    +0.000 A 
ATOM     16  C   UNL     1       7.236   6.551  18.047  0.00  0.00    +0.000 A 
ATOM     17  C   UNL     1       7.406   6.367  16.674  0.00  0.00    +0.000 A 
ATOM     18  C   UNL     1       6.869   5.238  16.061  0.00  0.00    +0.000 A 
ATOM     19 CL   UNL     1       7.090   5.000  14.370  0.00  0.00    +0.000 Cl
ATOM     20  C   UNL     1       6.156   4.300  16.804  0.00  0.00    +0.000 A 
ENDBRANCH  12  14
ENDBRANCH   2  12
TORSDOF 4
ENDMDL
MODEL 7
REMARK VINA RESULT:      -6.5      3.486      4.504
REMARK  Name = 
REMARK  4 active torsions:
REMARK  status: ('A' for Active; 'I' for Inactive)
REMARK    1  A    between atoms: C_2  and  N_3
REMARK    2  A    between atoms: C_2  and  N_11
REMARK    3  A    between atoms: N_3  and  C_4
REMARK    4  A    between atoms: N_11  and  C_12
REMARK                            x       y       z     vdW  Elec       q    Type
REMARK                         _______ _______ _______ _____ _____    ______ ____
ROOT
ATOM      1  S   UNL     1       5.917   3.856  14.798  0.00  0.00    +0.000 S 
ATOM      2  C   UNL     1       5.362   4.019  16.364  0.00  0.00    +0.000 C 
ENDROOT
BRANCH   2   3
ATOM      3  N   UNL     1       6.278   4.243  17.370  0.00  0.00    +0.000 N 
ATOM      4  H   UNL     1       6.649   3.412  17.820  0.00  0.00    +0.000 HD
BRANCH   3   5
ATOM      5  C   UNL     1       6.886   5.473  17.688  0.00  0.00    +0.000 A 
ATOM      6  C   UNL     1       7.764   5.526  18.772  0.00  0.00    +0.000 A 
ATOM      7  C   UNL     1       8.366   6.738  19.124  0.00  0.00    +0.000 A 
ATOM      8  C   UNL     1       8.133   7.880  18.357  0.00  0.00    +0.000 A 
ATOM      9 CL   UNL     1       8.874   9.369  18.792  0.00  0.00    +0.000 Cl
ATOM     10  C   UNL     1       7.302   7.821  17.243  0.00  0.00    +0.000 A 
ATOM     11  C   UNL     1       6.669   6.620  16.917  0.00  0.00    +0.000 A 
ENDBRANCH   3   5
ENDBRANCH   2   3
BRANCH   2  12
ATOM     12  N   UNL     1       4.081   3.792  16.825  0.00  0.00    +0.000 N 
ATOM     13  H   UNL     1       3.509   3.285  16.159  0.00  0.00    +0.000 HD
BRANCH  12  14
ATOM     14  C   UNL     1       3.402   4.359  17.918  0.00  0.00    +0.000 A 
ATOM     15  C   UNL     1       3.106   5.722  17.990  0.00  0.00    +0.000 A 
ATOM     16  C   UNL     1       2.518   6.253  19.142  0.00  0.00    +0.000 A 
ATOM     17  C   UNL     1       2.209   5.421  20.218  0.00  0.00    +0.000 A 
ATOM     18  C   UNL     1       2.508   4.063  20.143  0.00  0.00    +0.000 A 
ATOM     19 CL   UNL     1       2.114   3.029  21.463  0.00  0.00    +0.000 Cl
ATOM     20  C   UNL     1       3.121   3.533  19.009  0.00  0.00    +0.000 A 
ENDBRANCH  12  14
ENDBRANCH   2  12
TORSDOF 4
ENDMDL
MODEL 8
REMARK VINA RESULT:      -6.5      4.168      4.826
REMARK  Name = 
REMARK  4 active torsions:
REMARK  status: ('A' for Active; 'I' for Inactive)
REMARK    1  A    between atoms: C_2  and  N_3
REMARK    2  A    between atoms: C_2  and  N_11
REMARK    3  A    between atoms: N_3  and  C_4
REMARK    4  A    between atoms: N_11  and  C_12
REMARK                            x       y       z     vdW  Elec       q    Type
REMARK                         _______ _______ _______ _____ _____    ______ ____
ROOT
ATOM      1  S   UNL     1       7.028   5.557  19.474  0.00  0.00    +0.000 S 
ATOM      2  C   UNL     1       6.036   4.607  18.525  0.00  0.00    +0.000 C 
ENDROOT
BRANCH   2   3
ATOM      3  N   UNL     1       5.502   5.151  17.375  0.00  0.00    +0.000 N 
ATOM      4  H   UNL     1       4.860   5.926  17.513  0.00  0.00    +0.000 HD
BRANCH   3   5
ATOM      5  C   UNL     1       5.906   4.876  16.055  0.00  0.00    +0.000 A 
ATOM      6  C   UNL     1       4.995   4.271  15.187  0.00  0.00    +0.000 A 
ATOM      7  C   UNL     1       5.375   3.967  13.876  0.00  0.00    +0.000 A 
ATOM      8  C   UNL     1       6.646   4.323  13.420  0.00  0.00    +0.000 A 
ATOM      9 CL   UNL     1       7.112   3.948  11.808  0.00  0.00    +0.000 Cl
ATOM     10  C   UNL     1       7.538   4.976  14.263  0.00  0.00    +0.000 A 
ATOM     11  C   UNL     1       7.172   5.240  15.584  0.00  0.00    +0.000 A 
ENDBRANCH   3   5
ENDBRANCH   2   3
BRANCH   2  12
ATOM     12  N   UNL     1       5.533   3.359  18.830  0.00  0.00    +0.000 N 
ATOM     13  H   UNL     1       6.240   2.633  18.795  0.00  0.00    +0.000 HD
BRANCH  12  14
ATOM     14  C   UNL     1       4.200   2.920  18.920  0.00  0.00    +0.000 A 
ATOM     15  C   UNL     1       3.477   2.487  17.806  0.00  0.00    +0.000 A 
ATOM     16  C   UNL     1       2.125   2.156  17.932  0.00  0.00    +0.000 A 
ATOM     17  C   UNL     1       1.496   2.241  19.174  0.00  0.00    +0.000 A 
ATOM     18  C   UNL     1       2.219   2.675  20.282  0.00  0.00    +0.000 A 
ATOM     19 CL   UNL     1       1.451   2.767  21.820  0.00  0.00    +0.000 Cl
ATOM     20  C   UNL     1       3.560   3.035  20.157  0.00  0.00    +0.000 A 
ENDBRANCH  12  14
ENDBRANCH   2  12
TORSDOF 4
ENDMDL
MODEL 9
REMARK VINA RESULT:      -6.5      1.643      5.785
REMARK  Name = 
REMARK  4 active torsions:
REMARK  status: ('A' for Active; 'I' for Inactive)
REMARK    1  A    between atoms: C_2  and  N_3
REMARK    2  A    between atoms: C_2  and  N_11
REMARK    3  A    between atoms: N_3  and  C_4
REMARK    4  A    between atoms: N_11  and  C_12
REMARK                            x       y       z     vdW  Elec       q    Type
REMARK                         _______ _______ _______ _____ _____    ______ ____
ROOT
ATOM      1  S   UNL     1       3.332   1.507  18.656  0.00  0.00    +0.000 S 
ATOM      2  C   UNL     1       3.929   3.066  18.629  0.00  0.00    +0.000 C 
ENDROOT
BRANCH   2   3
ATOM      3  N   UNL     1       3.130   4.072  18.130  0.00  0.00    +0.000 N 
ATOM      4  H   UNL     1       2.713   3.892  17.222  0.00  0.00    +0.000 HD
BRANCH   3   5
ATOM      5  C   UNL     1       2.683   5.210  18.829  0.00  0.00    +0.000 A 
ATOM      6  C   UNL     1       2.159   5.046  20.111  0.00  0.00    +0.000 A 
ATOM      7  C   UNL     1       1.687   6.155  20.820  0.00  0.00    +0.000 A 
ATOM      8  C   UNL     1       1.795   7.433  20.266  0.00  0.00    +0.000 A 
ATOM      9 CL   UNL     1       1.215   8.795  21.139  0.00  0.00    +0.000 Cl
ATOM     10  C   UNL     1       2.368   7.608  19.012  0.00  0.00    +0.000 A 
ATOM     11  C   UNL     1       2.800   6.495  18.288  0.00  0.00    +0.000 A 
ENDBRANCH   3   5
ENDBRANCH   2   3
BRANCH   2  12
ATOM     12  N   UNL     1       5.221   3.471  18.901  0.00  0.00    +0.000 N 
ATOM     13  H   UNL     1       5.543   3.165  19.812  0.00  0.00    +0.000 HD
BRANCH  12  14
ATOM     14  C   UNL     1       6.025   4.421  18.246  0.00  0.00    +0.000 A 
ATOM     15  C   UNL     1       6.599   5.505  18.915  0.00  0.00    +0.000 A 
ATOM     16  C   UNL     1       7.307   6.475  18.201  0.00  0.00    +0.000 A 
ATOM     17  C   UNL     1       7.458   6.356  16.819  0.00  0.00    +0.000 A 
ATOM     18  C   UNL     1       6.884   5.275  16.156  0.00  0.00    +0.000 A 
ATOM     19 CL   UNL     1       7.081   5.117  14.453  0.00  0.00    +0.000 Cl
ATOM     20  C   UNL     1       6.151   4.321  16.858  0.00  0.00    +0.000 A 
ENDBRANCH  12  14
ENDBRANCH   2  12
TORSDOF 4
ENDMDL
