MODEL 1
REMARK VINA RESULT:      -7.4      0.000      0.000
REMARK  Name = 
REMARK  5 active torsions:
REMARK  status: ('A' for Active; 'I' for Inactive)
REMARK    1  A    between atoms: C_1  and  C_2
REMARK    2  A    between atoms: C_2  and  C_3
REMARK    3  A    between atoms: C_3  and  N_4
REMARK    4  A    between atoms: C_5  and  C_7
REMARK    5  A    between atoms: C_12  and  C_14
REMARK                            x       y       z     vdW  Elec       q    Type
REMARK                         _______ _______ _______ _____ _____    ______ ____
ROOT
ATOM      1  C   UNL     1       4.593   4.347  19.247  0.00  0.00    +0.000 C 
ATOM      2  C   UNL     1       4.217   2.886  19.548  0.00  0.00    +0.000 C 
ATOM      3  C   UNL     1       3.024   2.981  20.468  0.00  0.00    +0.000 C 
ATOM      4  C   UNL     1       2.324   4.247  20.021  0.00  0.00    +0.000 C 
ATOM      5  N   UNL     1       3.269   4.999  19.207  0.00  0.00    +0.000 N 
ATOM      6  C   UNL     1       3.089   6.336  18.881  0.00  0.00    +0.000 C 
ATOM      7  O   UNL     1       3.950   6.931  18.229  0.00  0.00    +0.000 OA
ENDROOT
BRANCH   6   8
ATOM      8  C   UNL     1       1.849   7.130  19.436  0.00  0.00    +0.000 C 
ATOM      9  C   UNL     1       1.752   8.446  18.643  0.00  0.00    +0.000 C 
ATOM     10  C   UNL     1       0.932   9.508  19.318  0.00  0.00    +0.000 A 
ATOM     11  C   UNL     1       0.355  10.547  18.571  0.00  0.00    +0.000 A 
ATOM     12  C   UNL     1      -0.312  11.593  19.211  0.00  0.00    +0.000 A 
ATOM     13  C   UNL     1      -0.399  11.612  20.600  0.00  0.00    +0.000 A 
ATOM     14  C   UNL     1       0.174  10.583  21.347  0.00  0.00    +0.000 A 
ATOM     15  C   UNL     1       0.835   9.518  20.714  0.00  0.00    +0.000 A 
ATOM     16  C   UNL     1       1.560   8.489  21.537  0.00  0.00    +0.000 C 
ATOM     17  N   UNL     1       1.812   7.187  20.917  0.00  0.00    +0.000 NA
ATOM     18  H   UNL     1       1.133   6.508  21.259  0.00  0.00    +0.000 HD
ENDBRANCH   6   8
BRANCH   1  20
ATOM     19  N   UNL     1       5.208   3.920  16.857  0.00  0.00    +0.000 N 
ATOM     20  C   UNL     1       5.639   4.231  18.114  0.00  0.00    +0.000 C 
ATOM     21  O   UNL     1       6.834   4.438  18.353  0.00  0.00    +0.000 OA
ATOM     22  H   UNL     1       4.213   4.053  16.660  0.00  0.00    +0.000 HD
BRANCH  19  23
ATOM     23  C   UNL     1       6.153   3.740  15.770  0.00  0.00    +0.000 C 
BRANCH  23  25
ATOM     24  C   UNL     1       6.185   3.732  13.241  0.00  0.00    +0.000 C 
ATOM     25  C   UNL     1       5.705   4.451  14.493  0.00  0.00    +0.000 C 
ENDBRANCH  23  25
ENDBRANCH  19  23
ENDBRANCH   1  20
TORSDOF 4
ENDMDL
MODEL 2
REMARK VINA RESULT:      -7.3      1.017      1.131
REMARK  Name = 
REMARK  5 active torsions:
REMARK  status: ('A' for Active; 'I' for Inactive)
REMARK    1  A    between atoms: C_1  and  C_2
REMARK    2  A    between atoms: C_2  and  C_3
REMARK    3  A    between atoms: C_3  and  N_4
REMARK    4  A    between atoms: C_5  and  C_7
REMARK    5  A    between atoms: C_12  and  C_14
REMARK                            x       y       z     vdW  Elec       q    Type
REMARK                         _______ _______ _______ _____ _____    ______ ____
ROOT
ATOM      1  C   UNL     1       4.633   4.356  17.879  0.00  0.00    +0.000 C 
ATOM      2  C   UNL     1       4.159   2.902  17.720  0.00  0.00    +0.000 C 
ATOM      3  C   UNL     1       2.913   2.811  18.566  0.00  0.00    +0.000 C 
ATOM      4  C   UNL     1       2.314   4.198  18.474  0.00  0.00    +0.000 C 
ATOM      5  N   UNL     1       3.351   5.084  17.965  0.00  0.00    +0.000 N 
ATOM      6  C   UNL     1       3.265   6.468  18.036  0.00  0.00    +0.000 C 
ATOM      7  O   UNL     1       4.199   7.163  17.632  0.00  0.00    +0.000 OA
ENDROOT
BRANCH   6   8
ATOM      8  C   UNL     1       2.034   7.153  18.736  0.00  0.00    +0.000 C 
ATOM      9  C   UNL     1       1.952   8.598  18.212  0.00  0.00    +0.000 C 
ATOM     10  C   UNL     1       1.143   9.519  19.081  0.00  0.00    +0.000 A 
ATOM     11  C   UNL     1       0.578  10.689  18.549  0.00  0.00    +0.000 A 
ATOM     12  C   UNL     1      -0.078  11.600  19.379  0.00  0.00    +0.000 A 
ATOM     13  C   UNL     1      -0.166  11.351  20.746  0.00  0.00    +0.000 A 
ATOM     14  C   UNL     1       0.395  10.190  21.279  0.00  0.00    +0.000 A 
ATOM     15  C   UNL     1       1.045   9.260  20.452  0.00  0.00    +0.000 A 
ATOM     16  C   UNL     1       1.757   8.084  21.060  0.00  0.00    +0.000 C 
ATOM     17  N   UNL     1       1.996   6.924  20.200  0.00  0.00    +0.000 NA
ATOM     18  H   UNL     1       1.309   6.199  20.405  0.00  0.00    +0.000 HD
ENDBRANCH   6   8
BRANCH   1  20
ATOM     19  N   UNL     1       5.395   4.845  15.545  0.00  0.00    +0.000 N 
ATOM     20  C   UNL     1       5.747   4.499  16.818  0.00  0.00    +0.000 C 
ATOM     21  O   UNL     1       6.928   4.320  17.134  0.00  0.00    +0.000 OA
ATOM     22  H   UNL     1       4.471   5.261  15.415  0.00  0.00    +0.000 HD
BRANCH  19  23
ATOM     23  C   UNL     1       6.394   4.933  14.495  0.00  0.00    +0.000 C 
BRANCH  23  25
ATOM     24  C   UNL     1       6.988   4.164  12.159  0.00  0.00    +0.000 C 
ATOM     25  C   UNL     1       6.204   3.857  13.427  0.00  0.00    +0.000 C 
ENDBRANCH  23  25
ENDBRANCH  19  23
ENDBRANCH   1  20
TORSDOF 4
ENDMDL
MODEL 3
REMARK VINA RESULT:      -7.3      4.767      7.499
REMARK  Name = 
REMARK  5 active torsions:
REMARK  status: ('A' for Active; 'I' for Inactive)
REMARK    1  A    between atoms: C_1  and  C_2
REMARK    2  A    between atoms: C_2  and  C_3
REMARK    3  A    between atoms: C_3  and  N_4
REMARK    4  A    between atoms: C_5  and  C_7
REMARK    5  A    between atoms: C_12  and  C_14
REMARK                            x       y       z     vdW  Elec       q    Type
REMARK                         _______ _______ _______ _____ _____    ______ ____
ROOT
ATOM      1  C   UNL     1       3.202   3.104  19.753  0.00  0.00    +0.000 C 
ATOM      2  C   UNL     1       1.858   2.408  19.483  0.00  0.00    +0.000 C 
ATOM      3  C   UNL     1       1.349   3.040  18.211  0.00  0.00    +0.000 C 
ATOM      4  C   UNL     1       2.611   3.370  17.443  0.00  0.00    +0.000 C 
ATOM      5  N   UNL     1       3.720   3.305  18.385  0.00  0.00    +0.000 N 
ATOM      6  C   UNL     1       4.973   3.838  18.116  0.00  0.00    +0.000 C 
ATOM      7  O   UNL     1       5.857   3.793  18.974  0.00  0.00    +0.000 OA
ENDROOT
BRANCH   6   8
ATOM      8  C   UNL     1       5.239   4.602  16.767  0.00  0.00    +0.000 C 
ATOM      9  C   UNL     1       5.372   3.543  15.657  0.00  0.00    +0.000 C 
ATOM     10  C   UNL     1       6.061   4.039  14.417  0.00  0.00    +0.000 A 
ATOM     11  C   UNL     1       5.855   3.404  13.182  0.00  0.00    +0.000 A 
ATOM     12  C   UNL     1       6.580   3.794  12.055  0.00  0.00    +0.000 A 
ATOM     13  C   UNL     1       7.520   4.815  12.156  0.00  0.00    +0.000 A 
ATOM     14  C   UNL     1       7.729   5.449  13.382  0.00  0.00    +0.000 A 
ATOM     15  C   UNL     1       6.996   5.074  14.519  0.00  0.00    +0.000 A 
ATOM     16  C   UNL     1       7.328   5.675  15.857  0.00  0.00    +0.000 C 
ATOM     17  N   UNL     1       6.288   5.643  16.886  0.00  0.00    +0.000 NA
ATOM     18  H   UNL     1       5.842   6.557  16.951  0.00  0.00    +0.000 HD
ENDBRANCH   6   8
BRANCH   1  20
ATOM     19  N   UNL     1       5.025   1.663  20.688  0.00  0.00    +0.000 N 
ATOM     20  C   UNL     1       3.823   2.274  20.900  0.00  0.00    +0.000 C 
ATOM     21  O   UNL     1       3.240   2.190  21.987  0.00  0.00    +0.000 OA
ATOM     22  H   UNL     1       5.587   2.002  19.904  0.00  0.00    +0.000 HD
BRANCH  19  23
ATOM     23  C   UNL     1       5.622   0.823  21.710  0.00  0.00    +0.000 C 
BRANCH  23  25
ATOM     24  C   UNL     1       6.957  -1.279  22.155  0.00  0.00    +0.000 C 
ATOM     25  C   UNL     1       6.131  -0.502  21.141  0.00  0.00    +0.000 C 
ENDBRANCH  23  25
ENDBRANCH  19  23
ENDBRANCH   1  20
TORSDOF 4
ENDMDL
MODEL 4
REMARK VINA RESULT:      -7.2      2.805      7.882
REMARK  Name = 
REMARK  5 active torsions:
REMARK  status: ('A' for Active; 'I' for Inactive)
REMARK    1  A    between atoms: C_1  and  C_2
REMARK    2  A    between atoms: C_2  and  C_3
REMARK    3  A    between atoms: C_3  and  N_4
REMARK    4  A    between atoms: C_5  and  C_7
REMARK    5  A    between atoms: C_12  and  C_14
REMARK                            x       y       z     vdW  Elec       q    Type
REMARK                         _______ _______ _______ _____ _____    ______ ____
ROOT
ATOM      1  C   UNL     1      -0.306   9.698  20.278  0.00  0.00    +0.000 C 
ATOM      2  C   UNL     1      -0.264  10.196  21.733  0.00  0.00    +0.000 C 
ATOM      3  C   UNL     1       0.593   9.187  22.458  0.00  0.00    +0.000 C 
ATOM      4  C   UNL     1       1.578   8.729  21.404  0.00  0.00    +0.000 C 
ATOM      5  N   UNL     1       1.050   9.139  20.110  0.00  0.00    +0.000 N 
ATOM      6  C   UNL     1       1.520   8.632  18.906  0.00  0.00    +0.000 C 
ATOM      7  O   UNL     1       0.998   8.984  17.846  0.00  0.00    +0.000 OA
ENDROOT
BRANCH   6   8
ATOM      8  C   UNL     1       2.637   7.525  18.892  0.00  0.00    +0.000 C 
ATOM      9  C   UNL     1       3.390   7.647  17.555  0.00  0.00    +0.000 C 
ATOM     10  C   UNL     1       4.168   6.419  17.176  0.00  0.00    +0.000 A 
ATOM     11  C   UNL     1       5.251   6.506  16.285  0.00  0.00    +0.000 A 
ATOM     12  C   UNL     1       5.902   5.352  15.848  0.00  0.00    +0.000 A 
ATOM     13  C   UNL     1       5.471   4.104  16.290  0.00  0.00    +0.000 A 
ATOM     14  C   UNL     1       4.396   4.013  17.173  0.00  0.00    +0.000 A 
ATOM     15  C   UNL     1       3.741   5.168  17.632  0.00  0.00    +0.000 A 
ATOM     16  C   UNL     1       2.504   5.044  18.477  0.00  0.00    +0.000 C 
ATOM     17  N   UNL     1       2.140   6.192  19.309  0.00  0.00    +0.000 NA
ATOM     18  H   UNL     1       2.421   6.019  20.273  0.00  0.00    +0.000 HD
ENDBRANCH   6   8
BRANCH   1  20
ATOM     19  N   UNL     1      -1.554  10.605  18.306  0.00  0.00    +0.000 N 
ATOM     20  C   UNL     1      -0.963  10.866  19.508  0.00  0.00    +0.000 C 
ATOM     21  O   UNL     1      -0.962  12.004  19.993  0.00  0.00    +0.000 OA
ATOM     22  H   UNL     1      -1.783   9.630  18.102  0.00  0.00    +0.000 HD
BRANCH  19  23
ATOM     23  C   UNL     1      -2.132  11.676  17.513  0.00  0.00    +0.000 C 
BRANCH  23  25
ATOM     24  C   UNL     1      -4.659  11.602  17.420  0.00  0.00    +0.000 C 
ATOM     25  C   UNL     1      -3.360  11.214  16.729  0.00  0.00    +0.000 C 
ENDBRANCH  23  25
ENDBRANCH  19  23
ENDBRANCH   1  20
TORSDOF 4
ENDMDL
MODEL 5
REMARK VINA RESULT:      -7.2      1.988      3.915
REMARK  Name = 
REMARK  5 active torsions:
REMARK  status: ('A' for Active; 'I' for Inactive)
REMARK    1  A    between atoms: C_1  and  C_2
REMARK    2  A    between atoms: C_2  and  C_3
REMARK    3  A    between atoms: C_3  and  N_4
REMARK    4  A    between atoms: C_5  and  C_7
REMARK    5  A    between atoms: C_12  and  C_14
REMARK                            x       y       z     vdW  Elec       q    Type
REMARK                         _______ _______ _______ _____ _____    ______ ____
ROOT
ATOM      1  C   UNL     1       3.547   5.006  17.561  0.00  0.00    +0.000 C 
ATOM      2  C   UNL     1       4.886   5.028  16.805  0.00  0.00    +0.000 C 
ATOM      3  C   UNL     1       5.002   6.436  16.274  0.00  0.00    +0.000 C 
ATOM      4  C   UNL     1       4.294   7.273  17.317  0.00  0.00    +0.000 C 
ATOM      5  N   UNL     1       3.501   6.366  18.135  0.00  0.00    +0.000 N 
ATOM      6  C   UNL     1       2.494   6.799  18.986  0.00  0.00    +0.000 C 
ATOM      7  O   UNL     1       1.825   5.977  19.616  0.00  0.00    +0.000 OA
ENDROOT
BRANCH   6   8
ATOM      8  C   UNL     1       2.121   8.326  19.064  0.00  0.00    +0.000 C 
ATOM      9  C   UNL     1       1.408   8.557  20.409  0.00  0.00    +0.000 C 
ATOM     10  C   UNL     1       0.596   9.820  20.461  0.00  0.00    +0.000 A 
ATOM     11  C   UNL     1       0.285  10.419  21.692  0.00  0.00    +0.000 A 
ATOM     12  C   UNL     1      -0.561  11.528  21.747  0.00  0.00    +0.000 A 
ATOM     13  C   UNL     1      -1.108  12.040  20.575  0.00  0.00    +0.000 A 
ATOM     14  C   UNL     1      -0.803  11.448  19.349  0.00  0.00    +0.000 A 
ATOM     15  C   UNL     1       0.058  10.340  19.279  0.00  0.00    +0.000 A 
ATOM     16  C   UNL     1       0.269   9.635  17.968  0.00  0.00    +0.000 C 
ATOM     17  N   UNL     1       1.484   8.832  17.825  0.00  0.00    +0.000 NA
ATOM     18  H   UNL     1       2.176   9.351  17.285  0.00  0.00    +0.000 HD
ENDBRANCH   6   8
BRANCH   1  20
ATOM     19  N   UNL     1       3.609   3.657  19.670  0.00  0.00    +0.000 N 
ATOM     20  C   UNL     1       3.567   3.652  18.306  0.00  0.00    +0.000 C 
ATOM     21  O   UNL     1       3.526   2.595  17.666  0.00  0.00    +0.000 OA
ATOM     22  H   UNL     1       3.345   4.526  20.140  0.00  0.00    +0.000 HD
BRANCH  19  23
ATOM     23  C   UNL     1       3.690   2.415  20.416  0.00  0.00    +0.000 C 
BRANCH  23  25
ATOM     24  C   UNL     1       1.305   2.816  21.156  0.00  0.00    +0.000 C 
ATOM     25  C   UNL     1       2.698   2.375  21.578  0.00  0.00    +0.000 C 
ENDBRANCH  23  25
ENDBRANCH  19  23
ENDBRANCH   1  20
TORSDOF 4
ENDMDL
MODEL 6
REMARK VINA RESULT:      -7.2      1.593      1.793
REMARK  Name = 
REMARK  5 active torsions:
REMARK  status: ('A' for Active; 'I' for Inactive)
REMARK    1  A    between atoms: C_1  and  C_2
REMARK    2  A    between atoms: C_2  and  C_3
REMARK    3  A    between atoms: C_3  and  N_4
REMARK    4  A    between atoms: C_5  and  C_7
REMARK    5  A    between atoms: C_12  and  C_14
REMARK                            x       y       z     vdW  Elec       q    Type
REMARK                         _______ _______ _______ _____ _____    ______ ____
ROOT
ATOM      1  C   UNL     1       3.793   4.412  19.803  0.00  0.00    +0.000 C 
ATOM      2  C   UNL     1       3.181   3.013  19.985  0.00  0.00    +0.000 C 
ATOM      3  C   UNL     1       1.952   3.240  20.831  0.00  0.00    +0.000 C 
ATOM      4  C   UNL     1       1.484   4.620  20.423  0.00  0.00    +0.000 C 
ATOM      5  N   UNL     1       2.587   5.261  19.722  0.00  0.00    +0.000 N 
ATOM      6  C   UNL     1       2.634   6.626  19.472  0.00  0.00    +0.000 C 
ATOM      7  O   UNL     1       3.619   7.116  18.916  0.00  0.00    +0.000 OA
ENDROOT
BRANCH   6   8
ATOM      8  C   UNL     1       1.490   7.570  19.997  0.00  0.00    +0.000 C 
ATOM      9  C   UNL     1       1.393   8.760  19.026  0.00  0.00    +0.000 C 
ATOM     10  C   UNL     1       0.691   9.960  19.597  0.00  0.00    +0.000 A 
ATOM     11  C   UNL     1       0.105  10.914  18.750  0.00  0.00    +0.000 A 
ATOM     12  C   UNL     1      -0.448  12.083  19.276  0.00  0.00    +0.000 A 
ATOM     13  C   UNL     1      -0.414  12.308  20.649  0.00  0.00    +0.000 A 
ATOM     14  C   UNL     1       0.168  11.363  21.494  0.00  0.00    +0.000 A 
ATOM     15  C   UNL     1       0.716  10.177  20.978  0.00  0.00    +0.000 A 
ATOM     16  C   UNL     1       1.455   9.235  21.887  0.00  0.00    +0.000 C 
ATOM     17  N   UNL     1       1.584   7.843  21.451  0.00  0.00    +0.000 NA
ATOM     18  H   UNL     1       0.903   7.266  21.943  0.00  0.00    +0.000 HD
ENDBRANCH   6   8
BRANCH   1  20
ATOM     19  N   UNL     1       6.095   4.815  18.903  0.00  0.00    +0.000 N 
ATOM     20  C   UNL     1       4.888   4.199  18.734  0.00  0.00    +0.000 C 
ATOM     21  O   UNL     1       4.669   3.467  17.762  0.00  0.00    +0.000 OA
ATOM     22  H   UNL     1       6.317   5.151  19.843  0.00  0.00    +0.000 HD
BRANCH  19  23
ATOM     23  C   UNL     1       7.137   4.697  17.900  0.00  0.00    +0.000 C 
BRANCH  23  25
ATOM     24  C   UNL     1       7.519   7.184  17.643  0.00  0.00    +0.000 C 
ATOM     25  C   UNL     1       7.149   5.887  16.940  0.00  0.00    +0.000 C 
ENDBRANCH  23  25
ENDBRANCH  19  23
ENDBRANCH   1  20
TORSDOF 4
ENDMDL
MODEL 7
REMARK VINA RESULT:      -7.2      1.012      1.150
REMARK  Name = 
REMARK  5 active torsions:
REMARK  status: ('A' for Active; 'I' for Inactive)
REMARK    1  A    between atoms: C_1  and  C_2
REMARK    2  A    between atoms: C_2  and  C_3
REMARK    3  A    between atoms: C_3  and  N_4
REMARK    4  A    between atoms: C_5  and  C_7
REMARK    5  A    between atoms: C_12  and  C_14
REMARK                            x       y       z     vdW  Elec       q    Type
REMARK                         _______ _______ _______ _____ _____    ______ ____
ROOT
ATOM      1  C   UNL     1       3.360   4.182  19.951  0.00  0.00    +0.000 C 
ATOM      2  C   UNL     1       2.602   2.849  20.064  0.00  0.00    +0.000 C 
ATOM      3  C   UNL     1       1.352   3.185  20.840  0.00  0.00    +0.000 C 
ATOM      4  C   UNL     1       1.050   4.612  20.436  0.00  0.00    +0.000 C 
ATOM      5  N   UNL     1       2.253   5.150  19.816  0.00  0.00    +0.000 N 
ATOM      6  C   UNL     1       2.451   6.507  19.600  0.00  0.00    +0.000 C 
ATOM      7  O   UNL     1       3.512   6.904  19.115  0.00  0.00    +0.000 OA
ENDROOT
BRANCH   6   8
ATOM      8  C   UNL     1       1.376   7.552  20.076  0.00  0.00    +0.000 C 
ATOM      9  C   UNL     1       1.374   8.708  19.059  0.00  0.00    +0.000 C 
ATOM     10  C   UNL     1       0.759   9.977  19.575  0.00  0.00    +0.000 A 
ATOM     11  C   UNL     1       0.252  10.938  18.686  0.00  0.00    +0.000 A 
ATOM     12  C   UNL     1      -0.217  12.164  19.160  0.00  0.00    +0.000 A 
ATOM     13  C   UNL     1      -0.176  12.441  20.523  0.00  0.00    +0.000 A 
ATOM     14  C   UNL     1       0.327  11.489  21.411  0.00  0.00    +0.000 A 
ATOM     15  C   UNL     1       0.790  10.247  20.947  0.00  0.00    +0.000 A 
ATOM     16  C   UNL     1       1.450   9.289  21.899  0.00  0.00    +0.000 C 
ATOM     17  N   UNL     1       1.479   7.876  21.519  0.00  0.00    +0.000 NA
ATOM     18  H   UNL     1       0.754   7.370  22.026  0.00  0.00    +0.000 HD
ENDBRANCH   6   8
BRANCH   1  20
ATOM     19  N   UNL     1       4.275   4.121  17.621  0.00  0.00    +0.000 N 
ATOM     20  C   UNL     1       4.494   3.877  18.946  0.00  0.00    +0.000 C 
ATOM     21  O   UNL     1       5.577   3.439  19.351  0.00  0.00    +0.000 OA
ATOM     22  H   UNL     1       3.499   4.744  17.385  0.00  0.00    +0.000 HD
BRANCH  19  23
ATOM     23  C   UNL     1       5.283   3.796  16.629  0.00  0.00    +0.000 C 
BRANCH  23  25
ATOM     24  C   UNL     1       5.958   4.249  14.233  0.00  0.00    +0.000 C 
ATOM     25  C   UNL     1       5.326   4.819  15.494  0.00  0.00    +0.000 C 
ENDBRANCH  23  25
ENDBRANCH  19  23
ENDBRANCH   1  20
TORSDOF 4
ENDMDL
MODEL 8
REMARK VINA RESULT:      -7.1      2.719      7.915
REMARK  Name = 
REMARK  5 active torsions:
REMARK  status: ('A' for Active; 'I' for Inactive)
REMARK    1  A    between atoms: C_1  and  C_2
REMARK    2  A    between atoms: C_2  and  C_3
REMARK    3  A    between atoms: C_3  and  N_4
REMARK    4  A    between atoms: C_5  and  C_7
REMARK    5  A    between atoms: C_12  and  C_14
REMARK                            x       y       z     vdW  Elec       q    Type
REMARK                         _______ _______ _______ _____ _____    ______ ____
ROOT
ATOM      1  C   UNL     1      -0.332   9.911  20.194  0.00  0.00    +0.000 C 
ATOM      2  C   UNL     1      -0.376  10.308  21.679  0.00  0.00    +0.000 C 
ATOM      3  C   UNL     1       0.340   9.189  22.395  0.00  0.00    +0.000 C 
ATOM      4  C   UNL     1       1.374   8.723  21.392  0.00  0.00    +0.000 C 
ATOM      5  N   UNL     1       0.988   9.258  20.094  0.00  0.00    +0.000 N 
ATOM      6  C   UNL     1       1.520   8.796  18.897  0.00  0.00    +0.000 C 
ATOM      7  O   UNL     1       1.117   9.256  17.827  0.00  0.00    +0.000 OA
ENDROOT
BRANCH   6   8
ATOM      8  C   UNL     1       2.550   7.607  18.892  0.00  0.00    +0.000 C 
ATOM      9  C   UNL     1       3.364   7.708  17.589  0.00  0.00    +0.000 C 
ATOM     10  C   UNL     1       4.062   6.436  17.203  0.00  0.00    +0.000 A 
ATOM     11  C   UNL     1       5.184   6.464  16.358  0.00  0.00    +0.000 A 
ATOM     12  C   UNL     1       5.763   5.276  15.910  0.00  0.00    +0.000 A 
ATOM     13  C   UNL     1       5.222   4.053  16.296  0.00  0.00    +0.000 A 
ATOM     14  C   UNL     1       4.107   4.020  17.135  0.00  0.00    +0.000 A 
ATOM     15  C   UNL     1       3.524   5.208  17.603  0.00  0.00    +0.000 A 
ATOM     16  C   UNL     1       2.246   5.156  18.395  0.00  0.00    +0.000 C 
ATOM     17  N   UNL     1       1.937   6.305  19.248  0.00  0.00    +0.000 NA
ATOM     18  H   UNL     1       2.164   6.084  20.216  0.00  0.00    +0.000 HD
ENDBRANCH   6   8
BRANCH   1  20
ATOM     19  N   UNL     1       0.086  12.011  18.896  0.00  0.00    +0.000 N 
ATOM     20  C   UNL     1      -0.834  11.175  19.460  0.00  0.00    +0.000 C 
ATOM     21  O   UNL     1      -2.047  11.401  19.377  0.00  0.00    +0.000 OA
ATOM     22  H   UNL     1       1.022  11.633  18.738  0.00  0.00    +0.000 HD
BRANCH  19  23
ATOM     23  C   UNL     1      -0.328  13.243  18.248  0.00  0.00    +0.000 C 
BRANCH  23  25
ATOM     24  C   UNL     1       1.634  14.617  19.061  0.00  0.00    +0.000 C 
ATOM     25  C   UNL     1       0.119  14.481  19.025  0.00  0.00    +0.000 C 
ENDBRANCH  23  25
ENDBRANCH  19  23
ENDBRANCH   1  20
TORSDOF 4
ENDMDL
MODEL 9
REMARK VINA RESULT:      -6.9      2.674      7.724
REMARK  Name = 
REMARK  5 active torsions:
REMARK  status: ('A' for Active; 'I' for Inactive)
REMARK    1  A    between atoms: C_1  and  C_2
REMARK    2  A    between atoms: C_2  and  C_3
REMARK    3  A    between atoms: C_3  and  N_4
REMARK    4  A    between atoms: C_5  and  C_7
REMARK    5  A    between atoms: C_12  and  C_14
REMARK                            x       y       z     vdW  Elec       q    Type
REMARK                         _______ _______ _______ _____ _____    ______ ____
ROOT
ATOM      1  C   UNL     1      -0.369  10.157  20.870  0.00  0.00    +0.000 C 
ATOM      2  C   UNL     1      -0.427  10.639  22.329  0.00  0.00    +0.000 C 
ATOM      3  C   UNL     1       0.138   9.493  23.133  0.00  0.00    +0.000 C 
ATOM      4  C   UNL     1       1.155   8.868  22.203  0.00  0.00    +0.000 C 
ATOM      5  N   UNL     1       0.878   9.366  20.862  0.00  0.00    +0.000 N 
ATOM      6  C   UNL     1       1.403   8.784  19.716  0.00  0.00    +0.000 C 
ATOM      7  O   UNL     1       1.093   9.223  18.607  0.00  0.00    +0.000 OA
ENDROOT
BRANCH   6   8
ATOM      8  C   UNL     1       2.301   7.496  19.818  0.00  0.00    +0.000 C 
ATOM      9  C   UNL     1       2.735   7.123  18.389  0.00  0.00    +0.000 C 
ATOM     10  C   UNL     1       3.204   5.703  18.243  0.00  0.00    +0.000 A 
ATOM     11  C   UNL     1       4.052   5.336  17.186  0.00  0.00    +0.000 A 
ATOM     12  C   UNL     1       4.397   3.999  16.986  0.00  0.00    +0.000 A 
ATOM     13  C   UNL     1       3.892   3.019  17.836  0.00  0.00    +0.000 A 
ATOM     14  C   UNL     1       3.048   3.379  18.887  0.00  0.00    +0.000 A 
ATOM     15  C   UNL     1       2.705   4.723  19.107  0.00  0.00    +0.000 A 
ATOM     16  C   UNL     1       1.691   5.076  20.160  0.00  0.00    +0.000 C 
ATOM     17  N   UNL     1       1.712   6.444  20.681  0.00  0.00    +0.000 NA
ATOM     18  H   UNL     1       2.178   6.458  21.587  0.00  0.00    +0.000 HD
ENDBRANCH   6   8
BRANCH   1  20
ATOM     19  N   UNL     1       0.321  12.140  19.505  0.00  0.00    +0.000 N 
ATOM     20  C   UNL     1      -0.705  11.423  20.050  0.00  0.00    +0.000 C 
ATOM     21  O   UNL     1      -1.884  11.756  19.884  0.00  0.00    +0.000 OA
ATOM     22  H   UNL     1       1.224  11.668  19.422  0.00  0.00    +0.000 HD
BRANCH  19  23
ATOM     23  C   UNL     1       0.064  13.369  18.778  0.00  0.00    +0.000 C 
BRANCH  23  25
ATOM     24  C   UNL     1       2.546  13.282  18.298  0.00  0.00    +0.000 C 
ATOM     25  C   UNL     1       1.341  14.177  18.544  0.00  0.00    +0.000 C 
ENDBRANCH  23  25
ENDBRANCH  19  23
ENDBRANCH   1  20
TORSDOF 4
ENDMDL
