MODEL 1
REMARK VINA RESULT:      -8.4      0.000      0.000
REMARK  Name = 
REMARK  5 active torsions:
REMARK  status: ('A' for Active; 'I' for Inactive)
REMARK    1  A    between atoms: C_2  and  C_13
REMARK    2  A    between atoms: N_3  and  C_4
REMARK    3  A    between atoms: C_4  and  C_5
REMARK    4  A    between atoms: C_5  and  C_6
REMARK    5  A    between atoms: C_13  and  N_14
REMARK                            x       y       z     vdW  Elec       q    Type
REMARK                         _______ _______ _______ _____ _____    ______ ____
ROOT
ATOM      1  O   UNL     1       7.476   5.632  18.414  0.00  0.00    +0.000 OA
ATOM      2  C   UNL     1       6.929   6.272  17.515  0.00  0.00    +0.000 C 
ATOM      3  N   UNL     1       7.258   7.586  17.272  0.00  0.00    +0.000 N 
ATOM      4  H   UNL     1       6.723   8.125  16.603  0.00  0.00    +0.000 HD
ENDROOT
BRANCH   2   5
ATOM      5  C   UNL     1       5.774   5.670  16.671  0.00  0.00    +0.000 C 
ATOM      6  C   UNL     1       5.062   4.448  17.324  0.00  0.00    +0.000 C 
ATOM      7  C   UNL     1       4.246   4.776  18.571  0.00  0.00    +0.000 C 
ATOM      8  C   UNL     1       3.251   5.897  18.316  0.00  0.00    +0.000 C 
ATOM      9  C   UNL     1       3.951   7.125  17.752  0.00  0.00    +0.000 C 
ATOM     10  C   UNL     1       4.703   6.784  16.459  0.00  0.00    +0.000 C 
BRANCH   5  11
ATOM     11  N   UNL     1       6.383   5.252  15.407  0.00  0.00    +0.000 N 
ATOM     12  C   UNL     1       5.911   4.455  14.412  0.00  0.00    +0.000 A 
ATOM     13  N   UNL     1       6.818   4.375  13.465  0.00  0.00    +0.000 NA
ATOM     14  N   UNL     1       7.867   5.153  13.882  0.00  0.00    +0.000 NA
ATOM     15  N   UNL     1       7.614   5.697  15.064  0.00  0.00    +0.000 NA
ENDBRANCH   5  11
ENDBRANCH   2   5
BRANCH   3  16
ATOM     16  C   UNL     1       8.285   8.284  18.033  0.00  0.00    +0.000 C 
BRANCH  16  17
ATOM     17  C   UNL     1       8.084   9.796  17.944  0.00  0.00    +0.000 C 
BRANCH  17  18
ATOM     18  C   UNL     1       9.207  10.614  18.526  0.00  0.00    +0.000 A 
ATOM     19  C   UNL     1      10.306  10.999  17.743  0.00  0.00    +0.000 A 
ATOM     20  C   UNL     1      11.368  11.714  18.307  0.00  0.00    +0.000 A 
ATOM     21  C   UNL     1      11.347  12.041  19.661  0.00  0.00    +0.000 A 
ATOM     22  C   UNL     1      10.263  11.655  20.440  0.00  0.00    +0.000 A 
ATOM     23  F   UNL     1      10.246  11.958  21.744  0.00  0.00    +0.000 F 
ATOM     24  C   UNL     1       9.199  10.949  19.888  0.00  0.00    +0.000 A 
ENDBRANCH  17  18
ENDBRANCH  16  17
ENDBRANCH   3  16
TORSDOF 5
ENDMDL
MODEL 2
REMARK VINA RESULT:      -8.1      4.175      7.266
REMARK  Name = 
REMARK  5 active torsions:
REMARK  status: ('A' for Active; 'I' for Inactive)
REMARK    1  A    between atoms: C_2  and  C_13
REMARK    2  A    between atoms: N_3  and  C_4
REMARK    3  A    between atoms: C_4  and  C_5
REMARK    4  A    between atoms: C_5  and  C_6
REMARK    5  A    between atoms: C_13  and  N_14
REMARK                            x       y       z     vdW  Elec       q    Type
REMARK                         _______ _______ _______ _____ _____    ______ ____
ROOT
ATOM      1  O   UNL     1       4.775   4.108  17.491  0.00  0.00    +0.000 OA
ATOM      2  C   UNL     1       5.208   5.222  17.196  0.00  0.00    +0.000 C 
ATOM      3  N   UNL     1       4.401   6.335  17.236  0.00  0.00    +0.000 N 
ATOM      4  H   UNL     1       4.745   7.221  16.887  0.00  0.00    +0.000 HD
ENDROOT
BRANCH   2   5
ATOM      5  C   UNL     1       6.655   5.422  16.669  0.00  0.00    +0.000 C 
ATOM      6  C   UNL     1       7.134   6.904  16.633  0.00  0.00    +0.000 C 
ATOM      7  C   UNL     1       7.333   7.542  18.005  0.00  0.00    +0.000 C 
ATOM      8  C   UNL     1       8.247   6.709  18.888  0.00  0.00    +0.000 C 
ATOM      9  C   UNL     1       7.742   5.277  18.993  0.00  0.00    +0.000 C 
ATOM     10  C   UNL     1       7.621   4.634  17.606  0.00  0.00    +0.000 C 
BRANCH   5  11
ATOM     11  N   UNL     1       6.657   4.884  15.307  0.00  0.00    +0.000 N 
ATOM     12  C   UNL     1       5.879   3.933  14.724  0.00  0.00    +0.000 A 
ATOM     13  N   UNL     1       6.249   3.790  13.472  0.00  0.00    +0.000 NA
ATOM     14  N   UNL     1       7.269   4.686  13.276  0.00  0.00    +0.000 NA
ATOM     15  N   UNL     1       7.526   5.362  14.387  0.00  0.00    +0.000 NA
ENDBRANCH   5  11
ENDBRANCH   2   5
BRANCH   3  16
ATOM     16  C   UNL     1       3.009   6.272  17.658  0.00  0.00    +0.000 C 
BRANCH  16  17
ATOM     17  C   UNL     1       2.911   6.256  19.183  0.00  0.00    +0.000 C 
BRANCH  17  18
ATOM     18  C   UNL     1       2.290   5.010  19.760  0.00  0.00    +0.000 A 
ATOM     19  C   UNL     1       2.515   4.638  21.094  0.00  0.00    +0.000 A 
ATOM     20  C   UNL     1       1.976   3.452  21.603  0.00  0.00    +0.000 A 
ATOM     21  C   UNL     1       1.215   2.623  20.782  0.00  0.00    +0.000 A 
ATOM     22  C   UNL     1       0.996   2.987  19.460  0.00  0.00    +0.000 A 
ATOM     23  F   UNL     1       0.275   2.185  18.665  0.00  0.00    +0.000 F 
ATOM     24  C   UNL     1       1.523   4.166  18.944  0.00  0.00    +0.000 A 
ENDBRANCH  17  18
ENDBRANCH  16  17
ENDBRANCH   3  16
TORSDOF 5
ENDMDL
MODEL 3
REMARK VINA RESULT:      -8.0      3.817      7.151
REMARK  Name = 
REMARK  5 active torsions:
REMARK  status: ('A' for Active; 'I' for Inactive)
REMARK    1  A    between atoms: C_2  and  C_13
REMARK    2  A    between atoms: N_3  and  C_4
REMARK    3  A    between atoms: C_4  and  C_5
REMARK    4  A    between atoms: C_5  and  C_6
REMARK    5  A    between atoms: C_13  and  N_14
REMARK                            x       y       z     vdW  Elec       q    Type
REMARK                         _______ _______ _______ _____ _____    ______ ____
ROOT
ATOM      1  O   UNL     1       4.602   7.131  16.032  0.00  0.00    +0.000 OA
ATOM      2  C   UNL     1       5.018   6.124  16.604  0.00  0.00    +0.000 C 
ATOM      3  N   UNL     1       4.224   5.418  17.478  0.00  0.00    +0.000 N 
ATOM      4  H   UNL     1       4.619   4.658  18.017  0.00  0.00    +0.000 HD
ENDROOT
BRANCH   2   5
ATOM      5  C   UNL     1       6.488   5.648  16.450  0.00  0.00    +0.000 C 
ATOM      6  C   UNL     1       7.551   6.782  16.547  0.00  0.00    +0.000 C 
ATOM      7  C   UNL     1       7.690   7.409  17.931  0.00  0.00    +0.000 C 
ATOM      8  C   UNL     1       7.932   6.360  19.004  0.00  0.00    +0.000 C 
ATOM      9  C   UNL     1       6.852   5.289  18.968  0.00  0.00    +0.000 C 
ATOM     10  C   UNL     1       6.783   4.624  17.588  0.00  0.00    +0.000 C 
BRANCH   5  11
ATOM     11  N   UNL     1       6.566   5.028  15.126  0.00  0.00    +0.000 N 
ATOM     12  C   UNL     1       5.793   4.074  14.542  0.00  0.00    +0.000 A 
ATOM     13  N   UNL     1       6.247   3.842  13.331  0.00  0.00    +0.000 NA
ATOM     14  N   UNL     1       7.316   4.684  13.161  0.00  0.00    +0.000 NA
ATOM     15  N   UNL     1       7.519   5.416  14.247  0.00  0.00    +0.000 NA
ENDBRANCH   5  11
ENDBRANCH   2   5
BRANCH   3  16
ATOM     16  C   UNL     1       2.845   5.796  17.752  0.00  0.00    +0.000 C 
BRANCH  16  17
ATOM     17  C   UNL     1       1.961   4.554  17.864  0.00  0.00    +0.000 C 
BRANCH  17  18
ATOM     18  C   UNL     1       2.109   3.792  19.156  0.00  0.00    +0.000 A 
ATOM     19  C   UNL     1       1.072   3.761  20.102  0.00  0.00    +0.000 A 
ATOM     20  C   UNL     1       1.240   3.095  21.320  0.00  0.00    +0.000 A 
ATOM     21  C   UNL     1       2.447   2.462  21.609  0.00  0.00    +0.000 A 
ATOM     22  C   UNL     1       3.476   2.498  20.677  0.00  0.00    +0.000 A 
ATOM     23  F   UNL     1       4.642   1.902  20.957  0.00  0.00    +0.000 F 
ATOM     24  C   UNL     1       3.319   3.153  19.460  0.00  0.00    +0.000 A 
ENDBRANCH  17  18
ENDBRANCH  16  17
ENDBRANCH   3  16
TORSDOF 5
ENDMDL
MODEL 4
REMARK VINA RESULT:      -8.0      3.978      6.960
REMARK  Name = 
REMARK  5 active torsions:
REMARK  status: ('A' for Active; 'I' for Inactive)
REMARK    1  A    between atoms: C_2  and  C_13
REMARK    2  A    between atoms: N_3  and  C_4
REMARK    3  A    between atoms: C_4  and  C_5
REMARK    4  A    between atoms: C_5  and  C_6
REMARK    5  A    between atoms: C_13  and  N_14
REMARK                            x       y       z     vdW  Elec       q    Type
REMARK                         _______ _______ _______ _____ _____    ______ ____
ROOT
ATOM      1  O   UNL     1       4.866   7.196  15.705  0.00  0.00    +0.000 OA
ATOM      2  C   UNL     1       5.131   6.404  16.609  0.00  0.00    +0.000 C 
ATOM      3  N   UNL     1       4.310   6.269  17.704  0.00  0.00    +0.000 N 
ATOM      4  H   UNL     1       4.601   5.694  18.485  0.00  0.00    +0.000 HD
ENDROOT
BRANCH   2   5
ATOM      5  C   UNL     1       6.451   5.587  16.615  0.00  0.00    +0.000 C 
ATOM      6  C   UNL     1       7.732   6.425  16.907  0.00  0.00    +0.000 C 
ATOM      7  C   UNL     1       7.828   6.968  18.330  0.00  0.00    +0.000 C 
ATOM      8  C   UNL     1       7.665   5.868  19.367  0.00  0.00    +0.000 C 
ATOM      9  C   UNL     1       6.375   5.094  19.136  0.00  0.00    +0.000 C 
ATOM     10  C   UNL     1       6.336   4.497  17.725  0.00  0.00    +0.000 C 
BRANCH   5  11
ATOM     11  N   UNL     1       6.558   4.997  15.280  0.00  0.00    +0.000 N 
ATOM     12  C   UNL     1       5.838   4.010  14.683  0.00  0.00    +0.000 A 
ATOM     13  N   UNL     1       6.297   3.826  13.466  0.00  0.00    +0.000 NA
ATOM     14  N   UNL     1       7.314   4.731  13.306  0.00  0.00    +0.000 NA
ATOM     15  N   UNL     1       7.481   5.455  14.404  0.00  0.00    +0.000 NA
ENDBRANCH   5  11
ENDBRANCH   2   5
BRANCH   3  16
ATOM     16  C   UNL     1       3.072   7.022  17.845  0.00  0.00    +0.000 C 
BRANCH  16  17
ATOM     17  C   UNL     1       2.385   6.683  19.168  0.00  0.00    +0.000 C 
BRANCH  17  18
ATOM     18  C   UNL     1       2.121   5.214  19.380  0.00  0.00    +0.000 A 
ATOM     19  C   UNL     1       1.576   4.421  18.358  0.00  0.00    +0.000 A 
ATOM     20  C   UNL     1       1.286   3.071  18.582  0.00  0.00    +0.000 A 
ATOM     21  C   UNL     1       1.528   2.504  19.831  0.00  0.00    +0.000 A 
ATOM     22  C   UNL     1       2.060   3.290  20.846  0.00  0.00    +0.000 A 
ATOM     23  F   UNL     1       2.281   2.750  22.052  0.00  0.00    +0.000 F 
ATOM     24  C   UNL     1       2.357   4.632  20.633  0.00  0.00    +0.000 A 
ENDBRANCH  17  18
ENDBRANCH  16  17
ENDBRANCH   3  16
TORSDOF 5
ENDMDL
MODEL 5
REMARK VINA RESULT:      -7.9      1.193      1.576
REMARK  Name = 
REMARK  5 active torsions:
REMARK  status: ('A' for Active; 'I' for Inactive)
REMARK    1  A    between atoms: C_2  and  C_13
REMARK    2  A    between atoms: N_3  and  C_4
REMARK    3  A    between atoms: C_4  and  C_5
REMARK    4  A    between atoms: C_5  and  C_6
REMARK    5  A    between atoms: C_13  and  N_14
REMARK                            x       y       z     vdW  Elec       q    Type
REMARK                         _______ _______ _______ _____ _____    ______ ____
ROOT
ATOM      1  O   UNL     1       7.053   5.762  19.404  0.00  0.00    +0.000 OA
ATOM      2  C   UNL     1       6.759   6.149  18.272  0.00  0.00    +0.000 C 
ATOM      3  N   UNL     1       7.309   7.294  17.745  0.00  0.00    +0.000 N 
ATOM      4  H   UNL     1       6.974   7.653  16.859  0.00  0.00    +0.000 HD
ENDROOT
BRANCH   2   5
ATOM      5  C   UNL     1       5.683   5.428  17.417  0.00  0.00    +0.000 C 
ATOM      6  C   UNL     1       5.265   4.024  17.948  0.00  0.00    +0.000 C 
ATOM      7  C   UNL     1       4.492   4.044  19.264  0.00  0.00    +0.000 C 
ATOM      8  C   UNL     1       3.286   4.968  19.196  0.00  0.00    +0.000 C 
ATOM      9  C   UNL     1       3.698   6.364  18.753  0.00  0.00    +0.000 C 
ATOM     10  C   UNL     1       4.407   6.324  17.395  0.00  0.00    +0.000 C 
BRANCH   5  11
ATOM     11  N   UNL     1       6.270   5.281  16.084  0.00  0.00    +0.000 N 
ATOM     12  C   UNL     1       5.702   5.340  14.850  0.00  0.00    +0.000 A 
ATOM     13  N   UNL     1       6.635   5.156  13.943  0.00  0.00    +0.000 NA
ATOM     14  N   UNL     1       7.808   4.995  14.637  0.00  0.00    +0.000 NA
ATOM     15  N   UNL     1       7.599   5.073  15.944  0.00  0.00    +0.000 NA
ENDBRANCH   5  11
ENDBRANCH   2   5
BRANCH   3  16
ATOM     16  C   UNL     1       8.287   8.092  18.470  0.00  0.00    +0.000 C 
BRANCH  16  17
ATOM     17  C   UNL     1       8.281   9.536  17.966  0.00  0.00    +0.000 C 
BRANCH  17  18
ATOM     18  C   UNL     1       9.307  10.430  18.612  0.00  0.00    +0.000 A 
ATOM     19  C   UNL     1       9.292  10.670  19.995  0.00  0.00    +0.000 A 
ATOM     20  C   UNL     1      10.217  11.543  20.577  0.00  0.00    +0.000 A 
ATOM     21  C   UNL     1      11.159  12.192  19.782  0.00  0.00    +0.000 A 
ATOM     22  C   UNL     1      11.171  11.961  18.412  0.00  0.00    +0.000 A 
ATOM     23  F   UNL     1      12.067  12.594  17.643  0.00  0.00    +0.000 F 
ATOM     24  C   UNL     1      10.259  11.091  17.823  0.00  0.00    +0.000 A 
ENDBRANCH  17  18
ENDBRANCH  16  17
ENDBRANCH   3  16
TORSDOF 5
ENDMDL
MODEL 6
REMARK VINA RESULT:      -7.9      5.794      7.507
REMARK  Name = 
REMARK  5 active torsions:
REMARK  status: ('A' for Active; 'I' for Inactive)
REMARK    1  A    between atoms: C_2  and  C_13
REMARK    2  A    between atoms: N_3  and  C_4
REMARK    3  A    between atoms: C_4  and  C_5
REMARK    4  A    between atoms: C_5  and  C_6
REMARK    5  A    between atoms: C_13  and  N_14
REMARK                            x       y       z     vdW  Elec       q    Type
REMARK                         _______ _______ _______ _____ _____    ______ ____
ROOT
ATOM      1  O   UNL     1       2.905   6.776  17.937  0.00  0.00    +0.000 OA
ATOM      2  C   UNL     1       2.818   6.058  18.934  0.00  0.00    +0.000 C 
ATOM      3  N   UNL     1       2.328   6.545  20.124  0.00  0.00    +0.000 N 
ATOM      4  H   UNL     1       2.366   5.971  20.957  0.00  0.00    +0.000 HD
ENDROOT
BRANCH   2   5
ATOM      5  C   UNL     1       3.343   4.598  18.935  0.00  0.00    +0.000 C 
ATOM      6  C   UNL     1       2.930   3.760  20.182  0.00  0.00    +0.000 C 
ATOM      7  C   UNL     1       1.441   3.435  20.267  0.00  0.00    +0.000 C 
ATOM      8  C   UNL     1       0.933   2.779  18.993  0.00  0.00    +0.000 C 
ATOM      9  C   UNL     1       1.264   3.630  17.776  0.00  0.00    +0.000 C 
ATOM     10  C   UNL     1       2.773   3.881  17.673  0.00  0.00    +0.000 C 
BRANCH   5  11
ATOM     11  N   UNL     1       4.803   4.702  18.889  0.00  0.00    +0.000 N 
ATOM     12  C   UNL     1       5.698   4.270  17.961  0.00  0.00    +0.000 A 
ATOM     13  N   UNL     1       6.908   4.603  18.351  0.00  0.00    +0.000 NA
ATOM     14  N   UNL     1       6.751   5.269  19.539  0.00  0.00    +0.000 NA
ATOM     15  N   UNL     1       5.472   5.339  19.878  0.00  0.00    +0.000 NA
ENDBRANCH   5  11
ENDBRANCH   2   5
BRANCH   3  16
ATOM     16  C   UNL     1       1.857   7.915  20.269  0.00  0.00    +0.000 C 
BRANCH  16  17
ATOM     17  C   UNL     1       1.179   8.108  21.625  0.00  0.00    +0.000 C 
BRANCH  17  18
ATOM     18  C   UNL     1       0.336   9.352  21.734  0.00  0.00    +0.000 A 
ATOM     19  C   UNL     1      -0.254   9.725  22.951  0.00  0.00    +0.000 A 
ATOM     20  C   UNL     1      -1.077  10.853  23.029  0.00  0.00    +0.000 A 
ATOM     21  C   UNL     1      -1.325  11.614  21.889  0.00  0.00    +0.000 A 
ATOM     22  C   UNL     1      -0.747  11.244  20.681  0.00  0.00    +0.000 A 
ATOM     23  F   UNL     1      -0.994  11.967  19.581  0.00  0.00    +0.000 F 
ATOM     24  C   UNL     1       0.077  10.126  20.594  0.00  0.00    +0.000 A 
ENDBRANCH  17  18
ENDBRANCH  16  17
ENDBRANCH   3  16
TORSDOF 5
ENDMDL
MODEL 7
REMARK VINA RESULT:      -7.9      5.478      7.292
REMARK  Name = 
REMARK  5 active torsions:
REMARK  status: ('A' for Active; 'I' for Inactive)
REMARK    1  A    between atoms: C_2  and  C_13
REMARK    2  A    between atoms: N_3  and  C_4
REMARK    3  A    between atoms: C_4  and  C_5
REMARK    4  A    between atoms: C_5  and  C_6
REMARK    5  A    between atoms: C_13  and  N_14
REMARK                            x       y       z     vdW  Elec       q    Type
REMARK                         _______ _______ _______ _____ _____    ______ ____
ROOT
ATOM      1  O   UNL     1       5.030   5.087  19.333  0.00  0.00    +0.000 OA
ATOM      2  C   UNL     1       4.037   5.125  18.606  0.00  0.00    +0.000 C 
ATOM      3  N   UNL     1       4.156   5.203  17.237  0.00  0.00    +0.000 N 
ATOM      4  H   UNL     1       3.332   5.343  16.666  0.00  0.00    +0.000 HD
ENDROOT
BRANCH   2   5
ATOM      5  C   UNL     1       2.600   5.189  19.190  0.00  0.00    +0.000 C 
ATOM      6  C   UNL     1       1.523   4.442  18.349  0.00  0.00    +0.000 C 
ATOM      7  C   UNL     1       1.665   2.923  18.337  0.00  0.00    +0.000 C 
ATOM      8  C   UNL     1       1.732   2.351  19.744  0.00  0.00    +0.000 C 
ATOM      9  C   UNL     1       2.835   3.021  20.549  0.00  0.00    +0.000 C 
ATOM     10  C   UNL     1       2.629   4.539  20.608  0.00  0.00    +0.000 C 
BRANCH   5  11
ATOM     11  N   UNL     1       2.261   6.612  19.250  0.00  0.00    +0.000 N 
ATOM     12  C   UNL     1       1.755   7.365  20.264  0.00  0.00    +0.000 A 
ATOM     13  N   UNL     1       1.624   8.604  19.848  0.00  0.00    +0.000 NA
ATOM     14  N   UNL     1       2.073   8.617  18.552  0.00  0.00    +0.000 NA
ATOM     15  N   UNL     1       2.467   7.408  18.176  0.00  0.00    +0.000 NA
ENDBRANCH   5  11
ENDBRANCH   2   5
BRANCH   3  16
ATOM     16  C   UNL     1       5.450   5.209  16.569  0.00  0.00    +0.000 C 
BRANCH  16  17
ATOM     17  C   UNL     1       5.646   3.922  15.768  0.00  0.00    +0.000 C 
BRANCH  17  18
ATOM     18  C   UNL     1       6.205   4.123  14.384  0.00  0.00    +0.000 A 
ATOM     19  C   UNL     1       5.731   3.377  13.294  0.00  0.00    +0.000 A 
ATOM     20  C   UNL     1       6.293   3.535  12.023  0.00  0.00    +0.000 A 
ATOM     21  C   UNL     1       7.340   4.432  11.831  0.00  0.00    +0.000 A 
ATOM     22  C   UNL     1       7.816   5.168  12.909  0.00  0.00    +0.000 A 
ATOM     23  F   UNL     1       8.831   6.022  12.730  0.00  0.00    +0.000 F 
ATOM     24  C   UNL     1       7.261   5.022  14.177  0.00  0.00    +0.000 A 
ENDBRANCH  17  18
ENDBRANCH  16  17
ENDBRANCH   3  16
TORSDOF 5
ENDMDL
MODEL 8
REMARK VINA RESULT:      -7.9      4.269      7.375
REMARK  Name = 
REMARK  5 active torsions:
REMARK  status: ('A' for Active; 'I' for Inactive)
REMARK    1  A    between atoms: C_2  and  C_13
REMARK    2  A    between atoms: N_3  and  C_4
REMARK    3  A    between atoms: C_4  and  C_5
REMARK    4  A    between atoms: C_5  and  C_6
REMARK    5  A    between atoms: C_13  and  N_14
REMARK                            x       y       z     vdW  Elec       q    Type
REMARK                         _______ _______ _______ _____ _____    ______ ____
ROOT
ATOM      1  O   UNL     1       4.848   7.565  16.547  0.00  0.00    +0.000 OA
ATOM      2  C   UNL     1       4.967   6.420  16.982  0.00  0.00    +0.000 C 
ATOM      3  N   UNL     1       3.964   5.825  17.711  0.00  0.00    +0.000 N 
ATOM      4  H   UNL     1       4.124   4.927  18.150  0.00  0.00    +0.000 HD
ENDROOT
BRANCH   2   5
ATOM      5  C   UNL     1       6.287   5.620  16.821  0.00  0.00    +0.000 C 
ATOM      6  C   UNL     1       7.583   6.478  16.922  0.00  0.00    +0.000 C 
ATOM      7  C   UNL     1       7.865   7.046  18.310  0.00  0.00    +0.000 C 
ATOM      8  C   UNL     1       7.861   5.962  19.376  0.00  0.00    +0.000 C 
ATOM      9  C   UNL     1       6.563   5.168  19.335  0.00  0.00    +0.000 C 
ATOM     10  C   UNL     1       6.340   4.547  17.951  0.00  0.00    +0.000 C 
BRANCH   5  11
ATOM     11  N   UNL     1       6.219   5.008  15.492  0.00  0.00    +0.000 N 
ATOM     12  C   UNL     1       7.144   4.935  14.497  0.00  0.00    +0.000 A 
ATOM     13  N   UNL     1       6.627   4.276  13.485  0.00  0.00    +0.000 NA
ATOM     14  N   UNL     1       5.360   3.923  13.873  0.00  0.00    +0.000 NA
ATOM     15  N   UNL     1       5.099   4.361  15.096  0.00  0.00    +0.000 NA
ENDBRANCH   5  11
ENDBRANCH   2   5
BRANCH   3  16
ATOM     16  C   UNL     1       2.698   6.492  17.982  0.00  0.00    +0.000 C 
BRANCH  16  17
ATOM     17  C   UNL     1       2.355   6.408  19.469  0.00  0.00    +0.000 C 
BRANCH  17  18
ATOM     18  C   UNL     1       1.973   5.032  19.948  0.00  0.00    +0.000 A 
ATOM     19  C   UNL     1       2.344   4.578  21.223  0.00  0.00    +0.000 A 
ATOM     20  C   UNL     1       2.029   3.281  21.638  0.00  0.00    +0.000 A 
ATOM     21  C   UNL     1       1.349   2.420  20.779  0.00  0.00    +0.000 A 
ATOM     22  C   UNL     1       0.987   2.864  19.514  0.00  0.00    +0.000 A 
ATOM     23  F   UNL     1       0.344   2.035  18.681  0.00  0.00    +0.000 F 
ATOM     24  C   UNL     1       1.290   4.155  19.093  0.00  0.00    +0.000 A 
ENDBRANCH  17  18
ENDBRANCH  16  17
ENDBRANCH   3  16
TORSDOF 5
ENDMDL
MODEL 9
REMARK VINA RESULT:      -7.8      5.903      7.347
REMARK  Name = 
REMARK  5 active torsions:
REMARK  status: ('A' for Active; 'I' for Inactive)
REMARK    1  A    between atoms: C_2  and  C_13
REMARK    2  A    between atoms: N_3  and  C_4
REMARK    3  A    between atoms: C_4  and  C_5
REMARK    4  A    between atoms: C_5  and  C_6
REMARK    5  A    between atoms: C_13  and  N_14
REMARK                            x       y       z     vdW  Elec       q    Type
REMARK                         _______ _______ _______ _____ _____    ______ ____
ROOT
ATOM      1  O   UNL     1       2.988   6.822  17.904  0.00  0.00    +0.000 OA
ATOM      2  C   UNL     1       2.864   6.106  18.898  0.00  0.00    +0.000 C 
ATOM      3  N   UNL     1       2.358   6.603  20.077  0.00  0.00    +0.000 N 
ATOM      4  H   UNL     1       2.365   6.029  20.911  0.00  0.00    +0.000 HD
ENDROOT
BRANCH   2   5
ATOM      5  C   UNL     1       3.361   4.636  18.912  0.00  0.00    +0.000 C 
ATOM      6  C   UNL     1       2.922   3.813  20.160  0.00  0.00    +0.000 C 
ATOM      7  C   UNL     1       1.427   3.517  20.234  0.00  0.00    +0.000 C 
ATOM      8  C   UNL     1       0.916   2.864  18.960  0.00  0.00    +0.000 C 
ATOM      9  C   UNL     1       1.273   3.702  17.741  0.00  0.00    +0.000 C 
ATOM     10  C   UNL     1       2.787   3.923  17.649  0.00  0.00    +0.000 C 
BRANCH   5  11
ATOM     11  N   UNL     1       4.823   4.712  18.877  0.00  0.00    +0.000 N 
ATOM     12  C   UNL     1       5.719   4.228  17.976  0.00  0.00    +0.000 A 
ATOM     13  N   UNL     1       6.931   4.554  18.365  0.00  0.00    +0.000 NA
ATOM     14  N   UNL     1       6.775   5.266  19.526  0.00  0.00    +0.000 NA
ATOM     15  N   UNL     1       5.494   5.373  19.848  0.00  0.00    +0.000 NA
ENDBRANCH   5  11
ENDBRANCH   2   5
BRANCH   3  16
ATOM     16  C   UNL     1       1.909   7.982  20.211  0.00  0.00    +0.000 C 
BRANCH  16  17
ATOM     17  C   UNL     1       1.131   8.168  21.513  0.00  0.00    +0.000 C 
BRANCH  17  18
ATOM     18  C   UNL     1       0.476   9.517  21.664  0.00  0.00    +0.000 A 
ATOM     19  C   UNL     1       0.929  10.629  20.938  0.00  0.00    +0.000 A 
ATOM     20  C   UNL     1       0.348  11.887  21.125  0.00  0.00    +0.000 A 
ATOM     21  C   UNL     1      -0.684  12.048  22.046  0.00  0.00    +0.000 A 
ATOM     22  C   UNL     1      -1.130  10.951  22.771  0.00  0.00    +0.000 A 
ATOM     23  F   UNL     1      -2.113  11.105  23.667  0.00  0.00    +0.000 F 
ATOM     24  C   UNL     1      -0.563   9.694  22.590  0.00  0.00    +0.000 A 
ENDBRANCH  17  18
ENDBRANCH  16  17
ENDBRANCH   3  16
TORSDOF 5
ENDMDL
