MODEL 1
REMARK VINA RESULT:      -7.6      0.000      0.000
REMARK  Name = 
REMARK  2 active torsions:
REMARK  status: ('A' for Active; 'I' for Inactive)
REMARK    1  A    between atoms: C_1  and  C_2
REMARK    2  A    between atoms: C_14  and  C_15
REMARK                            x       y       z     vdW  Elec       q    Type
REMARK                         _______ _______ _______ _____ _____    ______ ____
ROOT
ATOM      1  C   UNL     1       1.929   2.633  21.745  0.00  0.00    +0.000 C 
ATOM      2  C   UNL     1       2.337   3.683  20.786  0.00  0.00    +0.000 A 
ATOM      3  N   UNL     1       1.616   4.824  20.559  0.00  0.00    +0.000 N 
ATOM      4  N   UNL     1       2.168   5.646  19.645  0.00  0.00    +0.000 NA
ATOM      5  C   UNL     1       3.287   5.013  19.270  0.00  0.00    +0.000 A 
ATOM      6  C   UNL     1       3.432   3.785  19.957  0.00  0.00    +0.000 A 
ATOM      7  C   UNL     1       4.545   2.893  19.749  0.00  0.00    +0.000 A 
ATOM      8  O   UNL     1       4.688   1.825  20.336  0.00  0.00    +0.000 OA
ATOM      9  N   UNL     1       5.463   3.337  18.821  0.00  0.00    +0.000 N 
ATOM     10  C   UNL     1       5.372   4.555  18.105  0.00  0.00    +0.000 A 
ATOM     11  C   UNL     1       6.391   4.853  17.201  0.00  0.00    +0.000 A 
ATOM     12  C   UNL     1       6.342   6.038  16.475  0.00  0.00    +0.000 A 
ATOM     13  C   UNL     1       5.278   6.925  16.651  0.00  0.00    +0.000 A 
ATOM     14  C   UNL     1       4.237   6.649  17.558  0.00  0.00    +0.000 A 
ATOM     15  C   UNL     1       3.125   7.653  17.694  0.00  0.00    +0.000 C 
ATOM     16  C   UNL     1       4.284   5.448  18.295  0.00  0.00    +0.000 A 
ATOM     17  H   UNL     1       0.742   5.106  20.989  0.00  0.00    +0.000 HD
ATOM     18  H   UNL     1       6.249   2.720  18.668  0.00  0.00    +0.000 HD
ENDROOT
TORSDOF 0
ENDMDL
MODEL 2
REMARK VINA RESULT:      -7.5      1.080      1.080
REMARK  Name = 
REMARK  2 active torsions:
REMARK  status: ('A' for Active; 'I' for Inactive)
REMARK    1  A    between atoms: C_1  and  C_2
REMARK    2  A    between atoms: C_14  and  C_15
REMARK                            x       y       z     vdW  Elec       q    Type
REMARK                         _______ _______ _______ _____ _____    ______ ____
ROOT
ATOM      1  C   UNL     1       1.505   2.619  21.205  0.00  0.00    +0.000 C 
ATOM      2  C   UNL     1       2.045   3.671  20.316  0.00  0.00    +0.000 A 
ATOM      3  N   UNL     1       1.732   4.998  20.435  0.00  0.00    +0.000 N 
ATOM      4  N   UNL     1       2.334   5.786  19.522  0.00  0.00    +0.000 NA
ATOM      5  C   UNL     1       3.065   4.936  18.789  0.00  0.00    +0.000 A 
ATOM      6  C   UNL     1       2.915   3.606  19.249  0.00  0.00    +0.000 A 
ATOM      7  C   UNL     1       3.584   2.483  18.645  0.00  0.00    +0.000 A 
ATOM      8  O   UNL     1       3.467   1.324  19.031  0.00  0.00    +0.000 OA
ATOM      9  N   UNL     1       4.389   2.811  17.574  0.00  0.00    +0.000 N 
ATOM     10  C   UNL     1       4.579   4.120  17.070  0.00  0.00    +0.000 A 
ATOM     11  C   UNL     1       5.431   4.277  15.976  0.00  0.00    +0.000 A 
ATOM     12  C   UNL     1       5.646   5.545  15.448  0.00  0.00    +0.000 A 
ATOM     13  C   UNL     1       5.012   6.655  16.010  0.00  0.00    +0.000 A 
ATOM     14  C   UNL     1       4.149   6.525  17.114  0.00  0.00    +0.000 A 
ATOM     15  C   UNL     1       3.504   7.768  17.664  0.00  0.00    +0.000 C 
ATOM     16  C   UNL     1       3.929   5.241  17.651  0.00  0.00    +0.000 A 
ATOM     17  H   UNL     1       1.116   5.436  21.111  0.00  0.00    +0.000 HD
ATOM     18  H   UNL     1       4.865   2.031  17.142  0.00  0.00    +0.000 HD
ENDROOT
TORSDOF 0
ENDMDL
MODEL 3
REMARK VINA RESULT:      -7.0      2.012      5.277
REMARK  Name = 
REMARK  2 active torsions:
REMARK  status: ('A' for Active; 'I' for Inactive)
REMARK    1  A    between atoms: C_1  and  C_2
REMARK    2  A    between atoms: C_14  and  C_15
REMARK                            x       y       z     vdW  Elec       q    Type
REMARK                         _______ _______ _______ _____ _____    ______ ____
ROOT
ATOM      1  C   UNL     1       6.678   7.005  17.193  0.00  0.00    +0.000 C 
ATOM      2  C   UNL     1       6.033   5.921  17.966  0.00  0.00    +0.000 A 
ATOM      3  N   UNL     1       6.698   4.816  18.421  0.00  0.00    +0.000 N 
ATOM      4  N   UNL     1       5.921   3.951  19.103  0.00  0.00    +0.000 NA
ATOM      5  C   UNL     1       4.709   4.522  19.088  0.00  0.00    +0.000 A 
ATOM      6  C   UNL     1       4.733   5.752  18.390  0.00  0.00    +0.000 A 
ATOM      7  C   UNL     1       3.568   6.581  18.215  0.00  0.00    +0.000 A 
ATOM      8  O   UNL     1       3.570   7.651  17.614  0.00  0.00    +0.000 OA
ATOM      9  N   UNL     1       2.420   6.076  18.788  0.00  0.00    +0.000 N 
ATOM     10  C   UNL     1       2.336   4.854  19.499  0.00  0.00    +0.000 A 
ATOM     11  C   UNL     1       1.092   4.490  20.016  0.00  0.00    +0.000 A 
ATOM     12  C   UNL     1       0.963   3.297  20.720  0.00  0.00    +0.000 A 
ATOM     13  C   UNL     1       2.072   2.470  20.908  0.00  0.00    +0.000 A 
ATOM     14  C   UNL     1       3.338   2.814  20.397  0.00  0.00    +0.000 A 
ATOM     15  C   UNL     1       4.485   1.872  20.641  0.00  0.00    +0.000 C 
ATOM     16  C   UNL     1       3.471   4.022  19.682  0.00  0.00    +0.000 A 
ATOM     17  H   UNL     1       7.679   4.585  18.303  0.00  0.00    +0.000 HD
ATOM     18  H   UNL     1       1.596   6.649  18.673  0.00  0.00    +0.000 HD
ENDROOT
TORSDOF 0
ENDMDL
MODEL 4
REMARK VINA RESULT:      -7.0      2.484      4.903
REMARK  Name = 
REMARK  2 active torsions:
REMARK  status: ('A' for Active; 'I' for Inactive)
REMARK    1  A    between atoms: C_1  and  C_2
REMARK    2  A    between atoms: C_14  and  C_15
REMARK                            x       y       z     vdW  Elec       q    Type
REMARK                         _______ _______ _______ _____ _____    ______ ____
ROOT
ATOM      1  C   UNL     1       6.109   3.945  15.159  0.00  0.00    +0.000 C 
ATOM      2  C   UNL     1       5.215   3.999  16.336  0.00  0.00    +0.000 A 
ATOM      3  N   UNL     1       4.853   2.897  17.063  0.00  0.00    +0.000 N 
ATOM      4  N   UNL     1       4.031   3.170  18.096  0.00  0.00    +0.000 NA
ATOM      5  C   UNL     1       3.858   4.496  18.034  0.00  0.00    +0.000 A 
ATOM      6  C   UNL     1       4.579   5.054  16.952  0.00  0.00    +0.000 A 
ATOM      7  C   UNL     1       4.575   6.462  16.645  0.00  0.00    +0.000 A 
ATOM      8  O   UNL     1       5.194   6.964  15.712  0.00  0.00    +0.000 OA
ATOM      9  N   UNL     1       3.806   7.227  17.497  0.00  0.00    +0.000 N 
ATOM     10  C   UNL     1       3.066   6.725  18.595  0.00  0.00    +0.000 A 
ATOM     11  C   UNL     1       2.340   7.640  19.358  0.00  0.00    +0.000 A 
ATOM     12  C   UNL     1       1.597   7.192  20.446  0.00  0.00    +0.000 A 
ATOM     13  C   UNL     1       1.579   5.834  20.771  0.00  0.00    +0.000 A 
ATOM     14  C   UNL     1       2.304   4.890  20.018  0.00  0.00    +0.000 A 
ATOM     15  C   UNL     1       2.236   3.446  20.431  0.00  0.00    +0.000 C 
ATOM     16  C   UNL     1       3.056   5.342  18.915  0.00  0.00    +0.000 A 
ATOM     17  H   UNL     1       5.126   1.932  16.912  0.00  0.00    +0.000 HD
ATOM     18  H   UNL     1       3.797   8.216  17.293  0.00  0.00    +0.000 HD
ENDROOT
TORSDOF 0
ENDMDL
MODEL 5
REMARK VINA RESULT:      -7.0      1.340      1.391
REMARK  Name = 
REMARK  2 active torsions:
REMARK  status: ('A' for Active; 'I' for Inactive)
REMARK    1  A    between atoms: C_1  and  C_2
REMARK    2  A    between atoms: C_14  and  C_15
REMARK                            x       y       z     vdW  Elec       q    Type
REMARK                         _______ _______ _______ _____ _____    ______ ____
ROOT
ATOM      1  C   UNL     1       1.261   2.199  19.444  0.00  0.00    +0.000 C 
ATOM      2  C   UNL     1       2.012   3.353  18.901  0.00  0.00    +0.000 A 
ATOM      3  N   UNL     1       1.418   4.420  18.283  0.00  0.00    +0.000 N 
ATOM      4  N   UNL     1       2.286   5.362  17.864  0.00  0.00    +0.000 NA
ATOM      5  C   UNL     1       3.484   4.885  18.226  0.00  0.00    +0.000 A 
ATOM      6  C   UNL     1       3.360   3.635  18.876  0.00  0.00    +0.000 A 
ATOM      7  C   UNL     1       4.489   2.889  19.373  0.00  0.00    +0.000 A 
ATOM      8  O   UNL     1       4.400   1.805  19.940  0.00  0.00    +0.000 OA
ATOM      9  N   UNL     1       5.708   3.497  19.161  0.00  0.00    +0.000 N 
ATOM     10  C   UNL     1       5.894   4.745  18.519  0.00  0.00    +0.000 A 
ATOM     11  C   UNL     1       7.200   5.218  18.387  0.00  0.00    +0.000 A 
ATOM     12  C   UNL     1       7.430   6.439  17.762  0.00  0.00    +0.000 A 
ATOM     13  C   UNL     1       6.358   7.187  17.269  0.00  0.00    +0.000 A 
ATOM     14  C   UNL     1       5.031   6.734  17.390  0.00  0.00    +0.000 A 
ATOM     15  C   UNL     1       3.930   7.596  16.836  0.00  0.00    +0.000 C 
ATOM     16  C   UNL     1       4.796   5.496  18.023  0.00  0.00    +0.000 A 
ATOM     17  H   UNL     1       0.429   4.572  18.112  0.00  0.00    +0.000 HD
ATOM     18  H   UNL     1       6.507   2.984  19.506  0.00  0.00    +0.000 HD
ENDROOT
TORSDOF 0
ENDMDL
MODEL 6
REMARK VINA RESULT:      -6.9      2.249      5.359
REMARK  Name = 
REMARK  2 active torsions:
REMARK  status: ('A' for Active; 'I' for Inactive)
REMARK    1  A    between atoms: C_1  and  C_2
REMARK    2  A    between atoms: C_14  and  C_15
REMARK                            x       y       z     vdW  Elec       q    Type
REMARK                         _______ _______ _______ _____ _____    ______ ____
ROOT
ATOM      1  C   UNL     1       5.325   6.845  15.547  0.00  0.00    +0.000 C 
ATOM      2  C   UNL     1       4.807   5.709  16.342  0.00  0.00    +0.000 A 
ATOM      3  N   UNL     1       5.167   4.407  16.126  0.00  0.00    +0.000 N 
ATOM      4  N   UNL     1       4.578   3.531  16.964  0.00  0.00    +0.000 NA
ATOM      5  C   UNL     1       3.812   4.297  17.750  0.00  0.00    +0.000 A 
ATOM      6  C   UNL     1       3.924   5.662  17.398  0.00  0.00    +0.000 A 
ATOM      7  C   UNL     1       3.207   6.712  18.077  0.00  0.00    +0.000 A 
ATOM      8  O   UNL     1       3.293   7.901  17.786  0.00  0.00    +0.000 OA
ATOM      9  N   UNL     1       2.398   6.276  19.104  0.00  0.00    +0.000 N 
ATOM     10  C   UNL     1       2.247   4.925  19.502  0.00  0.00    +0.000 A 
ATOM     11  C   UNL     1       1.384   4.656  20.565  0.00  0.00    +0.000 A 
ATOM     12  C   UNL     1       1.204   3.344  20.990  0.00  0.00    +0.000 A 
ATOM     13  C   UNL     1       1.883   2.302  20.354  0.00  0.00    +0.000 A 
ATOM     14  C   UNL     1       2.760   2.546  19.279  0.00  0.00    +0.000 A 
ATOM     15  C   UNL     1       3.456   1.372  18.647  0.00  0.00    +0.000 C 
ATOM     16  C   UNL     1       2.943   3.876  18.847  0.00  0.00    +0.000 A 
ATOM     17  H   UNL     1       5.806   4.043  15.427  0.00  0.00    +0.000 HD
ATOM     18  H   UNL     1       1.891   7.003  19.588  0.00  0.00    +0.000 HD
ENDROOT
TORSDOF 0
ENDMDL
MODEL 7
REMARK VINA RESULT:      -6.9      2.330      5.150
REMARK  Name = 
REMARK  2 active torsions:
REMARK  status: ('A' for Active; 'I' for Inactive)
REMARK    1  A    between atoms: C_1  and  C_2
REMARK    2  A    between atoms: C_14  and  C_15
REMARK                            x       y       z     vdW  Elec       q    Type
REMARK                         _______ _______ _______ _____ _____    ______ ____
ROOT
ATOM      1  C   UNL     1       7.412   7.198  17.588  0.00  0.00    +0.000 C 
ATOM      2  C   UNL     1       6.626   6.073  18.142  0.00  0.00    +0.000 A 
ATOM      3  N   UNL     1       7.171   5.066  18.892  0.00  0.00    +0.000 N 
ATOM      4  N   UNL     1       6.278   4.141  19.296  0.00  0.00    +0.000 NA
ATOM      5  C   UNL     1       5.114   4.569  18.790  0.00  0.00    +0.000 A 
ATOM      6  C   UNL     1       5.285   5.770  18.063  0.00  0.00    +0.000 A 
ATOM      7  C   UNL     1       4.200   6.455  17.407  0.00  0.00    +0.000 A 
ATOM      8  O   UNL     1       4.329   7.498  16.773  0.00  0.00    +0.000 OA
ATOM      9  N   UNL     1       2.974   5.841  17.546  0.00  0.00    +0.000 N 
ATOM     10  C   UNL     1       2.742   4.641  18.261  0.00  0.00    +0.000 A 
ATOM     11  C   UNL     1       1.435   4.154  18.303  0.00  0.00    +0.000 A 
ATOM     12  C   UNL     1       1.161   2.978  18.993  0.00  0.00    +0.000 A 
ATOM     13  C   UNL     1       2.189   2.289  19.640  0.00  0.00    +0.000 A 
ATOM     14  C   UNL     1       3.516   2.759  19.614  0.00  0.00    +0.000 A 
ATOM     15  C   UNL     1       4.568   1.962  20.335  0.00  0.00    +0.000 C 
ATOM     16  C   UNL     1       3.796   3.950  18.914  0.00  0.00    +0.000 A 
ATOM     17  H   UNL     1       8.140   4.945  19.165  0.00  0.00    +0.000 HD
ATOM     18  H   UNL     1       2.205   6.313  17.091  0.00  0.00    +0.000 HD
ENDROOT
TORSDOF 0
ENDMDL
MODEL 8
REMARK VINA RESULT:      -6.8      1.971      4.552
REMARK  Name = 
REMARK  2 active torsions:
REMARK  status: ('A' for Active; 'I' for Inactive)
REMARK    1  A    between atoms: C_1  and  C_2
REMARK    2  A    between atoms: C_14  and  C_15
REMARK                            x       y       z     vdW  Elec       q    Type
REMARK                         _______ _______ _______ _____ _____    ______ ____
ROOT
ATOM      1  C   UNL     1       5.471   6.637  15.517  0.00  0.00    +0.000 C 
ATOM      2  C   UNL     1       4.592   6.370  16.677  0.00  0.00    +0.000 A 
ATOM      3  N   UNL     1       3.935   7.349  17.371  0.00  0.00    +0.000 N 
ATOM      4  N   UNL     1       3.186   6.887  18.392  0.00  0.00    +0.000 NA
ATOM      5  C   UNL     1       3.366   5.560  18.353  0.00  0.00    +0.000 A 
ATOM      6  C   UNL     1       4.235   5.194  17.299  0.00  0.00    +0.000 A 
ATOM      7  C   UNL     1       4.607   3.829  17.023  0.00  0.00    +0.000 A 
ATOM      8  O   UNL     1       5.359   3.493  16.113  0.00  0.00    +0.000 OA
ATOM      9  N   UNL     1       4.044   2.903  17.875  0.00  0.00    +0.000 N 
ATOM     10  C   UNL     1       3.168   3.210  18.945  0.00  0.00    +0.000 A 
ATOM     11  C   UNL     1       2.687   2.149  19.712  0.00  0.00    +0.000 A 
ATOM     12  C   UNL     1       1.825   2.403  20.774  0.00  0.00    +0.000 A 
ATOM     13  C   UNL     1       1.444   3.714  21.069  0.00  0.00    +0.000 A 
ATOM     14  C   UNL     1       1.914   4.803  20.310  0.00  0.00    +0.000 A 
ATOM     15  C   UNL     1       1.458   6.185  20.688  0.00  0.00    +0.000 C 
ATOM     16  C   UNL     1       2.789   4.547  19.234  0.00  0.00    +0.000 A 
ATOM     17  H   UNL     1       3.951   8.350  17.206  0.00  0.00    +0.000 HD
ATOM     18  H   UNL     1       4.297   1.943  17.691  0.00  0.00    +0.000 HD
ENDROOT
TORSDOF 0
ENDMDL
MODEL 9
REMARK VINA RESULT:      -6.8      2.249      4.377
REMARK  Name = 
REMARK  2 active torsions:
REMARK  status: ('A' for Active; 'I' for Inactive)
REMARK    1  A    between atoms: C_1  and  C_2
REMARK    2  A    between atoms: C_14  and  C_15
REMARK                            x       y       z     vdW  Elec       q    Type
REMARK                         _______ _______ _______ _____ _____    ______ ____
ROOT
ATOM      1  C   UNL     1       7.417   7.518  17.353  0.00  0.00    +0.000 C 
ATOM      2  C   UNL     1       6.093   6.866  17.464  0.00  0.00    +0.000 A 
ATOM      3  N   UNL     1       4.925   7.450  17.058  0.00  0.00    +0.000 N 
ATOM      4  N   UNL     1       3.834   6.682  17.250  0.00  0.00    +0.000 NA
ATOM      5  C   UNL     1       4.317   5.561  17.800  0.00  0.00    +0.000 A 
ATOM      6  C   UNL     1       5.722   5.632  17.952  0.00  0.00    +0.000 A 
ATOM      7  C   UNL     1       6.508   4.566  18.519  0.00  0.00    +0.000 A 
ATOM      8  O   UNL     1       7.727   4.609  18.657  0.00  0.00    +0.000 OA
ATOM      9  N   UNL     1       5.776   3.463  18.904  0.00  0.00    +0.000 N 
ATOM     10  C   UNL     1       4.371   3.335  18.776  0.00  0.00    +0.000 A 
ATOM     11  C   UNL     1       3.787   2.147  19.217  0.00  0.00    +0.000 A 
ATOM     12  C   UNL     1       2.410   1.977  19.112  0.00  0.00    +0.000 A 
ATOM     13  C   UNL     1       1.619   2.991  18.567  0.00  0.00    +0.000 A 
ATOM     14  C   UNL     1       2.184   4.198  18.113  0.00  0.00    +0.000 A 
ATOM     15  C   UNL     1       1.266   5.242  17.538  0.00  0.00    +0.000 C 
ATOM     16  C   UNL     1       3.578   4.373  18.220  0.00  0.00    +0.000 A 
ATOM     17  H   UNL     1       4.796   8.367  16.643  0.00  0.00    +0.000 HD
ATOM     18  H   UNL     1       6.316   2.708  19.302  0.00  0.00    +0.000 HD
ENDROOT
TORSDOF 0
ENDMDL
