MODEL 1
REMARK VINA RESULT:      -6.8      0.000      0.000
REMARK  Name = 
REMARK  8 active torsions:
REMARK  status: ('A' for Active; 'I' for Inactive)
REMARK    1  A    between atoms: C_1  and  C_2
REMARK    2  A    between atoms: C_2  and  C_3
REMARK    3  A    between atoms: C_2  and  C_4
REMARK    4  A    between atoms: C_4  and  C_5
REMARK    5  A    between atoms: C_5  and  N_6
REMARK    6  A    between atoms: C_5  and  C_7
REMARK    7  A    between atoms: C_7  and  C_8
REMARK    8  A    between atoms: C_10  and  C_11
REMARK                            x       y       z     vdW  Elec       q    Type
REMARK                         _______ _______ _______ _____ _____    ______ ____
ROOT
ATOM      1  C   UNL     1       6.327   4.900  15.229  0.00  0.00    +0.000 A 
ATOM      2  N   UNL     1       5.587   4.122  15.983  0.00  0.00    +0.000 NA
ATOM      3  C   UNL     1       4.742   5.019  16.598  0.00  0.00    +0.000 A 
ATOM      4  N   UNL     1       4.971   6.299  16.260  0.00  0.00    +0.000 NA
ATOM      5  O   UNL     1       6.023   6.221  15.351  0.00  0.00    +0.000 OA
ENDROOT
BRANCH   3   6
ATOM      6  C   UNL     1       3.680   4.584  17.500  0.00  0.00    +0.000 A 
ATOM      7  C   UNL     1       3.125   5.483  18.423  0.00  0.00    +0.000 A 
ATOM      8  C   UNL     1       2.133   5.069  19.317  0.00  0.00    +0.000 A 
ATOM      9  C   UNL     1       1.686   3.751  19.290  0.00  0.00    +0.000 A 
ATOM     10 CL   UNL     1       0.478   3.234  20.400  0.00  0.00    +0.000 Cl
ATOM     11  C   UNL     1       2.218   2.846  18.373  0.00  0.00    +0.000 A 
ATOM     12  C   UNL     1       3.209   3.261  17.479  0.00  0.00    +0.000 A 
ENDBRANCH   3   6
BRANCH   1  13
ATOM     13  C   UNL     1       7.404   4.535  14.278  0.00  0.00    +0.000 C 
BRANCH  13  14
ATOM     14  C   UNL     1       7.129   5.048  12.851  0.00  0.00    +0.000 C 
BRANCH  14  15
ATOM     15  N   UNL     1       8.190   5.954  12.369  0.00  0.00    +0.000 NA
ATOM     16  H   UNL     1       8.938   5.417  11.932  0.00  0.00    +0.000 HD
ATOM     17  H   UNL     1       8.629   6.427  13.163  0.00  0.00    +0.000 HD
ENDBRANCH  14  15
BRANCH  14  18
ATOM     18  C   UNL     1       7.033   3.890  11.833  0.00  0.00    +0.000 C 
BRANCH  18  20
ATOM     19  C   UNL     1       4.533   3.420  11.590  0.00  0.00    +0.000 C 
ATOM     20  C   UNL     1       5.886   2.881  12.053  0.00  0.00    +0.000 C 
ATOM     21  C   UNL     1       6.204   1.575  11.320  0.00  0.00    +0.000 C 
ENDBRANCH  18  20
ENDBRANCH  14  18
ENDBRANCH  13  14
ENDBRANCH   1  13
TORSDOF 6
ENDMDL
MODEL 2
REMARK VINA RESULT:      -6.7      3.880      7.563
REMARK  Name = 
REMARK  8 active torsions:
REMARK  status: ('A' for Active; 'I' for Inactive)
REMARK    1  A    between atoms: C_1  and  C_2
REMARK    2  A    between atoms: C_2  and  C_3
REMARK    3  A    between atoms: C_2  and  C_4
REMARK    4  A    between atoms: C_4  and  C_5
REMARK    5  A    between atoms: C_5  and  N_6
REMARK    6  A    between atoms: C_5  and  C_7
REMARK    7  A    between atoms: C_7  and  C_8
REMARK    8  A    between atoms: C_10  and  C_11
REMARK                            x       y       z     vdW  Elec       q    Type
REMARK                         _______ _______ _______ _____ _____    ______ ____
ROOT
ATOM      1  C   UNL     1       3.306   2.907  19.129  0.00  0.00    +0.000 A 
ATOM      2  N   UNL     1       3.547   3.198  17.873  0.00  0.00    +0.000 NA
ATOM      3  C   UNL     1       4.822   3.718  17.927  0.00  0.00    +0.000 A 
ATOM      4  N   UNL     1       5.333   3.773  19.168  0.00  0.00    +0.000 NA
ATOM      5  O   UNL     1       4.327   3.234  19.967  0.00  0.00    +0.000 OA
ENDROOT
BRANCH   3   6
ATOM      6  C   UNL     1       5.539   4.127  16.723  0.00  0.00    +0.000 A 
ATOM      7  C   UNL     1       4.963   3.934  15.458  0.00  0.00    +0.000 A 
ATOM      8  C   UNL     1       5.654   4.288  14.296  0.00  0.00    +0.000 A 
ATOM      9  C   UNL     1       6.927   4.843  14.392  0.00  0.00    +0.000 A 
ATOM     10 CL   UNL     1       7.787   5.265  12.964  0.00  0.00    +0.000 Cl
ATOM     11  C   UNL     1       7.511   5.053  15.640  0.00  0.00    +0.000 A 
ATOM     12  C   UNL     1       6.819   4.698  16.802  0.00  0.00    +0.000 A 
ENDBRANCH   3   6
BRANCH   1  13
ATOM     13  C   UNL     1       2.110   2.271  19.731  0.00  0.00    +0.000 C 
BRANCH  13  14
ATOM     14  C   UNL     1       1.368   3.209  20.703  0.00  0.00    +0.000 C 
BRANCH  14  15
ATOM     15  N   UNL     1       2.143   3.467  21.931  0.00  0.00    +0.000 NA
ATOM     16  H   UNL     1       1.517   3.729  22.692  0.00  0.00    +0.000 HD
ATOM     17  H   UNL     1       2.751   4.278  21.795  0.00  0.00    +0.000 HD
ENDBRANCH  14  15
BRANCH  14  18
ATOM     18  C   UNL     1       1.073   4.584  20.062  0.00  0.00    +0.000 C 
BRANCH  18  20
ATOM     19  C   UNL     1       2.784   6.376  19.437  0.00  0.00    +0.000 C 
ATOM     20  C   UNL     1       1.936   5.765  20.553  0.00  0.00    +0.000 C 
ATOM     21  C   UNL     1       1.034   6.839  21.168  0.00  0.00    +0.000 C 
ENDBRANCH  18  20
ENDBRANCH  14  18
ENDBRANCH  13  14
ENDBRANCH   1  13
TORSDOF 6
ENDMDL
MODEL 3
REMARK VINA RESULT:      -6.7      1.117      1.774
REMARK  Name = 
REMARK  8 active torsions:
REMARK  status: ('A' for Active; 'I' for Inactive)
REMARK    1  A    between atoms: C_1  and  C_2
REMARK    2  A    between atoms: C_2  and  C_3
REMARK    3  A    between atoms: C_2  and  C_4
REMARK    4  A    between atoms: C_4  and  C_5
REMARK    5  A    between atoms: C_5  and  N_6
REMARK    6  A    between atoms: C_5  and  C_7
REMARK    7  A    between atoms: C_7  and  C_8
REMARK    8  A    between atoms: C_10  and  C_11
REMARK                            x       y       z     vdW  Elec       q    Type
REMARK                         _______ _______ _______ _____ _____    ______ ____
ROOT
ATOM      1  C   UNL     1       6.375   5.052  15.968  0.00  0.00    +0.000 A 
ATOM      2  N   UNL     1       5.820   4.198  16.795  0.00  0.00    +0.000 NA
ATOM      3  C   UNL     1       5.011   5.008  17.562  0.00  0.00    +0.000 A 
ATOM      4  N   UNL     1       5.088   6.311  17.241  0.00  0.00    +0.000 NA
ATOM      5  O   UNL     1       5.993   6.341  16.182  0.00  0.00    +0.000 OA
ENDROOT
BRANCH   3   6
ATOM      6  C   UNL     1       4.135   4.466  18.596  0.00  0.00    +0.000 A 
ATOM      7  C   UNL     1       3.976   3.078  18.729  0.00  0.00    +0.000 A 
ATOM      8  C   UNL     1       3.112   2.547  19.692  0.00  0.00    +0.000 A 
ATOM      9  C   UNL     1       2.404   3.403  20.530  0.00  0.00    +0.000 A 
ATOM     10 CL   UNL     1       1.327   2.753  21.704  0.00  0.00    +0.000 Cl
ATOM     11  C   UNL     1       2.557   4.784  20.420  0.00  0.00    +0.000 A 
ATOM     12  C   UNL     1       3.421   5.314  19.458  0.00  0.00    +0.000 A 
ENDBRANCH   3   6
BRANCH   1  13
ATOM     13  C   UNL     1       7.320   4.799  14.854  0.00  0.00    +0.000 C 
BRANCH  13  14
ATOM     14  C   UNL     1       6.628   4.819  13.478  0.00  0.00    +0.000 C 
BRANCH  14  15
ATOM     15  N   UNL     1       7.596   4.882  12.366  0.00  0.00    +0.000 NA
ATOM     16  H   UNL     1       7.756   3.948  11.988  0.00  0.00    +0.000 HD
ATOM     17  H   UNL     1       8.507   5.188  12.716  0.00  0.00    +0.000 HD
ENDBRANCH  14  15
BRANCH  14  18
ATOM     18  C   UNL     1       5.765   3.558  13.250  0.00  0.00    +0.000 C 
BRANCH  18  20
ATOM     19  C   UNL     1       5.956   1.682  11.525  0.00  0.00    +0.000 C 
ATOM     20  C   UNL     1       5.551   3.133  11.782  0.00  0.00    +0.000 C 
ATOM     21  C   UNL     1       4.082   3.338  11.398  0.00  0.00    +0.000 C 
ENDBRANCH  18  20
ENDBRANCH  14  18
ENDBRANCH  13  14
ENDBRANCH   1  13
TORSDOF 6
ENDMDL
MODEL 4
REMARK VINA RESULT:      -6.7      3.898      7.550
REMARK  Name = 
REMARK  8 active torsions:
REMARK  status: ('A' for Active; 'I' for Inactive)
REMARK    1  A    between atoms: C_1  and  C_2
REMARK    2  A    between atoms: C_2  and  C_3
REMARK    3  A    between atoms: C_2  and  C_4
REMARK    4  A    between atoms: C_4  and  C_5
REMARK    5  A    between atoms: C_5  and  N_6
REMARK    6  A    between atoms: C_5  and  C_7
REMARK    7  A    between atoms: C_7  and  C_8
REMARK    8  A    between atoms: C_10  and  C_11
REMARK                            x       y       z     vdW  Elec       q    Type
REMARK                         _______ _______ _______ _____ _____    ______ ____
ROOT
ATOM      1  C   UNL     1       3.157   2.865  19.104  0.00  0.00    +0.000 A 
ATOM      2  N   UNL     1       3.423   3.197  17.863  0.00  0.00    +0.000 NA
ATOM      3  C   UNL     1       4.743   3.585  17.935  0.00  0.00    +0.000 A 
ATOM      4  N   UNL     1       5.260   3.523  19.174  0.00  0.00    +0.000 NA
ATOM      5  O   UNL     1       4.207   3.044  19.951  0.00  0.00    +0.000 OA
ENDROOT
BRANCH   3   6
ATOM      6  C   UNL     1       5.495   3.985  16.749  0.00  0.00    +0.000 A 
ATOM      7  C   UNL     1       6.747   4.605  16.883  0.00  0.00    +0.000 A 
ATOM      8  C   UNL     1       7.460   5.025  15.757  0.00  0.00    +0.000 A 
ATOM      9  C   UNL     1       6.926   4.825  14.487  0.00  0.00    +0.000 A 
ATOM     10 CL   UNL     1       7.793   5.357  13.100  0.00  0.00    +0.000 Cl
ATOM     11  C   UNL     1       5.688   4.202  14.334  0.00  0.00    +0.000 A 
ATOM     12  C   UNL     1       4.976   3.782  15.460  0.00  0.00    +0.000 A 
ENDBRANCH   3   6
BRANCH   1  13
ATOM     13  C   UNL     1       1.905   2.318  19.680  0.00  0.00    +0.000 C 
BRANCH  13  14
ATOM     14  C   UNL     1       1.296   3.243  20.752  0.00  0.00    +0.000 C 
BRANCH  14  15
ATOM     15  N   UNL     1       2.206   3.451  21.894  0.00  0.00    +0.000 NA
ATOM     16  H   UNL     1       3.117   3.769  21.563  0.00  0.00    +0.000 HD
ATOM     17  H   UNL     1       2.389   2.559  22.360  0.00  0.00    +0.000 HD
ENDBRANCH  14  15
BRANCH  14  18
ATOM     18  C   UNL     1       0.963   4.640  20.184  0.00  0.00    +0.000 C 
BRANCH  18  20
ATOM     19  C   UNL     1       2.788   6.289  19.492  0.00  0.00    +0.000 C 
ATOM     20  C   UNL     1       1.888   5.794  20.624  0.00  0.00    +0.000 C 
ATOM     21  C   UNL     1       1.042   6.953  21.160  0.00  0.00    +0.000 C 
ENDBRANCH  18  20
ENDBRANCH  14  18
ENDBRANCH  13  14
ENDBRANCH   1  13
TORSDOF 6
ENDMDL
MODEL 5
REMARK VINA RESULT:      -6.7      3.739      5.224
REMARK  Name = 
REMARK  8 active torsions:
REMARK  status: ('A' for Active; 'I' for Inactive)
REMARK    1  A    between atoms: C_1  and  C_2
REMARK    2  A    between atoms: C_2  and  C_3
REMARK    3  A    between atoms: C_2  and  C_4
REMARK    4  A    between atoms: C_4  and  C_5
REMARK    5  A    between atoms: C_5  and  N_6
REMARK    6  A    between atoms: C_5  and  C_7
REMARK    7  A    between atoms: C_7  and  C_8
REMARK    8  A    between atoms: C_10  and  C_11
REMARK                            x       y       z     vdW  Elec       q    Type
REMARK                         _______ _______ _______ _____ _____    ______ ____
ROOT
ATOM      1  C   UNL     1       4.192   4.937  19.265  0.00  0.00    +0.000 A 
ATOM      2  N   UNL     1       3.921   6.154  18.855  0.00  0.00    +0.000 NA
ATOM      3  C   UNL     1       2.721   6.418  19.478  0.00  0.00    +0.000 A 
ATOM      4  N   UNL     1       2.257   5.395  20.217  0.00  0.00    +0.000 NA
ATOM      5  O   UNL     1       3.233   4.412  20.076  0.00  0.00    +0.000 OA
ENDROOT
BRANCH   3   6
ATOM      6  C   UNL     1       2.058   7.713  19.358  0.00  0.00    +0.000 A 
ATOM      7  C   UNL     1       1.432   8.291  20.472  0.00  0.00    +0.000 A 
ATOM      8  C   UNL     1       0.762   9.514  20.362  0.00  0.00    +0.000 A 
ATOM      9  C   UNL     1       0.720  10.168  19.134  0.00  0.00    +0.000 A 
ATOM     10 CL   UNL     1      -0.118  11.664  18.990  0.00  0.00    +0.000 Cl
ATOM     11  C   UNL     1       1.345   9.614  18.018  0.00  0.00    +0.000 A 
ATOM     12  C   UNL     1       2.014   8.392  18.130  0.00  0.00    +0.000 A 
ENDBRANCH   3   6
BRANCH   1  13
ATOM     13  C   UNL     1       5.379   4.096  18.982  0.00  0.00    +0.000 C 
BRANCH  13  14
ATOM     14  C   UNL     1       6.176   4.591  17.760  0.00  0.00    +0.000 C 
BRANCH  14  15
ATOM     15  N   UNL     1       7.620   4.319  17.887  0.00  0.00    +0.000 NA
ATOM     16  H   UNL     1       7.776   3.545  18.533  0.00  0.00    +0.000 HD
ATOM     17  H   UNL     1       8.089   5.121  18.314  0.00  0.00    +0.000 HD
ENDBRANCH  14  15
BRANCH  14  18
ATOM     18  C   UNL     1       5.705   3.914  16.454  0.00  0.00    +0.000 C 
BRANCH  18  20
ATOM     19  C   UNL     1       5.257   6.290  15.625  0.00  0.00    +0.000 C 
ATOM     20  C   UNL     1       5.530   4.839  15.230  0.00  0.00    +0.000 C 
ATOM     21  C   UNL     1       6.781   4.767  14.350  0.00  0.00    +0.000 C 
ENDBRANCH  18  20
ENDBRANCH  14  18
ENDBRANCH  13  14
ENDBRANCH   1  13
TORSDOF 6
ENDMDL
MODEL 6
REMARK VINA RESULT:      -6.7      4.361      6.405
REMARK  Name = 
REMARK  8 active torsions:
REMARK  status: ('A' for Active; 'I' for Inactive)
REMARK    1  A    between atoms: C_1  and  C_2
REMARK    2  A    between atoms: C_2  and  C_3
REMARK    3  A    between atoms: C_2  and  C_4
REMARK    4  A    between atoms: C_4  and  C_5
REMARK    5  A    between atoms: C_5  and  N_6
REMARK    6  A    between atoms: C_5  and  C_7
REMARK    7  A    between atoms: C_7  and  C_8
REMARK    8  A    between atoms: C_10  and  C_11
REMARK                            x       y       z     vdW  Elec       q    Type
REMARK                         _______ _______ _______ _____ _____    ______ ____
ROOT
ATOM      1  C   UNL     1       3.488   4.910  17.504  0.00  0.00    +0.000 A 
ATOM      2  N   UNL     1       2.521   5.565  18.101  0.00  0.00    +0.000 NA
ATOM      3  C   UNL     1       3.006   6.855  18.124  0.00  0.00    +0.000 A 
ATOM      4  N   UNL     1       4.232   6.983  17.591  0.00  0.00    +0.000 NA
ATOM      5  O   UNL     1       4.553   5.692  17.178  0.00  0.00    +0.000 OA
ENDROOT
BRANCH   3   6
ATOM      6  C   UNL     1       2.218   7.965  18.653  0.00  0.00    +0.000 A 
ATOM      7  C   UNL     1       1.833   7.977  20.002  0.00  0.00    +0.000 A 
ATOM      8  C   UNL     1       1.048   9.016  20.512  0.00  0.00    +0.000 A 
ATOM      9  C   UNL     1       0.647  10.052  19.674  0.00  0.00    +0.000 A 
ATOM     10 CL   UNL     1      -0.333  11.322  20.294  0.00  0.00    +0.000 Cl
ATOM     11  C   UNL     1       1.028  10.062  18.333  0.00  0.00    +0.000 A 
ATOM     12  C   UNL     1       1.813   9.024  17.825  0.00  0.00    +0.000 A 
ENDBRANCH   3   6
BRANCH   1  13
ATOM     13  C   UNL     1       3.559   3.476  17.133  0.00  0.00    +0.000 C 
BRANCH  13  14
ATOM     14  C   UNL     1       4.003   2.584  18.308  0.00  0.00    +0.000 C 
BRANCH  14  15
ATOM     15  N   UNL     1       4.882   3.299  19.252  0.00  0.00    +0.000 NA
ATOM     16  H   UNL     1       4.322   3.794  19.946  0.00  0.00    +0.000 HD
ATOM     17  H   UNL     1       5.401   4.029  18.759  0.00  0.00    +0.000 HD
ENDBRANCH  14  15
BRANCH  14  18
ATOM     18  C   UNL     1       2.798   2.064  19.122  0.00  0.00    +0.000 C 
BRANCH  18  20
ATOM     19  C   UNL     1       0.708   3.256  19.984  0.00  0.00    +0.000 C 
ATOM     20  C   UNL     1       2.210   3.036  20.167  0.00  0.00    +0.000 C 
ATOM     21  C   UNL     1       2.490   2.506  21.576  0.00  0.00    +0.000 C 
ENDBRANCH  18  20
ENDBRANCH  14  18
ENDBRANCH  13  14
ENDBRANCH   1  13
TORSDOF 6
ENDMDL
MODEL 7
REMARK VINA RESULT:      -6.6      1.222      1.482
REMARK  Name = 
REMARK  8 active torsions:
REMARK  status: ('A' for Active; 'I' for Inactive)
REMARK    1  A    between atoms: C_1  and  C_2
REMARK    2  A    between atoms: C_2  and  C_3
REMARK    3  A    between atoms: C_2  and  C_4
REMARK    4  A    between atoms: C_4  and  C_5
REMARK    5  A    between atoms: C_5  and  N_6
REMARK    6  A    between atoms: C_5  and  C_7
REMARK    7  A    between atoms: C_7  and  C_8
REMARK    8  A    between atoms: C_10  and  C_11
REMARK                            x       y       z     vdW  Elec       q    Type
REMARK                         _______ _______ _______ _____ _____    ______ ____
ROOT
ATOM      1  C   UNL     1       6.495   5.142  16.243  0.00  0.00    +0.000 A 
ATOM      2  N   UNL     1       5.861   4.259  16.978  0.00  0.00    +0.000 NA
ATOM      3  C   UNL     1       5.085   5.054  17.794  0.00  0.00    +0.000 A 
ATOM      4  N   UNL     1       5.257   6.371  17.591  0.00  0.00    +0.000 NA
ATOM      5  O   UNL     1       6.192   6.430  16.560  0.00  0.00    +0.000 OA
ENDROOT
BRANCH   3   6
ATOM      6  C   UNL     1       4.146   4.485  18.756  0.00  0.00    +0.000 A 
ATOM      7  C   UNL     1       3.406   5.326  19.602  0.00  0.00    +0.000 A 
ATOM      8  C   UNL     1       2.530   4.793  20.552  0.00  0.00    +0.000 A 
ATOM      9  C   UNL     1       2.385   3.413  20.658  0.00  0.00    +0.000 A 
ATOM     10 CL   UNL     1       1.321   2.753  21.838  0.00  0.00    +0.000 Cl
ATOM     11  C   UNL     1       3.103   2.562  19.820  0.00  0.00    +0.000 A 
ATOM     12  C   UNL     1       3.978   3.096  18.870  0.00  0.00    +0.000 A 
ENDBRANCH   3   6
BRANCH   1  13
ATOM     13  C   UNL     1       7.453   4.922  15.133  0.00  0.00    +0.000 C 
BRANCH  13  14
ATOM     14  C   UNL     1       6.767   4.923  13.753  0.00  0.00    +0.000 C 
BRANCH  14  15
ATOM     15  N   UNL     1       7.698   5.287  12.667  0.00  0.00    +0.000 NA
ATOM     16  H   UNL     1       8.591   5.587  13.057  0.00  0.00    +0.000 HD
ATOM     17  H   UNL     1       7.340   6.100  12.161  0.00  0.00    +0.000 HD
ENDBRANCH  14  15
BRANCH  14  18
ATOM     18  C   UNL     1       6.186   3.536  13.399  0.00  0.00    +0.000 C 
BRANCH  18  20
ATOM     19  C   UNL     1       6.479   1.894  11.462  0.00  0.00    +0.000 C 
ATOM     20  C   UNL     1       5.946   3.258  11.900  0.00  0.00    +0.000 C 
ATOM     21  C   UNL     1       4.448   3.353  11.594  0.00  0.00    +0.000 C 
ENDBRANCH  18  20
ENDBRANCH  14  18
ENDBRANCH  13  14
ENDBRANCH   1  13
TORSDOF 6
ENDMDL
MODEL 8
REMARK VINA RESULT:      -6.6      4.291      7.011
REMARK  Name = 
REMARK  8 active torsions:
REMARK  status: ('A' for Active; 'I' for Inactive)
REMARK    1  A    between atoms: C_1  and  C_2
REMARK    2  A    between atoms: C_2  and  C_3
REMARK    3  A    between atoms: C_2  and  C_4
REMARK    4  A    between atoms: C_4  and  C_5
REMARK    5  A    between atoms: C_5  and  N_6
REMARK    6  A    between atoms: C_5  and  C_7
REMARK    7  A    between atoms: C_7  and  C_8
REMARK    8  A    between atoms: C_10  and  C_11
REMARK                            x       y       z     vdW  Elec       q    Type
REMARK                         _______ _______ _______ _____ _____    ______ ____
ROOT
ATOM      1  C   UNL     1       3.828   3.888  17.105  0.00  0.00    +0.000 A 
ATOM      2  N   UNL     1       4.295   4.922  17.765  0.00  0.00    +0.000 NA
ATOM      3  C   UNL     1       5.582   5.027  17.282  0.00  0.00    +0.000 A 
ATOM      4  N   UNL     1       5.903   4.079  16.384  0.00  0.00    +0.000 NA
ATOM      5  O   UNL     1       4.739   3.324  16.266  0.00  0.00    +0.000 OA
ENDROOT
BRANCH   3   6
ATOM      6  C   UNL     1       6.477   6.102  17.698  0.00  0.00    +0.000 A 
ATOM      7  C   UNL     1       6.367   7.375  17.118  0.00  0.00    +0.000 A 
ATOM      8  C   UNL     1       7.241   8.404  17.482  0.00  0.00    +0.000 A 
ATOM      9  C   UNL     1       8.229   8.166  18.433  0.00  0.00    +0.000 A 
ATOM     10 CL   UNL     1       9.317   9.424  18.871  0.00  0.00    +0.000 Cl
ATOM     11  C   UNL     1       8.346   6.910  19.028  0.00  0.00    +0.000 A 
ATOM     12  C   UNL     1       7.472   5.883  18.664  0.00  0.00    +0.000 A 
ENDBRANCH   3   6
BRANCH   1  13
ATOM     13  C   UNL     1       2.473   3.289  17.141  0.00  0.00    +0.000 C 
BRANCH  13  14
ATOM     14  C   UNL     1       2.376   2.107  18.125  0.00  0.00    +0.000 C 
BRANCH  14  15
ATOM     15  N   UNL     1       3.665   1.820  18.782  0.00  0.00    +0.000 NA
ATOM     16  H   UNL     1       4.418   2.321  18.311  0.00  0.00    +0.000 HD
ATOM     17  H   UNL     1       3.897   0.830  18.676  0.00  0.00    +0.000 HD
ENDBRANCH  14  15
BRANCH  14  18
ATOM     18  C   UNL     1       1.350   2.377  19.248  0.00  0.00    +0.000 C 
BRANCH  18  20
ATOM     19  C   UNL     1       1.310   4.644  20.425  0.00  0.00    +0.000 C 
ATOM     20  C   UNL     1       1.851   3.215  20.443  0.00  0.00    +0.000 C 
ATOM     21  C   UNL     1       1.457   2.526  21.753  0.00  0.00    +0.000 C 
ENDBRANCH  18  20
ENDBRANCH  14  18
ENDBRANCH  13  14
ENDBRANCH   1  13
TORSDOF 6
ENDMDL
MODEL 9
REMARK VINA RESULT:      -6.6      4.392      6.317
REMARK  Name = 
REMARK  8 active torsions:
REMARK  status: ('A' for Active; 'I' for Inactive)
REMARK    1  A    between atoms: C_1  and  C_2
REMARK    2  A    between atoms: C_2  and  C_3
REMARK    3  A    between atoms: C_2  and  C_4
REMARK    4  A    between atoms: C_4  and  C_5
REMARK    5  A    between atoms: C_5  and  N_6
REMARK    6  A    between atoms: C_5  and  C_7
REMARK    7  A    between atoms: C_7  and  C_8
REMARK    8  A    between atoms: C_10  and  C_11
REMARK                            x       y       z     vdW  Elec       q    Type
REMARK                         _______ _______ _______ _____ _____    ______ ____
ROOT
ATOM      1  C   UNL     1       3.456   4.992  17.505  0.00  0.00    +0.000 A 
ATOM      2  N   UNL     1       2.523   5.639  18.163  0.00  0.00    +0.000 NA
ATOM      3  C   UNL     1       2.974   6.941  18.115  0.00  0.00    +0.000 A 
ATOM      4  N   UNL     1       4.151   7.084  17.482  0.00  0.00    +0.000 NA
ATOM      5  O   UNL     1       4.471   5.791  17.076  0.00  0.00    +0.000 OA
ENDROOT
BRANCH   3   6
ATOM      6  C   UNL     1       2.203   8.045  18.679  0.00  0.00    +0.000 A 
ATOM      7  C   UNL     1       1.942   9.188  17.908  0.00  0.00    +0.000 A 
ATOM      8  C   UNL     1       1.235  10.268  18.448  0.00  0.00    +0.000 A 
ATOM      9  C   UNL     1       0.782  10.207  19.762  0.00  0.00    +0.000 A 
ATOM     10 CL   UNL     1      -0.072  11.541  20.435  0.00  0.00    +0.000 Cl
ATOM     11  C   UNL     1       1.023   9.076  20.540  0.00  0.00    +0.000 A 
ATOM     12  C   UNL     1       1.729   7.997  19.999  0.00  0.00    +0.000 A 
ENDBRANCH   3   6
BRANCH   1  13
ATOM     13  C   UNL     1       3.534   3.552  17.165  0.00  0.00    +0.000 C 
BRANCH  13  14
ATOM     14  C   UNL     1       4.193   2.716  18.280  0.00  0.00    +0.000 C 
BRANCH  14  15
ATOM     15  N   UNL     1       4.935   3.554  19.241  0.00  0.00    +0.000 NA
ATOM     16  H   UNL     1       5.935   3.509  19.046  0.00  0.00    +0.000 HD
ATOM     17  H   UNL     1       4.830   3.174  20.185  0.00  0.00    +0.000 HD
ENDBRANCH  14  15
BRANCH  14  18
ATOM     18  C   UNL     1       3.149   1.918  19.093  0.00  0.00    +0.000 C 
BRANCH  18  20
ATOM     19  C   UNL     1       0.633   2.343  18.962  0.00  0.00    +0.000 C 
ATOM     20  C   UNL     1       1.950   2.721  19.639  0.00  0.00    +0.000 C 
ATOM     21  C   UNL     1       1.837   2.509  21.151  0.00  0.00    +0.000 C 
ENDBRANCH  18  20
ENDBRANCH  14  18
ENDBRANCH  13  14
ENDBRANCH   1  13
TORSDOF 6
ENDMDL
