MODEL 1
REMARK VINA RESULT:      -8.3      0.000      0.000
REMARK  Name = 
REMARK  11 active torsions:
REMARK  status: ('A' for Active; 'I' for Inactive)
REMARK    1  A    between atoms: C_1  and  C_2
REMARK    2  A    between atoms: C_7  and  N_8
REMARK    3  A    between atoms: C_9  and  C_11
REMARK    4  A    between atoms: C_11  and  S_12
REMARK    5  A    between atoms: S_12  and  C_13
REMARK    6  A    between atoms: C_16  and  C_17
REMARK    7  A    between atoms: C_17  and  N_18
REMARK    8  A    between atoms: N_18  and  C_19
REMARK    9  A    between atoms: C_20  and  C_21
REMARK   10  A    between atoms: C_25  and  C_26
REMARK   11  A    between atoms: N_27  and  C_28
REMARK                            x       y       z     vdW  Elec       q    Type
REMARK                         _______ _______ _______ _____ _____    ______ ____
ROOT
ATOM      1  C   UNL     1       7.012   6.677  17.848  0.00  0.00    +0.000 A 
ATOM      2  N   UNL     1       7.735   5.672  18.266  0.00  0.00    +0.000 NA
ATOM      3  N   UNL     1       6.986   4.528  18.087  0.00  0.00    +0.000 NA
ATOM      4  C   UNL     1       5.818   4.874  17.570  0.00  0.00    +0.000 A 
ATOM      5  N   UNL     1       5.793   6.236  17.427  0.00  0.00    +0.000 N 
ATOM      6  C   UNL     1       4.701   7.021  16.903  0.00  0.00    +0.000 C 
ENDROOT
BRANCH   1   7
ATOM      7  S   UNL     1       7.643   8.278  17.606  0.00  0.00    +0.000 S 
BRANCH   7   8
ATOM      8  C   UNL     1       8.870   8.488  18.922  0.00  0.00    +0.000 C 
BRANCH   8  10
ATOM      9  N   UNL     1       9.062  10.749  18.024  0.00  0.00    +0.000 N 
ATOM     10  C   UNL     1       9.055   9.985  19.175  0.00  0.00    +0.000 C 
ATOM     11  O   UNL     1       9.221  10.418  20.306  0.00  0.00    +0.000 OA
ATOM     12  H   UNL     1       9.175  10.271  17.127  0.00  0.00    +0.000 HD
BRANCH   9  19
ATOM     13  C   UNL     1       7.112  15.245  17.791  0.00  0.00    +0.000 C 
ATOM     14  C   UNL     1       8.333  14.383  17.900  0.00  0.00    +0.000 A 
ATOM     15  C   UNL     1       9.623  14.921  17.889  0.00  0.00    +0.000 A 
ATOM     16  C   UNL     1      10.738  14.074  17.948  0.00  0.00    +0.000 A 
ATOM     17  C   UNL     1      10.560  12.689  17.983  0.00  0.00    +0.000 A 
ATOM     18 CL   UNL     1      11.957  11.675  18.088  0.00  0.00    +0.000 Cl
ATOM     19  C   UNL     1       9.272  12.134  18.023  0.00  0.00    +0.000 A 
ATOM     20  C   UNL     1       8.168  12.995  17.983  0.00  0.00    +0.000 A 
ENDBRANCH   9  19
ENDBRANCH   8  10
ENDBRANCH   7   8
ENDBRANCH   1   7
BRANCH   4  21
ATOM     21  C   UNL     1       4.735   3.909  17.179  0.00  0.00    +0.000 C 
BRANCH  21  22
ATOM     22  N   UNL     1       4.389   2.977  18.243  0.00  0.00    +0.000 N 
ATOM     23  H   UNL     1       5.236   2.661  18.701  0.00  0.00    +0.000 HD
BRANCH  22  24
ATOM     24  C   UNL     1       3.363   3.157  19.180  0.00  0.00    +0.000 A 
ATOM     25  C   UNL     1       2.111   3.765  18.928  0.00  0.00    +0.000 A 
ATOM     26  C   UNL     1       1.628   4.286  17.600  0.00  0.00    +0.000 C 
ATOM     27  C   UNL     1       1.175   3.913  19.977  0.00  0.00    +0.000 A 
ATOM     28  C   UNL     1       1.403   3.381  21.238  0.00  0.00    +0.000 A 
ATOM     29  C   UNL     1       2.568   2.675  21.472  0.00  0.00    +0.000 A 
ATOM     30  C   UNL     1       3.539   2.543  20.462  0.00  0.00    +0.000 A 
ATOM     31  C   UNL     1       4.756   1.707  20.789  0.00  0.00    +0.000 C 
ENDBRANCH  22  24
ENDBRANCH  21  22
ENDBRANCH   4  21
TORSDOF 7
ENDMDL
MODEL 2
REMARK VINA RESULT:      -8.2      1.880      2.423
REMARK  Name = 
REMARK  11 active torsions:
REMARK  status: ('A' for Active; 'I' for Inactive)
REMARK    1  A    between atoms: C_1  and  C_2
REMARK    2  A    between atoms: C_7  and  N_8
REMARK    3  A    between atoms: C_9  and  C_11
REMARK    4  A    between atoms: C_11  and  S_12
REMARK    5  A    between atoms: S_12  and  C_13
REMARK    6  A    between atoms: C_16  and  C_17
REMARK    7  A    between atoms: C_17  and  N_18
REMARK    8  A    between atoms: N_18  and  C_19
REMARK    9  A    between atoms: C_20  and  C_21
REMARK   10  A    between atoms: C_25  and  C_26
REMARK   11  A    between atoms: N_27  and  C_28
REMARK                            x       y       z     vdW  Elec       q    Type
REMARK                         _______ _______ _______ _____ _____    ______ ____
ROOT
ATOM      1  C   UNL     1       6.885   6.589  17.690  0.00  0.00    +0.000 A 
ATOM      2  N   UNL     1       7.316   5.712  18.559  0.00  0.00    +0.000 NA
ATOM      3  N   UNL     1       6.604   4.549  18.351  0.00  0.00    +0.000 NA
ATOM      4  C   UNL     1       5.750   4.758  17.361  0.00  0.00    +0.000 A 
ATOM      5  N   UNL     1       5.887   6.052  16.935  0.00  0.00    +0.000 N 
ATOM      6  C   UNL     1       5.140   6.687  15.875  0.00  0.00    +0.000 C 
ENDROOT
BRANCH   1   7
ATOM      7  S   UNL     1       7.685   8.101  17.378  0.00  0.00    +0.000 S 
BRANCH   7   8
ATOM      8  C   UNL     1       8.685   8.402  18.858  0.00  0.00    +0.000 C 
BRANCH   8  10
ATOM      9  N   UNL     1       9.725  10.259  20.052  0.00  0.00    +0.000 N 
ATOM     10  C   UNL     1       8.960   9.903  18.958  0.00  0.00    +0.000 C 
ATOM     11  O   UNL     1       8.489  10.686  18.145  0.00  0.00    +0.000 OA
ATOM     12  H   UNL     1       9.846   9.573  20.800  0.00  0.00    +0.000 HD
BRANCH   9  19
ATOM     13  C   UNL     1       8.806  14.219  22.798  0.00  0.00    +0.000 C 
ATOM     14  C   UNL     1       9.608  13.575  21.708  0.00  0.00    +0.000 A 
ATOM     15  C   UNL     1      10.551  14.287  20.961  0.00  0.00    +0.000 A 
ATOM     16  C   UNL     1      11.245  13.655  19.921  0.00  0.00    +0.000 A 
ATOM     17  C   UNL     1      10.970  12.323  19.606  0.00  0.00    +0.000 A 
ATOM     18 CL   UNL     1      11.869  11.566  18.338  0.00  0.00    +0.000 Cl
ATOM     19  C   UNL     1      10.048  11.586  20.364  0.00  0.00    +0.000 A 
ATOM     20  C   UNL     1       9.376  12.226  21.413  0.00  0.00    +0.000 A 
ENDBRANCH   9  19
ENDBRANCH   8  10
ENDBRANCH   7   8
ENDBRANCH   1   7
BRANCH   4  21
ATOM     21  C   UNL     1       4.823   3.719  16.796  0.00  0.00    +0.000 C 
BRANCH  21  22
ATOM     22  N   UNL     1       3.422   3.974  17.101  0.00  0.00    +0.000 N 
ATOM     23  H   UNL     1       2.842   3.554  16.384  0.00  0.00    +0.000 HD
BRANCH  22  24
ATOM     24  C   UNL     1       2.826   3.833  18.361  0.00  0.00    +0.000 A 
ATOM     25  C   UNL     1       2.810   2.652  19.140  0.00  0.00    +0.000 A 
ATOM     26  C   UNL     1       3.469   1.345  18.786  0.00  0.00    +0.000 C 
ATOM     27  C   UNL     1       2.141   2.639  20.385  0.00  0.00    +0.000 A 
ATOM     28  C   UNL     1       1.582   3.787  20.926  0.00  0.00    +0.000 A 
ATOM     29  C   UNL     1       1.695   4.981  20.237  0.00  0.00    +0.000 A 
ATOM     30  C   UNL     1       2.318   5.023  18.976  0.00  0.00    +0.000 A 
ATOM     31  C   UNL     1       2.446   6.379  18.321  0.00  0.00    +0.000 C 
ENDBRANCH  22  24
ENDBRANCH  21  22
ENDBRANCH   4  21
TORSDOF 7
ENDMDL
MODEL 3
REMARK VINA RESULT:      -8.1      1.865      2.757
REMARK  Name = 
REMARK  11 active torsions:
REMARK  status: ('A' for Active; 'I' for Inactive)
REMARK    1  A    between atoms: C_1  and  C_2
REMARK    2  A    between atoms: C_7  and  N_8
REMARK    3  A    between atoms: C_9  and  C_11
REMARK    4  A    between atoms: C_11  and  S_12
REMARK    5  A    between atoms: S_12  and  C_13
REMARK    6  A    between atoms: C_16  and  C_17
REMARK    7  A    between atoms: C_17  and  N_18
REMARK    8  A    between atoms: N_18  and  C_19
REMARK    9  A    between atoms: C_20  and  C_21
REMARK   10  A    between atoms: C_25  and  C_26
REMARK   11  A    between atoms: N_27  and  C_28
REMARK                            x       y       z     vdW  Elec       q    Type
REMARK                         _______ _______ _______ _____ _____    ______ ____
ROOT
ATOM      1  C   UNL     1       7.085   5.538  17.990  0.00  0.00    +0.000 A 
ATOM      2  N   UNL     1       7.599   4.783  17.055  0.00  0.00    +0.000 NA
ATOM      3  N   UNL     1       6.568   4.042  16.517  0.00  0.00    +0.000 NA
ATOM      4  C   UNL     1       5.452   4.364  17.151  0.00  0.00    +0.000 A 
ATOM      5  N   UNL     1       5.749   5.295  18.109  0.00  0.00    +0.000 N 
ATOM      6  C   UNL     1       4.817   5.908  19.025  0.00  0.00    +0.000 C 
ENDROOT
BRANCH   1   7
ATOM      7  S   UNL     1       7.943   6.848  18.745  0.00  0.00    +0.000 S 
BRANCH   7   8
ATOM      8  C   UNL     1       8.137   8.082  17.433  0.00  0.00    +0.000 C 
BRANCH   8  10
ATOM      9  N   UNL     1       9.282   9.496  19.059  0.00  0.00    +0.000 N 
ATOM     10  C   UNL     1       8.304   9.456  18.084  0.00  0.00    +0.000 C 
ATOM     11  O   UNL     1       7.586  10.394  17.770  0.00  0.00    +0.000 OA
ATOM     12  H   UNL     1       9.639   8.609  19.422  0.00  0.00    +0.000 HD
BRANCH   9  19
ATOM     13  C   UNL     1       8.404  12.095  23.126  0.00  0.00    +0.000 C 
ATOM     14  C   UNL     1       9.140  11.959  21.827  0.00  0.00    +0.000 A 
ATOM     15  C   UNL     1       9.976  12.968  21.340  0.00  0.00    +0.000 A 
ATOM     16  C   UNL     1      10.608  12.817  20.099  0.00  0.00    +0.000 A 
ATOM     17  C   UNL     1      10.375  11.673  19.332  0.00  0.00    +0.000 A 
ATOM     18 CL   UNL     1      11.198  11.506  17.820  0.00  0.00    +0.000 Cl
ATOM     19  C   UNL     1       9.562  10.639  19.819  0.00  0.00    +0.000 A 
ATOM     20  C   UNL     1       8.952  10.797  21.070  0.00  0.00    +0.000 A 
ENDBRANCH   9  19
ENDBRANCH   8  10
ENDBRANCH   7   8
ENDBRANCH   1   7
BRANCH   4  21
ATOM     21  C   UNL     1       4.093   3.811  16.825  0.00  0.00    +0.000 C 
BRANCH  21  22
ATOM     22  N   UNL     1       3.691   2.725  17.708  0.00  0.00    +0.000 N 
ATOM     23  H   UNL     1       4.464   2.079  17.818  0.00  0.00    +0.000 HD
BRANCH  22  24
ATOM     24  C   UNL     1       3.000   2.874  18.918  0.00  0.00    +0.000 A 
ATOM     25  C   UNL     1       3.479   2.496  20.194  0.00  0.00    +0.000 A 
ATOM     26  C   UNL     1       4.833   1.911  20.498  0.00  0.00    +0.000 C 
ATOM     27  C   UNL     1       2.662   2.673  21.334  0.00  0.00    +0.000 A 
ATOM     28  C   UNL     1       1.431   3.310  21.258  0.00  0.00    +0.000 A 
ATOM     29  C   UNL     1       0.999   3.799  20.039  0.00  0.00    +0.000 A 
ATOM     30  C   UNL     1       1.768   3.603  18.877  0.00  0.00    +0.000 A 
ATOM     31  C   UNL     1       1.245   4.219  17.600  0.00  0.00    +0.000 C 
ENDBRANCH  22  24
ENDBRANCH  21  22
ENDBRANCH   4  21
TORSDOF 7
ENDMDL
MODEL 4
REMARK VINA RESULT:      -8.0      1.894      2.139
REMARK  Name = 
REMARK  11 active torsions:
REMARK  status: ('A' for Active; 'I' for Inactive)
REMARK    1  A    between atoms: C_1  and  C_2
REMARK    2  A    between atoms: C_7  and  N_8
REMARK    3  A    between atoms: C_9  and  C_11
REMARK    4  A    between atoms: C_11  and  S_12
REMARK    5  A    between atoms: S_12  and  C_13
REMARK    6  A    between atoms: C_16  and  C_17
REMARK    7  A    between atoms: C_17  and  N_18
REMARK    8  A    between atoms: N_18  and  C_19
REMARK    9  A    between atoms: C_20  and  C_21
REMARK   10  A    between atoms: C_25  and  C_26
REMARK   11  A    between atoms: N_27  and  C_28
REMARK                            x       y       z     vdW  Elec       q    Type
REMARK                         _______ _______ _______ _____ _____    ______ ____
ROOT
ATOM      1  C   UNL     1       7.133   6.884  17.940  0.00  0.00    +0.000 A 
ATOM      2  N   UNL     1       7.680   6.004  18.737  0.00  0.00    +0.000 NA
ATOM      3  N   UNL     1       6.966   4.832  18.601  0.00  0.00    +0.000 NA
ATOM      4  C   UNL     1       5.994   5.038  17.726  0.00  0.00    +0.000 A 
ATOM      5  N   UNL     1       6.058   6.340  17.305  0.00  0.00    +0.000 N 
ATOM      6  C   UNL     1       5.177   6.975  16.354  0.00  0.00    +0.000 C 
ENDROOT
BRANCH   1   7
ATOM      7  S   UNL     1       7.864   8.413  17.555  0.00  0.00    +0.000 S 
BRANCH   7   8
ATOM      8  C   UNL     1       8.880   8.811  19.001  0.00  0.00    +0.000 C 
BRANCH   8  10
ATOM      9  N   UNL     1       9.963  10.736  20.038  0.00  0.00    +0.000 N 
ATOM     10  C   UNL     1       9.156  10.315  18.998  0.00  0.00    +0.000 C 
ATOM     11  O   UNL     1       8.653  11.047  18.159  0.00  0.00    +0.000 OA
ATOM     12  H   UNL     1      10.114  10.097  20.821  0.00  0.00    +0.000 HD
BRANCH   9  19
ATOM     13  C   UNL     1       9.205  14.833  22.629  0.00  0.00    +0.000 C 
ATOM     14  C   UNL     1       9.934  14.135  21.520  0.00  0.00    +0.000 A 
ATOM     15  C   UNL     1      10.816  14.811  20.672  0.00  0.00    +0.000 A 
ATOM     16  C   UNL     1      11.441  14.128  19.620  0.00  0.00    +0.000 A 
ATOM     17  C   UNL     1      11.156  12.780  19.397  0.00  0.00    +0.000 A 
ATOM     18 CL   UNL     1      11.970  11.961  18.110  0.00  0.00    +0.000 Cl
ATOM     19  C   UNL     1      10.295  12.079  20.256  0.00  0.00    +0.000 A 
ATOM     20  C   UNL     1       9.693  12.771  21.314  0.00  0.00    +0.000 A 
ENDBRANCH   9  19
ENDBRANCH   8  10
ENDBRANCH   7   8
ENDBRANCH   1   7
BRANCH   4  21
ATOM     21  C   UNL     1       5.022   3.990  17.264  0.00  0.00    +0.000 C 
BRANCH  21  22
ATOM     22  N   UNL     1       3.631   4.403  17.392  0.00  0.00    +0.000 N 
ATOM     23  H   UNL     1       3.121   4.124  16.562  0.00  0.00    +0.000 HD
BRANCH  22  24
ATOM     24  C   UNL     1       2.837   4.240  18.535  0.00  0.00    +0.000 A 
ATOM     25  C   UNL     1       2.430   5.272  19.412  0.00  0.00    +0.000 A 
ATOM     26  C   UNL     1       2.732   6.739  19.258  0.00  0.00    +0.000 C 
ATOM     27  C   UNL     1       1.653   4.962  20.552  0.00  0.00    +0.000 A 
ATOM     28  C   UNL     1       1.181   3.679  20.786  0.00  0.00    +0.000 A 
ATOM     29  C   UNL     1       1.463   2.680  19.874  0.00  0.00    +0.000 A 
ATOM     30  C   UNL     1       2.268   2.943  18.750  0.00  0.00    +0.000 A 
ATOM     31  C   UNL     1       2.479   1.805  17.778  0.00  0.00    +0.000 C 
ENDBRANCH  22  24
ENDBRANCH  21  22
ENDBRANCH   4  21
TORSDOF 7
ENDMDL
MODEL 5
REMARK VINA RESULT:      -7.9      2.157      2.531
REMARK  Name = 
REMARK  11 active torsions:
REMARK  status: ('A' for Active; 'I' for Inactive)
REMARK    1  A    between atoms: C_1  and  C_2
REMARK    2  A    between atoms: C_7  and  N_8
REMARK    3  A    between atoms: C_9  and  C_11
REMARK    4  A    between atoms: C_11  and  S_12
REMARK    5  A    between atoms: S_12  and  C_13
REMARK    6  A    between atoms: C_16  and  C_17
REMARK    7  A    between atoms: C_17  and  N_18
REMARK    8  A    between atoms: N_18  and  C_19
REMARK    9  A    between atoms: C_20  and  C_21
REMARK   10  A    between atoms: C_25  and  C_26
REMARK   11  A    between atoms: N_27  and  C_28
REMARK                            x       y       z     vdW  Elec       q    Type
REMARK                         _______ _______ _______ _____ _____    ______ ____
ROOT
ATOM      1  C   UNL     1       7.119   6.011  18.753  0.00  0.00    +0.000 A 
ATOM      2  N   UNL     1       6.850   5.230  19.766  0.00  0.00    +0.000 NA
ATOM      3  N   UNL     1       5.960   4.276  19.319  0.00  0.00    +0.000 NA
ATOM      4  C   UNL     1       5.706   4.512  18.042  0.00  0.00    +0.000 A 
ATOM      5  N   UNL     1       6.409   5.622  17.657  0.00  0.00    +0.000 N 
ATOM      6  C   UNL     1       6.410   6.221  16.344  0.00  0.00    +0.000 C 
ENDROOT
BRANCH   1   7
ATOM      7  S   UNL     1       8.408   7.177  18.757  0.00  0.00    +0.000 S 
BRANCH   7   8
ATOM      8  C   UNL     1       7.878   8.448  17.579  0.00  0.00    +0.000 C 
BRANCH   8  10
ATOM      9  N   UNL     1       9.129   9.744  19.226  0.00  0.00    +0.000 N 
ATOM     10  C   UNL     1       8.305   9.813  18.118  0.00  0.00    +0.000 C 
ATOM     11  O   UNL     1       7.895  10.848  17.612  0.00  0.00    +0.000 OA
ATOM     12  H   UNL     1       9.199   8.852  19.720  0.00  0.00    +0.000 HD
BRANCH   9  19
ATOM     13  C   UNL     1       8.712  12.696  23.122  0.00  0.00    +0.000 C 
ATOM     14  C   UNL     1       9.402  12.367  21.833  0.00  0.00    +0.000 A 
ATOM     15  C   UNL     1      10.378  13.202  21.280  0.00  0.00    +0.000 A 
ATOM     16  C   UNL     1      10.963  12.878  20.049  0.00  0.00    +0.000 A 
ATOM     17  C   UNL     1      10.548  11.738  19.357  0.00  0.00    +0.000 A 
ATOM     18 CL   UNL     1      11.316  11.352  17.856  0.00  0.00    +0.000 Cl
ATOM     19  C   UNL     1       9.591  10.875  19.911  0.00  0.00    +0.000 A 
ATOM     20  C   UNL     1       9.028  11.203  21.151  0.00  0.00    +0.000 A 
ENDBRANCH   9  19
ENDBRANCH   8  10
ENDBRANCH   7   8
ENDBRANCH   1   7
BRANCH   4  21
ATOM     21  C   UNL     1       4.820   3.663  17.174  0.00  0.00    +0.000 C 
BRANCH  21  22
ATOM     22  N   UNL     1       3.429   4.095  17.182  0.00  0.00    +0.000 N 
ATOM     23  H   UNL     1       2.885   3.481  16.586  0.00  0.00    +0.000 HD
BRANCH  22  24
ATOM     24  C   UNL     1       2.695   4.450  18.321  0.00  0.00    +0.000 A 
ATOM     25  C   UNL     1       2.535   5.763  18.824  0.00  0.00    +0.000 A 
ATOM     26  C   UNL     1       3.079   7.024  18.206  0.00  0.00    +0.000 C 
ATOM     27  C   UNL     1       1.791   5.978  20.007  0.00  0.00    +0.000 A 
ATOM     28  C   UNL     1       1.116   4.946  20.643  0.00  0.00    +0.000 A 
ATOM     29  C   UNL     1       1.158   3.677  20.097  0.00  0.00    +0.000 A 
ATOM     30  C   UNL     1       1.921   3.418  18.944  0.00  0.00    +0.000 A 
ATOM     31  C   UNL     1       1.864   2.014  18.386  0.00  0.00    +0.000 C 
ENDBRANCH  22  24
ENDBRANCH  21  22
ENDBRANCH   4  21
TORSDOF 7
ENDMDL
MODEL 6
REMARK VINA RESULT:      -7.8      1.566      2.165
REMARK  Name = 
REMARK  11 active torsions:
REMARK  status: ('A' for Active; 'I' for Inactive)
REMARK    1  A    between atoms: C_1  and  C_2
REMARK    2  A    between atoms: C_7  and  N_8
REMARK    3  A    between atoms: C_9  and  C_11
REMARK    4  A    between atoms: C_11  and  S_12
REMARK    5  A    between atoms: S_12  and  C_13
REMARK    6  A    between atoms: C_16  and  C_17
REMARK    7  A    between atoms: C_17  and  N_18
REMARK    8  A    between atoms: N_18  and  C_19
REMARK    9  A    between atoms: C_20  and  C_21
REMARK   10  A    between atoms: C_25  and  C_26
REMARK   11  A    between atoms: N_27  and  C_28
REMARK                            x       y       z     vdW  Elec       q    Type
REMARK                         _______ _______ _______ _____ _____    ______ ____
ROOT
ATOM      1  C   UNL     1       7.593   7.380  17.885  0.00  0.00    +0.000 A 
ATOM      2  N   UNL     1       6.907   7.659  16.809  0.00  0.00    +0.000 NA
ATOM      3  N   UNL     1       6.020   6.621  16.611  0.00  0.00    +0.000 NA
ATOM      4  C   UNL     1       6.202   5.732  17.575  0.00  0.00    +0.000 A 
ATOM      5  N   UNL     1       7.211   6.173  18.389  0.00  0.00    +0.000 N 
ATOM      6  C   UNL     1       7.725   5.498  19.557  0.00  0.00    +0.000 C 
ENDROOT
BRANCH   1   7
ATOM      7  S   UNL     1       8.623   8.527  18.690  0.00  0.00    +0.000 S 
BRANCH   7   8
ATOM      8  C   UNL     1       8.396  10.069  17.767  0.00  0.00    +0.000 C 
BRANCH   8  10
ATOM      9  N   UNL     1       9.685  12.141  17.786  0.00  0.00    +0.000 N 
ATOM     10  C   UNL     1       9.030  11.208  18.567  0.00  0.00    +0.000 C 
ATOM     11  O   UNL     1       8.974  11.228  19.788  0.00  0.00    +0.000 OA
ATOM     12  H   UNL     1       9.893  11.898  16.815  0.00  0.00    +0.000 HD
BRANCH   9  19
ATOM     13  C   UNL     1       9.937  17.002  18.401  0.00  0.00    +0.000 C 
ATOM     14  C   UNL     1      10.539  15.649  18.633  0.00  0.00    +0.000 A 
ATOM     15  C   UNL     1      11.784  15.487  19.248  0.00  0.00    +0.000 A 
ATOM     16  C   UNL     1      12.329  14.206  19.403  0.00  0.00    +0.000 A 
ATOM     17  C   UNL     1      11.644  13.092  18.912  0.00  0.00    +0.000 A 
ATOM     18 CL   UNL     1      12.331  11.523  19.151  0.00  0.00    +0.000 Cl
ATOM     19  C   UNL     1      10.381  13.234  18.319  0.00  0.00    +0.000 A 
ATOM     20  C   UNL     1       9.841  14.520  18.188  0.00  0.00    +0.000 A 
ENDBRANCH   9  19
ENDBRANCH   8  10
ENDBRANCH   7   8
ENDBRANCH   1   7
BRANCH   4  21
ATOM     21  C   UNL     1       5.394   4.476  17.745  0.00  0.00    +0.000 C 
BRANCH  21  22
ATOM     22  N   UNL     1       3.960   4.697  17.616  0.00  0.00    +0.000 N 
ATOM     23  H   UNL     1       3.644   4.333  16.724  0.00  0.00    +0.000 HD
BRANCH  22  24
ATOM     24  C   UNL     1       3.007   4.449  18.613  0.00  0.00    +0.000 A 
ATOM     25  C   UNL     1       2.430   5.421  19.464  0.00  0.00    +0.000 A 
ATOM     26  C   UNL     1       2.694   6.903  19.426  0.00  0.00    +0.000 C 
ATOM     27  C   UNL     1       1.501   5.028  20.453  0.00  0.00    +0.000 A 
ATOM     28  C   UNL     1       1.049   3.720  20.552  0.00  0.00    +0.000 A 
ATOM     29  C   UNL     1       1.507   2.779  19.650  0.00  0.00    +0.000 A 
ATOM     30  C   UNL     1       2.464   3.126  18.678  0.00  0.00    +0.000 A 
ATOM     31  C   UNL     1       2.866   2.047  17.698  0.00  0.00    +0.000 C 
ENDBRANCH  22  24
ENDBRANCH  21  22
ENDBRANCH   4  21
TORSDOF 7
ENDMDL
MODEL 7
REMARK VINA RESULT:      -7.8      1.199      1.327
REMARK  Name = 
REMARK  11 active torsions:
REMARK  status: ('A' for Active; 'I' for Inactive)
REMARK    1  A    between atoms: C_1  and  C_2
REMARK    2  A    between atoms: C_7  and  N_8
REMARK    3  A    between atoms: C_9  and  C_11
REMARK    4  A    between atoms: C_11  and  S_12
REMARK    5  A    between atoms: S_12  and  C_13
REMARK    6  A    between atoms: C_16  and  C_17
REMARK    7  A    between atoms: C_17  and  N_18
REMARK    8  A    between atoms: N_18  and  C_19
REMARK    9  A    between atoms: C_20  and  C_21
REMARK   10  A    between atoms: C_25  and  C_26
REMARK   11  A    between atoms: N_27  and  C_28
REMARK                            x       y       z     vdW  Elec       q    Type
REMARK                         _______ _______ _______ _____ _____    ______ ____
ROOT
ATOM      1  C   UNL     1       7.443   7.329  18.159  0.00  0.00    +0.000 A 
ATOM      2  N   UNL     1       8.204   6.512  18.837  0.00  0.00    +0.000 NA
ATOM      3  N   UNL     1       7.611   5.268  18.787  0.00  0.00    +0.000 NA
ATOM      4  C   UNL     1       6.495   5.368  18.082  0.00  0.00    +0.000 A 
ATOM      5  N   UNL     1       6.347   6.671  17.688  0.00  0.00    +0.000 N 
ATOM      6  C   UNL     1       5.261   7.209  16.903  0.00  0.00    +0.000 C 
ENDROOT
BRANCH   1   7
ATOM      7  S   UNL     1       7.930   8.934  17.700  0.00  0.00    +0.000 S 
BRANCH   7   8
ATOM      8  C   UNL     1       9.237   9.368  18.876  0.00  0.00    +0.000 C 
BRANCH   8  10
ATOM      9  N   UNL     1       9.059  11.624  17.962  0.00  0.00    +0.000 N 
ATOM     10  C   UNL     1       9.187  10.877  19.118  0.00  0.00    +0.000 C 
ATOM     11  O   UNL     1       9.297  11.339  20.245  0.00  0.00    +0.000 OA
ATOM     12  H   UNL     1       9.235  11.163  17.067  0.00  0.00    +0.000 HD
BRANCH   9  19
ATOM     13  C   UNL     1       6.428  15.758  18.195  0.00  0.00    +0.000 C 
ATOM     14  C   UNL     1       7.767  15.099  18.054  0.00  0.00    +0.000 A 
ATOM     15  C   UNL     1       8.933  15.831  17.812  0.00  0.00    +0.000 A 
ATOM     16  C   UNL     1      10.155  15.168  17.642  0.00  0.00    +0.000 A 
ATOM     17  C   UNL     1      10.204  13.773  17.680  0.00  0.00    +0.000 A 
ATOM     18 CL   UNL     1      11.735  12.990  17.500  0.00  0.00    +0.000 Cl
ATOM     19  C   UNL     1       9.049  13.025  17.951  0.00  0.00    +0.000 A 
ATOM     20  C   UNL     1       7.837  13.703  18.137  0.00  0.00    +0.000 A 
ENDBRANCH   9  19
ENDBRANCH   8  10
ENDBRANCH   7   8
ENDBRANCH   1   7
BRANCH   4  21
ATOM     21  C   UNL     1       5.583   4.220  17.754  0.00  0.00    +0.000 C 
BRANCH  21  22
ATOM     22  N   UNL     1       5.020   3.581  18.935  0.00  0.00    +0.000 N 
ATOM     23  H   UNL     1       5.538   3.877  19.754  0.00  0.00    +0.000 HD
BRANCH  22  24
ATOM     24  C   UNL     1       3.655   3.474  19.228  0.00  0.00    +0.000 A 
ATOM     25  C   UNL     1       2.803   4.542  19.594  0.00  0.00    +0.000 A 
ATOM     26  C   UNL     1       3.189   5.995  19.688  0.00  0.00    +0.000 C 
ATOM     27  C   UNL     1       1.445   4.288  19.897  0.00  0.00    +0.000 A 
ATOM     28  C   UNL     1       0.887   3.028  19.745  0.00  0.00    +0.000 A 
ATOM     29  C   UNL     1       1.673   1.995  19.269  0.00  0.00    +0.000 A 
ATOM     30  C   UNL     1       3.038   2.202  18.997  0.00  0.00    +0.000 A 
ATOM     31  C   UNL     1       3.807   1.031  18.428  0.00  0.00    +0.000 C 
ENDBRANCH  22  24
ENDBRANCH  21  22
ENDBRANCH   4  21
TORSDOF 7
ENDMDL
MODEL 8
REMARK VINA RESULT:      -7.8      5.224      6.410
REMARK  Name = 
REMARK  11 active torsions:
REMARK  status: ('A' for Active; 'I' for Inactive)
REMARK    1  A    between atoms: C_1  and  C_2
REMARK    2  A    between atoms: C_7  and  N_8
REMARK    3  A    between atoms: C_9  and  C_11
REMARK    4  A    between atoms: C_11  and  S_12
REMARK    5  A    between atoms: S_12  and  C_13
REMARK    6  A    between atoms: C_16  and  C_17
REMARK    7  A    between atoms: C_17  and  N_18
REMARK    8  A    between atoms: N_18  and  C_19
REMARK    9  A    between atoms: C_20  and  C_21
REMARK   10  A    between atoms: C_25  and  C_26
REMARK   11  A    between atoms: N_27  and  C_28
REMARK                            x       y       z     vdW  Elec       q    Type
REMARK                         _______ _______ _______ _____ _____    ______ ____
ROOT
ATOM      1  C   UNL     1       0.996   9.826  19.096  0.00  0.00    +0.000 A 
ATOM      2  N   UNL     1       1.434  10.009  17.878  0.00  0.00    +0.000 NA
ATOM      3  N   UNL     1       2.234   8.929  17.567  0.00  0.00    +0.000 NA
ATOM      4  C   UNL     1       2.265   8.121  18.615  0.00  0.00    +0.000 A 
ATOM      5  N   UNL     1       1.507   8.673  19.613  0.00  0.00    +0.000 N 
ATOM      6  C   UNL     1       1.281   8.114  20.924  0.00  0.00    +0.000 C 
ENDROOT
BRANCH   1   7
ATOM      7  S   UNL     1      -0.274  10.774  19.811  0.00  0.00    +0.000 S 
BRANCH   7   8
ATOM      8  C   UNL     1       0.484  11.519  21.278  0.00  0.00    +0.000 C 
BRANCH   8  10
ATOM      9  N   UNL     1       1.316  12.965  19.497  0.00  0.00    +0.000 N 
ATOM     10  C   UNL     1       1.154  12.830  20.863  0.00  0.00    +0.000 C 
ATOM     11  O   UNL     1       1.535  13.636  21.699  0.00  0.00    +0.000 OA
ATOM     12  H   UNL     1       1.203  12.134  18.912  0.00  0.00    +0.000 HD
BRANCH   9  19
ATOM     13  C   UNL     1       5.465  14.891  17.723  0.00  0.00    +0.000 C 
ATOM     14  C   UNL     1       4.006  15.051  18.025  0.00  0.00    +0.000 A 
ATOM     15  C   UNL     1       3.338  16.264  17.833  0.00  0.00    +0.000 A 
ATOM     16  C   UNL     1       1.983  16.381  18.172  0.00  0.00    +0.000 A 
ATOM     17  C   UNL     1       1.308  15.295  18.733  0.00  0.00    +0.000 A 
ATOM     18 CL   UNL     1      -0.371  15.465  19.108  0.00  0.00    +0.000 Cl
ATOM     19  C   UNL     1       1.956  14.062  18.905  0.00  0.00    +0.000 A 
ATOM     20  C   UNL     1       3.305  13.956  18.544  0.00  0.00    +0.000 A 
ENDBRANCH   9  19
ENDBRANCH   8  10
ENDBRANCH   7   8
ENDBRANCH   1   7
BRANCH   4  21
ATOM     21  C   UNL     1       2.989   6.805  18.660  0.00  0.00    +0.000 C 
BRANCH  21  22
ATOM     22  N   UNL     1       2.196   5.698  18.143  0.00  0.00    +0.000 N 
ATOM     23  H   UNL     1       1.884   5.920  17.204  0.00  0.00    +0.000 HD
BRANCH  22  24
ATOM     24  C   UNL     1       2.533   4.342  18.240  0.00  0.00    +0.000 A 
ATOM     25  C   UNL     1       3.570   3.695  17.528  0.00  0.00    +0.000 A 
ATOM     26  C   UNL     1       4.533   4.348  16.573  0.00  0.00    +0.000 C 
ATOM     27  C   UNL     1       3.781   2.308  17.697  0.00  0.00    +0.000 A 
ATOM     28  C   UNL     1       3.067   1.568  18.628  0.00  0.00    +0.000 A 
ATOM     29  C   UNL     1       2.134   2.207  19.424  0.00  0.00    +0.000 A 
ATOM     30  C   UNL     1       1.868   3.579  19.254  0.00  0.00    +0.000 A 
ATOM     31  C   UNL     1       0.873   4.205  20.204  0.00  0.00    +0.000 C 
ENDBRANCH  22  24
ENDBRANCH  21  22
ENDBRANCH   4  21
TORSDOF 7
ENDMDL
MODEL 9
REMARK VINA RESULT:      -7.8      5.523      6.803
REMARK  Name = 
REMARK  11 active torsions:
REMARK  status: ('A' for Active; 'I' for Inactive)
REMARK    1  A    between atoms: C_1  and  C_2
REMARK    2  A    between atoms: C_7  and  N_8
REMARK    3  A    between atoms: C_9  and  C_11
REMARK    4  A    between atoms: C_11  and  S_12
REMARK    5  A    between atoms: S_12  and  C_13
REMARK    6  A    between atoms: C_16  and  C_17
REMARK    7  A    between atoms: C_17  and  N_18
REMARK    8  A    between atoms: N_18  and  C_19
REMARK    9  A    between atoms: C_20  and  C_21
REMARK   10  A    between atoms: C_25  and  C_26
REMARK   11  A    between atoms: N_27  and  C_28
REMARK                            x       y       z     vdW  Elec       q    Type
REMARK                         _______ _______ _______ _____ _____    ______ ____
ROOT
ATOM      1  C   UNL     1       1.044   9.815  19.009  0.00  0.00    +0.000 A 
ATOM      2  N   UNL     1       1.460   9.963  17.779  0.00  0.00    +0.000 NA
ATOM      3  N   UNL     1       2.246   8.871  17.480  0.00  0.00    +0.000 NA
ATOM      4  C   UNL     1       2.293   8.090  18.547  0.00  0.00    +0.000 A 
ATOM      5  N   UNL     1       1.558   8.673  19.545  0.00  0.00    +0.000 N 
ATOM      6  C   UNL     1       1.354   8.150  20.875  0.00  0.00    +0.000 C 
ENDROOT
BRANCH   1   7
ATOM      7  S   UNL     1      -0.204  10.791  19.723  0.00  0.00    +0.000 S 
BRANCH   7   8
ATOM      8  C   UNL     1       0.667  12.234  20.386  0.00  0.00    +0.000 C 
BRANCH   8  10
ATOM      9  N   UNL     1       1.272  14.504  19.722  0.00  0.00    +0.000 N 
ATOM     10  C   UNL     1       0.700  13.316  19.306  0.00  0.00    +0.000 C 
ATOM     11  O   UNL     1       0.214  13.120  18.201  0.00  0.00    +0.000 OA
ATOM     12  H   UNL     1       1.407  14.649  20.725  0.00  0.00    +0.000 HD
BRANCH   9  19
ATOM     13  C   UNL     1      -1.018  18.368  17.750  0.00  0.00    +0.000 C 
ATOM     14  C   UNL     1       0.239  17.568  17.907  0.00  0.00    +0.000 A 
ATOM     15  C   UNL     1       1.404  17.871  17.196  0.00  0.00    +0.000 A 
ATOM     16  C   UNL     1       2.543  17.068  17.340  0.00  0.00    +0.000 A 
ATOM     17  C   UNL     1       2.504  15.944  18.168  0.00  0.00    +0.000 A 
ATOM     18 CL   UNL     1       3.939  14.995  18.347  0.00  0.00    +0.000 Cl
ATOM     19  C   UNL     1       1.353  15.642  18.910  0.00  0.00    +0.000 A 
ATOM     20  C   UNL     1       0.228  16.466  18.770  0.00  0.00    +0.000 A 
ENDBRANCH   9  19
ENDBRANCH   8  10
ENDBRANCH   7   8
ENDBRANCH   1   7
BRANCH   4  21
ATOM     21  C   UNL     1       3.009   6.770  18.613  0.00  0.00    +0.000 C 
BRANCH  21  22
ATOM     22  N   UNL     1       2.183   5.650  18.182  0.00  0.00    +0.000 N 
ATOM     23  H   UNL     1       1.778   5.861  17.278  0.00  0.00    +0.000 HD
BRANCH  22  24
ATOM     24  C   UNL     1       2.545   4.298  18.255  0.00  0.00    +0.000 A 
ATOM     25  C   UNL     1       3.587   3.682  17.523  0.00  0.00    +0.000 A 
ATOM     26  C   UNL     1       4.530   4.368  16.570  0.00  0.00    +0.000 C 
ATOM     27  C   UNL     1       3.825   2.296  17.667  0.00  0.00    +0.000 A 
ATOM     28  C   UNL     1       3.132   1.529  18.593  0.00  0.00    +0.000 A 
ATOM     29  C   UNL     1       2.196   2.138  19.407  0.00  0.00    +0.000 A 
ATOM     30  C   UNL     1       1.904   3.507  19.262  0.00  0.00    +0.000 A 
ATOM     31  C   UNL     1       0.906   4.100  20.231  0.00  0.00    +0.000 C 
ENDBRANCH  22  24
ENDBRANCH  21  22
ENDBRANCH   4  21
TORSDOF 7
ENDMDL
