MODEL 1
REMARK VINA RESULT:      -8.5      0.000      0.000
REMARK  Name = 
REMARK  4 active torsions:
REMARK  status: ('A' for Active; 'I' for Inactive)
REMARK    1  A    between atoms: C_2  and  C_26
REMARK    2  A    between atoms: N_3  and  N_4
REMARK    3  A    between atoms: C_5  and  C_6
REMARK    4  A    between atoms: C_16  and  C_17
REMARK                            x       y       z     vdW  Elec       q    Type
REMARK                         _______ _______ _______ _____ _____    ______ ____
ROOT
ATOM      1  N   UNL     1       0.736   9.786  20.304  0.00  0.00    +0.000 NA
ATOM      2  C   UNL     1       0.732  10.439  21.687  0.00  0.00    +0.000 C 
ATOM      3  C   UNL     1       1.392   9.154  22.206  0.00  0.00    +0.000 C 
ATOM      4  C   UNL     1       0.703   8.448  20.996  0.00  0.00    +0.000 C 
ENDROOT
BRANCH   2   5
ATOM      5  C   UNL     1      -0.671  10.761  22.365  0.00  0.00    +0.000 C 
ATOM      6  O   UNL     1      -1.240  10.046  23.196  0.00  0.00    +0.000 OA
ATOM      7  N   UNL     1      -1.241  11.925  21.872  0.00  0.00    +0.000 N 
ATOM      8  C   UNL     1      -2.479  12.391  22.311  0.00  0.00    +0.000 A 
ATOM      9  C   UNL     1      -2.752  12.545  23.665  0.00  0.00    +0.000 A 
ATOM     10  C   UNL     1      -4.016  12.989  24.040  0.00  0.00    +0.000 A 
ATOM     11  C   UNL     1      -4.968  13.224  23.056  0.00  0.00    +0.000 A 
ATOM     12  C   UNL     1      -4.592  13.067  21.732  0.00  0.00    +0.000 A 
ATOM     13  N   UNL     1      -3.353  12.701  21.336  0.00  0.00    +0.000 NA
ATOM     14  H   UNL     1      -1.034  12.174  20.913  0.00  0.00    +0.000 HD
ENDBRANCH   2   5
BRANCH   4  15
ATOM     15  C   UNL     1       1.621   7.332  20.386  0.00  0.00    +0.000 C 
ATOM     16  O   UNL     1       1.694   6.215  20.911  0.00  0.00    +0.000 OA
ATOM     17  N   UNL     1       2.292   7.701  19.238  0.00  0.00    +0.000 N 
ATOM     18  C   UNL     1       3.051   6.833  18.452  0.00  0.00    +0.000 A 
ATOM     19  C   UNL     1       3.867   7.378  17.467  0.00  0.00    +0.000 A 
ATOM     20  C   UNL     1       4.640   6.520  16.683  0.00  0.00    +0.000 A 
ATOM     21  C   UNL     1       4.563   5.148  16.896  0.00  0.00    +0.000 A 
ATOM     22  C   UNL     1       3.712   4.692  17.883  0.00  0.00    +0.000 A 
ATOM     23  N   UNL     1       2.963   5.505  18.648  0.00  0.00    +0.000 NA
ATOM     24  H   UNL     1       2.317   8.694  19.013  0.00  0.00    +0.000 HD
ENDBRANCH   4  15
BRANCH   1  27
ATOM     25  O   UNL     1       0.172   9.421  17.471  0.00  0.00    +0.000 OA
ATOM     26  C   UNL     1      -0.621   9.964  18.228  0.00  0.00    +0.000 C 
ATOM     27  N   UNL     1      -0.429  10.152  19.588  0.00  0.00    +0.000 N 
ATOM     28  H   UNL     1      -1.100  10.722  20.094  0.00  0.00    +0.000 HD
BRANCH  26  29
ATOM     29  C   UNL     1      -1.914  10.465  17.677  0.00  0.00    +0.000 A 
ATOM     30  C   UNL     1      -2.799  11.243  18.425  0.00  0.00    +0.000 A 
ATOM     31  C   UNL     1      -3.993  11.623  17.839  0.00  0.00    +0.000 A 
ATOM     32  N   UNL     1      -4.353  11.282  16.585  0.00  0.00    +0.000 NA
ATOM     33  C   UNL     1      -3.487  10.519  15.884  0.00  0.00    +0.000 A 
ATOM     34  C   UNL     1      -2.268  10.091  16.378  0.00  0.00    +0.000 A 
ENDBRANCH  26  29
ENDBRANCH   1  27
TORSDOF 4
ENDMDL
MODEL 2
REMARK VINA RESULT:      -8.3      1.286      1.727
REMARK  Name = 
REMARK  4 active torsions:
REMARK  status: ('A' for Active; 'I' for Inactive)
REMARK    1  A    between atoms: C_2  and  C_26
REMARK    2  A    between atoms: N_3  and  N_4
REMARK    3  A    between atoms: C_5  and  C_6
REMARK    4  A    between atoms: C_16  and  C_17
REMARK                            x       y       z     vdW  Elec       q    Type
REMARK                         _______ _______ _______ _____ _____    ______ ____
ROOT
ATOM      1  N   UNL     1       0.748   9.913  20.257  0.00  0.00    +0.000 NA
ATOM      2  C   UNL     1       0.745  10.495  21.671  0.00  0.00    +0.000 C 
ATOM      3  C   UNL     1       1.451   9.206  22.116  0.00  0.00    +0.000 C 
ATOM      4  C   UNL     1       0.765   8.541  20.882  0.00  0.00    +0.000 C 
ENDROOT
BRANCH   2   5
ATOM      5  C   UNL     1      -0.655  10.741  22.384  0.00  0.00    +0.000 C 
ATOM      6  O   UNL     1      -1.188   9.971  23.189  0.00  0.00    +0.000 OA
ATOM      7  N   UNL     1      -1.270  11.907  21.953  0.00  0.00    +0.000 N 
ATOM      8  C   UNL     1      -2.514  12.313  22.431  0.00  0.00    +0.000 A 
ATOM      9  C   UNL     1      -2.770  12.396  23.795  0.00  0.00    +0.000 A 
ATOM     10  C   UNL     1      -4.042  12.781  24.209  0.00  0.00    +0.000 A 
ATOM     11  C   UNL     1      -5.016  13.031  23.251  0.00  0.00    +0.000 A 
ATOM     12  C   UNL     1      -4.657  12.946  21.915  0.00  0.00    +0.000 A 
ATOM     13  N   UNL     1      -3.413  12.638  21.485  0.00  0.00    +0.000 NA
ATOM     14  H   UNL     1      -1.087  12.206  21.004  0.00  0.00    +0.000 HD
ENDBRANCH   2   5
BRANCH   4  15
ATOM     15  C   UNL     1       1.706   7.485  20.203  0.00  0.00    +0.000 C 
ATOM     16  O   UNL     1       2.425   7.799  19.248  0.00  0.00    +0.000 OA
ATOM     17  N   UNL     1       1.668   6.229  20.773  0.00  0.00    +0.000 N 
ATOM     18  C   UNL     1       2.517   5.177  20.425  0.00  0.00    +0.000 A 
ATOM     19  C   UNL     1       2.217   3.904  20.898  0.00  0.00    +0.000 A 
ATOM     20  C   UNL     1       3.052   2.842  20.546  0.00  0.00    +0.000 A 
ATOM     21  C   UNL     1       4.165   3.086  19.748  0.00  0.00    +0.000 A 
ATOM     22  C   UNL     1       4.397   4.384  19.340  0.00  0.00    +0.000 A 
ATOM     23  N   UNL     1       3.602   5.417  19.668  0.00  0.00    +0.000 NA
ATOM     24  H   UNL     1       0.902   6.032  21.414  0.00  0.00    +0.000 HD
ENDBRANCH   4  15
BRANCH   1  27
ATOM     25  O   UNL     1       0.058   9.459  17.465  0.00  0.00    +0.000 OA
ATOM     26  C   UNL     1      -0.691  10.046  18.233  0.00  0.00    +0.000 C 
ATOM     27  N   UNL     1      -0.438  10.278  19.576  0.00  0.00    +0.000 N 
ATOM     28  H   UNL     1      -1.076  10.881  20.088  0.00  0.00    +0.000 HD
BRANCH  26  29
ATOM     29  C   UNL     1      -1.996  10.556  17.717  0.00  0.00    +0.000 A 
ATOM     30  C   UNL     1      -2.887  11.278  18.513  0.00  0.00    +0.000 A 
ATOM     31  C   UNL     1      -4.091  11.670  17.955  0.00  0.00    +0.000 A 
ATOM     32  N   UNL     1      -4.454  11.392  16.686  0.00  0.00    +0.000 NA
ATOM     33  C   UNL     1      -3.581  10.682  15.940  0.00  0.00    +0.000 A 
ATOM     34  C   UNL     1      -2.352  10.248  16.402  0.00  0.00    +0.000 A 
ENDBRANCH  26  29
ENDBRANCH   1  27
TORSDOF 4
ENDMDL
MODEL 3
REMARK VINA RESULT:      -7.8      1.267      1.483
REMARK  Name = 
REMARK  4 active torsions:
REMARK  status: ('A' for Active; 'I' for Inactive)
REMARK    1  A    between atoms: C_2  and  C_26
REMARK    2  A    between atoms: N_3  and  N_4
REMARK    3  A    between atoms: C_5  and  C_6
REMARK    4  A    between atoms: C_16  and  C_17
REMARK                            x       y       z     vdW  Elec       q    Type
REMARK                         _______ _______ _______ _____ _____    ______ ____
ROOT
ATOM      1  N   UNL     1       0.512  10.566  19.686  0.00  0.00    +0.000 NA
ATOM      2  C   UNL     1       0.546  11.568  20.842  0.00  0.00    +0.000 C 
ATOM      3  C   UNL     1       1.164  10.447  21.689  0.00  0.00    +0.000 C 
ATOM      4  C   UNL     1       0.436   9.467  20.715  0.00  0.00    +0.000 C 
ENDROOT
BRANCH   2   5
ATOM      5  C   UNL     1      -0.836  12.115  21.407  0.00  0.00    +0.000 C 
ATOM      6  O   UNL     1      -1.883  12.209  20.757  0.00  0.00    +0.000 OA
ATOM      7  N   UNL     1      -0.735  12.550  22.720  0.00  0.00    +0.000 N 
ATOM      8  C   UNL     1      -1.820  13.085  23.412  0.00  0.00    +0.000 A 
ATOM      9  C   UNL     1      -3.037  12.416  23.474  0.00  0.00    +0.000 A 
ATOM     10  C   UNL     1      -4.090  13.015  24.158  0.00  0.00    +0.000 A 
ATOM     11  C   UNL     1      -3.901  14.272  24.719  0.00  0.00    +0.000 A 
ATOM     12  C   UNL     1      -2.644  14.848  24.627  0.00  0.00    +0.000 A 
ATOM     13  N   UNL     1      -1.586  14.259  24.025  0.00  0.00    +0.000 NA
ATOM     14  H   UNL     1       0.156  12.924  23.018  0.00  0.00    +0.000 HD
ENDBRANCH   2   5
BRANCH   4  15
ATOM     15  C   UNL     1       1.306   8.193  20.430  0.00  0.00    +0.000 C 
ATOM     16  O   UNL     1       1.335   7.253  21.232  0.00  0.00    +0.000 OA
ATOM     17  N   UNL     1       1.989   8.217  19.231  0.00  0.00    +0.000 N 
ATOM     18  C   UNL     1       2.709   7.142  18.709  0.00  0.00    +0.000 A 
ATOM     19  C   UNL     1       3.544   7.373  17.621  0.00  0.00    +0.000 A 
ATOM     20  C   UNL     1       4.279   6.308  17.099  0.00  0.00    +0.000 A 
ATOM     21  C   UNL     1       4.146   5.046  17.667  0.00  0.00    +0.000 A 
ATOM     22  C   UNL     1       3.280   4.903  18.732  0.00  0.00    +0.000 A 
ATOM     23  N   UNL     1       2.567   5.918  19.249  0.00  0.00    +0.000 NA
ATOM     24  H   UNL     1       2.053   9.113  18.751  0.00  0.00    +0.000 HD
ENDBRANCH   4  15
BRANCH   1  27
ATOM     25  O   UNL     1      -0.293   9.158  17.268  0.00  0.00    +0.000 OA
ATOM     26  C   UNL     1      -0.956  10.070  17.741  0.00  0.00    +0.000 C 
ATOM     27  N   UNL     1      -0.646  10.769  18.898  0.00  0.00    +0.000 N 
ATOM     28  H   UNL     1      -1.204  11.586  19.130  0.00  0.00    +0.000 HD
BRANCH  26  29
ATOM     29  C   UNL     1      -2.213  10.481  17.048  0.00  0.00    +0.000 A 
ATOM     30  C   UNL     1      -3.181  11.281  17.659  0.00  0.00    +0.000 A 
ATOM     31  C   UNL     1      -4.331  11.571  16.949  0.00  0.00    +0.000 A 
ATOM     32  N   UNL     1      -4.573  11.125  15.700  0.00  0.00    +0.000 NA
ATOM     33  C   UNL     1      -3.629  10.343  15.134  0.00  0.00    +0.000 A 
ATOM     34  C   UNL     1      -2.443   9.998  15.758  0.00  0.00    +0.000 A 
ENDBRANCH  26  29
ENDBRANCH   1  27
TORSDOF 4
ENDMDL
MODEL 4
REMARK VINA RESULT:      -7.6      3.235      4.156
REMARK  Name = 
REMARK  4 active torsions:
REMARK  status: ('A' for Active; 'I' for Inactive)
REMARK    1  A    between atoms: C_2  and  C_26
REMARK    2  A    between atoms: N_3  and  N_4
REMARK    3  A    between atoms: C_5  and  C_6
REMARK    4  A    between atoms: C_16  and  C_17
REMARK                            x       y       z     vdW  Elec       q    Type
REMARK                         _______ _______ _______ _____ _____    ______ ____
ROOT
ATOM      1  N   UNL     1       0.088  12.266  22.094  0.00  0.00    +0.000 NA
ATOM      2  C   UNL     1      -1.102  12.345  23.052  0.00  0.00    +0.000 C 
ATOM      3  C   UNL     1      -1.194  10.817  22.934  0.00  0.00    +0.000 C 
ATOM      4  C   UNL     1      -0.512  10.998  21.542  0.00  0.00    +0.000 C 
ENDROOT
BRANCH   2   5
ATOM      5  C   UNL     1      -2.410  13.108  22.567  0.00  0.00    +0.000 C 
ATOM      6  O   UNL     1      -2.450  14.286  22.197  0.00  0.00    +0.000 OA
ATOM      7  N   UNL     1      -3.547  12.321  22.663  0.00  0.00    +0.000 N 
ATOM      8  C   UNL     1      -4.811  12.791  22.309  0.00  0.00    +0.000 A 
ATOM      9  C   UNL     1      -5.037  13.390  21.075  0.00  0.00    +0.000 A 
ATOM     10  C   UNL     1      -6.314  13.864  20.792  0.00  0.00    +0.000 A 
ATOM     11  C   UNL     1      -7.303  13.757  21.761  0.00  0.00    +0.000 A 
ATOM     12  C   UNL     1      -6.988  13.121  22.951  0.00  0.00    +0.000 A 
ATOM     13  N   UNL     1      -5.774  12.594  23.227  0.00  0.00    +0.000 NA
ATOM     14  H   UNL     1      -3.569  11.623  23.396  0.00  0.00    +0.000 HD
ENDBRANCH   2   5
BRANCH   4  15
ATOM     15  C   UNL     1       0.494   9.832  21.242  0.00  0.00    +0.000 C 
ATOM     16  O   UNL     1       0.883   9.083  22.145  0.00  0.00    +0.000 OA
ATOM     17  N   UNL     1       0.865   9.717  19.918  0.00  0.00    +0.000 N 
ATOM     18  C   UNL     1       1.635   8.675  19.400  0.00  0.00    +0.000 A 
ATOM     19  C   UNL     1       2.139   8.805  18.110  0.00  0.00    +0.000 A 
ATOM     20  C   UNL     1       2.922   7.775  17.586  0.00  0.00    +0.000 A 
ATOM     21  C   UNL     1       3.164   6.644  18.359  0.00  0.00    +0.000 A 
ATOM     22  C   UNL     1       2.609   6.590  19.621  0.00  0.00    +0.000 A 
ATOM     23  N   UNL     1       1.855   7.574  20.142  0.00  0.00    +0.000 NA
ATOM     24  H   UNL     1       0.647  10.500  19.304  0.00  0.00    +0.000 HD
ENDBRANCH   4  15
BRANCH   1  27
ATOM     25  O   UNL     1       1.924  12.847  19.910  0.00  0.00    +0.000 OA
ATOM     26  C   UNL     1       1.017  13.608  20.218  0.00  0.00    +0.000 C 
ATOM     27  N   UNL     1       0.095  13.386  21.229  0.00  0.00    +0.000 N 
ATOM     28  H   UNL     1      -0.539  14.141  21.475  0.00  0.00    +0.000 HD
BRANCH  26  29
ATOM     29  C   UNL     1       0.854  14.881  19.455  0.00  0.00    +0.000 A 
ATOM     30  C   UNL     1       1.938  15.580  18.921  0.00  0.00    +0.000 A 
ATOM     31  C   UNL     1       1.688  16.773  18.267  0.00  0.00    +0.000 A 
ATOM     32  N   UNL     1       0.456  17.301  18.118  0.00  0.00    +0.000 NA
ATOM     33  C   UNL     1      -0.575  16.614  18.653  0.00  0.00    +0.000 A 
ATOM     34  C   UNL     1      -0.431  15.411  19.321  0.00  0.00    +0.000 A 
ENDBRANCH  26  29
ENDBRANCH   1  27
TORSDOF 4
ENDMDL
MODEL 5
REMARK VINA RESULT:      -7.6      1.486      2.024
REMARK  Name = 
REMARK  4 active torsions:
REMARK  status: ('A' for Active; 'I' for Inactive)
REMARK    1  A    between atoms: C_2  and  C_26
REMARK    2  A    between atoms: N_3  and  N_4
REMARK    3  A    between atoms: C_5  and  C_6
REMARK    4  A    between atoms: C_16  and  C_17
REMARK                            x       y       z     vdW  Elec       q    Type
REMARK                         _______ _______ _______ _____ _____    ______ ____
ROOT
ATOM      1  N   UNL     1       0.210  11.129  19.617  0.00  0.00    +0.000 NA
ATOM      2  C   UNL     1       0.136  12.281  20.620  0.00  0.00    +0.000 C 
ATOM      3  C   UNL     1       0.750  11.319  21.647  0.00  0.00    +0.000 C 
ATOM      4  C   UNL     1       0.121  10.180  20.785  0.00  0.00    +0.000 C 
ENDROOT
BRANCH   2   5
ATOM      5  C   UNL     1      -1.297  12.833  21.031  0.00  0.00    +0.000 C 
ATOM      6  O   UNL     1      -1.822  13.856  20.579  0.00  0.00    +0.000 OA
ATOM      7  N   UNL     1      -1.894  12.068  22.021  0.00  0.00    +0.000 N 
ATOM      8  C   UNL     1      -3.148  12.377  22.547  0.00  0.00    +0.000 A 
ATOM      9  C   UNL     1      -4.243  12.595  21.719  0.00  0.00    +0.000 A 
ATOM     10  C   UNL     1      -5.461  12.927  22.304  0.00  0.00    +0.000 A 
ATOM     11  C   UNL     1      -5.531  13.066  23.684  0.00  0.00    +0.000 A 
ATOM     12  C   UNL     1      -4.391  12.802  24.427  0.00  0.00    +0.000 A 
ATOM     13  N   UNL     1      -3.212  12.414  23.890  0.00  0.00    +0.000 NA
ATOM     14  H   UNL     1      -1.284  11.604  22.682  0.00  0.00    +0.000 HD
ENDBRANCH   2   5
BRANCH   4  15
ATOM     15  C   UNL     1       1.057   8.923  20.726  0.00  0.00    +0.000 C 
ATOM     16  O   UNL     1       1.254   8.232  21.733  0.00  0.00    +0.000 OA
ATOM     17  N   UNL     1       1.597   8.662  19.484  0.00  0.00    +0.000 N 
ATOM     18  C   UNL     1       2.342   7.526  19.167  0.00  0.00    +0.000 A 
ATOM     19  C   UNL     1       3.027   7.502  17.957  0.00  0.00    +0.000 A 
ATOM     20  C   UNL     1       3.786   6.376  17.636  0.00  0.00    +0.000 A 
ATOM     21  C   UNL     1       3.824   5.305  18.522  0.00  0.00    +0.000 A 
ATOM     22  C   UNL     1       3.098   5.405  19.691  0.00  0.00    +0.000 A 
ATOM     23  N   UNL     1       2.364   6.484  20.017  0.00  0.00    +0.000 NA
ATOM     24  H   UNL     1       1.532   9.401  18.785  0.00  0.00    +0.000 HD
ENDBRANCH   4  15
BRANCH   1  27
ATOM     25  O   UNL     1      -0.451   9.297  17.453  0.00  0.00    +0.000 OA
ATOM     26  C   UNL     1      -1.149  10.265  17.722  0.00  0.00    +0.000 C 
ATOM     27  N   UNL     1      -0.907  11.164  18.749  0.00  0.00    +0.000 N 
ATOM     28  H   UNL     1      -1.486  11.998  18.804  0.00  0.00    +0.000 HD
BRANCH  26  29
ATOM     29  C   UNL     1      -2.373  10.520  16.906  0.00  0.00    +0.000 A 
ATOM     30  C   UNL     1      -2.527  10.028  15.609  0.00  0.00    +0.000 A 
ATOM     31  C   UNL     1      -3.680  10.355  14.919  0.00  0.00    +0.000 A 
ATOM     32  N   UNL     1      -4.664  11.125  15.427  0.00  0.00    +0.000 NA
ATOM     33  C   UNL     1      -4.487  11.600  16.678  0.00  0.00    +0.000 A 
ATOM     34  C   UNL     1      -3.374  11.327  17.452  0.00  0.00    +0.000 A 
ENDBRANCH  26  29
ENDBRANCH   1  27
TORSDOF 4
ENDMDL
MODEL 6
REMARK VINA RESULT:      -7.5      1.429      2.023
REMARK  Name = 
REMARK  4 active torsions:
REMARK  status: ('A' for Active; 'I' for Inactive)
REMARK    1  A    between atoms: C_2  and  C_26
REMARK    2  A    between atoms: N_3  and  N_4
REMARK    3  A    between atoms: C_5  and  C_6
REMARK    4  A    between atoms: C_16  and  C_17
REMARK                            x       y       z     vdW  Elec       q    Type
REMARK                         _______ _______ _______ _____ _____    ______ ____
ROOT
ATOM      1  N   UNL     1       0.709   9.786  20.063  0.00  0.00    +0.000 NA
ATOM      2  C   UNL     1       0.721  10.462  21.435  0.00  0.00    +0.000 C 
ATOM      3  C   UNL     1       1.517   9.249  21.936  0.00  0.00    +0.000 C 
ATOM      4  C   UNL     1       0.829   8.463  20.776  0.00  0.00    +0.000 C 
ENDROOT
BRANCH   2   5
ATOM      5  C   UNL     1      -0.666  10.676  22.182  0.00  0.00    +0.000 C 
ATOM      6  O   UNL     1      -1.248   9.823  22.859  0.00  0.00    +0.000 OA
ATOM      7  N   UNL     1      -1.208  11.930  21.942  0.00  0.00    +0.000 N 
ATOM      8  C   UNL     1      -2.429  12.330  22.483  0.00  0.00    +0.000 A 
ATOM      9  C   UNL     1      -2.687  12.213  23.844  0.00  0.00    +0.000 A 
ATOM     10  C   UNL     1      -3.935  12.604  24.318  0.00  0.00    +0.000 A 
ATOM     11  C   UNL     1      -4.888  13.058  23.415  0.00  0.00    +0.000 A 
ATOM     12  C   UNL     1      -4.527  13.163  22.081  0.00  0.00    +0.000 A 
ATOM     13  N   UNL     1      -3.301  12.852  21.603  0.00  0.00    +0.000 NA
ATOM     14  H   UNL     1      -1.002  12.363  21.051  0.00  0.00    +0.000 HD
ENDBRANCH   2   5
BRANCH   4  15
ATOM     15  C   UNL     1       1.806   7.418  20.133  0.00  0.00    +0.000 C 
ATOM     16  O   UNL     1       2.565   7.743  19.213  0.00  0.00    +0.000 OA
ATOM     17  N   UNL     1       1.753   6.158  20.692  0.00  0.00    +0.000 N 
ATOM     18  C   UNL     1       2.623   5.115  20.376  0.00  0.00    +0.000 A 
ATOM     19  C   UNL     1       2.313   3.836  20.826  0.00  0.00    +0.000 A 
ATOM     20  C   UNL     1       3.169   2.783  20.505  0.00  0.00    +0.000 A 
ATOM     21  C   UNL     1       4.315   3.040  19.759  0.00  0.00    +0.000 A 
ATOM     22  C   UNL     1       4.556   4.342  19.370  0.00  0.00    +0.000 A 
ATOM     23  N   UNL     1       3.740   5.367  19.669  0.00  0.00    +0.000 NA
ATOM     24  H   UNL     1       0.960   5.952  21.298  0.00  0.00    +0.000 HD
ENDBRANCH   4  15
BRANCH   1  27
ATOM     25  O   UNL     1       0.060  11.943  18.218  0.00  0.00    +0.000 OA
ATOM     26  C   UNL     1      -0.763  11.101  18.551  0.00  0.00    +0.000 C 
ATOM     27  N   UNL     1      -0.518  10.037  19.406  0.00  0.00    +0.000 N 
ATOM     28  H   UNL     1      -1.307   9.471  19.706  0.00  0.00    +0.000 HD
BRANCH  26  29
ATOM     29  C   UNL     1      -2.148  11.191  18.001  0.00  0.00    +0.000 A 
ATOM     30  C   UNL     1      -2.455  10.861  16.680  0.00  0.00    +0.000 A 
ATOM     31  C   UNL     1      -3.761  11.019  16.253  0.00  0.00    +0.000 A 
ATOM     32  N   UNL     1      -4.756  11.476  17.041  0.00  0.00    +0.000 NA
ATOM     33  C   UNL     1      -4.433  11.800  18.311  0.00  0.00    +0.000 A 
ATOM     34  C   UNL     1      -3.159  11.674  18.835  0.00  0.00    +0.000 A 
ENDBRANCH  26  29
ENDBRANCH   1  27
TORSDOF 4
ENDMDL
MODEL 7
REMARK VINA RESULT:      -7.5      0.959      1.276
REMARK  Name = 
REMARK  4 active torsions:
REMARK  status: ('A' for Active; 'I' for Inactive)
REMARK    1  A    between atoms: C_2  and  C_26
REMARK    2  A    between atoms: N_3  and  N_4
REMARK    3  A    between atoms: C_5  and  C_6
REMARK    4  A    between atoms: C_16  and  C_17
REMARK                            x       y       z     vdW  Elec       q    Type
REMARK                         _______ _______ _______ _____ _____    ______ ____
ROOT
ATOM      1  N   UNL     1       0.656   9.858  19.933  0.00  0.00    +0.000 NA
ATOM      2  C   UNL     1       0.812  10.758  21.160  0.00  0.00    +0.000 C 
ATOM      3  C   UNL     1       1.526   9.578  21.834  0.00  0.00    +0.000 C 
ATOM      4  C   UNL     1       0.701   8.675  20.864  0.00  0.00    +0.000 C 
ENDROOT
BRANCH   2   5
ATOM      5  C   UNL     1      -0.502  11.234  21.919  0.00  0.00    +0.000 C 
ATOM      6  O   UNL     1      -1.246  10.503  22.579  0.00  0.00    +0.000 OA
ATOM      7  N   UNL     1      -0.775  12.577  21.709  0.00  0.00    +0.000 N 
ATOM      8  C   UNL     1      -1.889  13.206  22.264  0.00  0.00    +0.000 A 
ATOM      9  C   UNL     1      -2.165  13.114  23.624  0.00  0.00    +0.000 A 
ATOM     10  C   UNL     1      -3.307  13.740  24.113  0.00  0.00    +0.000 A 
ATOM     11  C   UNL     1      -4.147  14.400  23.225  0.00  0.00    +0.000 A 
ATOM     12  C   UNL     1      -3.773  14.459  21.891  0.00  0.00    +0.000 A 
ATOM     13  N   UNL     1      -2.636  13.916  21.401  0.00  0.00    +0.000 NA
ATOM     14  H   UNL     1      -0.486  12.979  20.827  0.00  0.00    +0.000 HD
ENDBRANCH   2   5
BRANCH   4  15
ATOM     15  C   UNL     1       1.540   7.443  20.376  0.00  0.00    +0.000 C 
ATOM     16  O   UNL     1       1.503   6.368  20.986  0.00  0.00    +0.000 OA
ATOM     17  N   UNL     1       2.275   7.663  19.229  0.00  0.00    +0.000 N 
ATOM     18  C   UNL     1       2.982   6.677  18.540  0.00  0.00    +0.000 A 
ATOM     19  C   UNL     1       3.871   7.075  17.547  0.00  0.00    +0.000 A 
ATOM     20  C   UNL     1       4.593   6.097  16.860  0.00  0.00    +0.000 A 
ATOM     21  C   UNL     1       4.394   4.757  17.174  0.00  0.00    +0.000 A 
ATOM     22  C   UNL     1       3.478   4.452  18.160  0.00  0.00    +0.000 A 
ATOM     23  N   UNL     1       2.777   5.380  18.833  0.00  0.00    +0.000 NA
ATOM     24  H   UNL     1       2.390   8.630  18.929  0.00  0.00    +0.000 HD
ENDBRANCH   4  15
BRANCH   1  27
ATOM     25  O   UNL     1      -0.144  12.207  18.410  0.00  0.00    +0.000 OA
ATOM     26  C   UNL     1      -0.902  11.267  18.602  0.00  0.00    +0.000 C 
ATOM     27  N   UNL     1      -0.583  10.111  19.297  0.00  0.00    +0.000 N 
ATOM     28  H   UNL     1      -1.328   9.450  19.498  0.00  0.00    +0.000 HD
BRANCH  26  29
ATOM     29  C   UNL     1      -2.286  11.333  18.046  0.00  0.00    +0.000 A 
ATOM     30  C   UNL     1      -2.572  11.062  16.707  0.00  0.00    +0.000 A 
ATOM     31  C   UNL     1      -3.881  11.192  16.279  0.00  0.00    +0.000 A 
ATOM     32  N   UNL     1      -4.897  11.569  17.081  0.00  0.00    +0.000 NA
ATOM     33  C   UNL     1      -4.595  11.839  18.369  0.00  0.00    +0.000 A 
ATOM     34  C   UNL     1      -3.320  11.734  18.896  0.00  0.00    +0.000 A 
ENDBRANCH  26  29
ENDBRANCH   1  27
TORSDOF 4
ENDMDL
MODEL 8
REMARK VINA RESULT:      -7.4      3.638      8.458
REMARK  Name = 
REMARK  4 active torsions:
REMARK  status: ('A' for Active; 'I' for Inactive)
REMARK    1  A    between atoms: C_2  and  C_26
REMARK    2  A    between atoms: N_3  and  N_4
REMARK    3  A    between atoms: C_5  and  C_6
REMARK    4  A    between atoms: C_16  and  C_17
REMARK                            x       y       z     vdW  Elec       q    Type
REMARK                         _______ _______ _______ _____ _____    ______ ____
ROOT
ATOM      1  N   UNL     1      -1.271  12.205  20.962  0.00  0.00    +0.000 NA
ATOM      2  C   UNL     1      -0.407  13.465  21.032  0.00  0.00    +0.000 C 
ATOM      3  C   UNL     1      -1.692  14.263  20.772  0.00  0.00    +0.000 C 
ATOM      4  C   UNL     1      -2.216  12.971  20.071  0.00  0.00    +0.000 C 
ENDROOT
BRANCH   2   5
ATOM      5  C   UNL     1       0.716  13.672  19.925  0.00  0.00    +0.000 C 
ATOM      6  O   UNL     1       0.749  13.102  18.830  0.00  0.00    +0.000 OA
ATOM      7  N   UNL     1       1.718  14.534  20.344  0.00  0.00    +0.000 N 
ATOM      8  C   UNL     1       2.814  14.848  19.541  0.00  0.00    +0.000 A 
ATOM      9  C   UNL     1       2.646  15.292  18.235  0.00  0.00    +0.000 A 
ATOM     10  C   UNL     1       3.780  15.563  17.476  0.00  0.00    +0.000 A 
ATOM     11  C   UNL     1       5.033  15.345  18.033  0.00  0.00    +0.000 A 
ATOM     12  C   UNL     1       5.098  14.925  19.352  0.00  0.00    +0.000 A 
ATOM     13  N   UNL     1       4.014  14.717  20.133  0.00  0.00    +0.000 NA
ATOM     14  H   UNL     1       1.925  14.560  21.334  0.00  0.00    +0.000 HD
ENDBRANCH   2   5
BRANCH   4  15
ATOM     15  C   UNL     1      -3.746  12.754  20.340  0.00  0.00    +0.000 C 
ATOM     16  O   UNL     1      -4.512  12.435  19.423  0.00  0.00    +0.000 OA
ATOM     17  N   UNL     1      -4.131  12.926  21.654  0.00  0.00    +0.000 N 
ATOM     18  C   UNL     1      -5.407  12.651  22.147  0.00  0.00    +0.000 A 
ATOM     19  C   UNL     1      -5.730  13.093  23.425  0.00  0.00    +0.000 A 
ATOM     20  C   UNL     1      -7.008  12.836  23.924  0.00  0.00    +0.000 A 
ATOM     21  C   UNL     1      -7.917  12.133  23.138  0.00  0.00    +0.000 A 
ATOM     22  C   UNL     1      -7.505  11.715  21.889  0.00  0.00    +0.000 A 
ATOM     23  N   UNL     1      -6.279  11.957  21.393  0.00  0.00    +0.000 NA
ATOM     24  H   UNL     1      -3.466  13.380  22.278  0.00  0.00    +0.000 HD
ENDBRANCH   4  15
BRANCH   1  27
ATOM     25  O   UNL     1       0.585  10.338  22.204  0.00  0.00    +0.000 OA
ATOM     26  C   UNL     1       0.337  10.309  21.006  0.00  0.00    +0.000 C 
ATOM     27  N   UNL     1      -0.549  11.151  20.353  0.00  0.00    +0.000 N 
ATOM     28  H   UNL     1      -0.585  11.117  19.338  0.00  0.00    +0.000 HD
BRANCH  26  29
ATOM     29  C   UNL     1       1.019   9.291  20.154  0.00  0.00    +0.000 A 
ATOM     30  C   UNL     1       1.525   8.096  20.670  0.00  0.00    +0.000 A 
ATOM     31  C   UNL     1       2.178   7.236  19.806  0.00  0.00    +0.000 A 
ATOM     32  N   UNL     1       2.356   7.486  18.493  0.00  0.00    +0.000 NA
ATOM     33  C   UNL     1       1.869   8.653  18.019  0.00  0.00    +0.000 A 
ATOM     34  C   UNL     1       1.198   9.577  18.798  0.00  0.00    +0.000 A 
ENDBRANCH  26  29
ENDBRANCH   1  27
TORSDOF 4
ENDMDL
MODEL 9
REMARK VINA RESULT:      -7.3      3.268      4.405
REMARK  Name = 
REMARK  4 active torsions:
REMARK  status: ('A' for Active; 'I' for Inactive)
REMARK    1  A    between atoms: C_2  and  C_26
REMARK    2  A    between atoms: N_3  and  N_4
REMARK    3  A    between atoms: C_5  and  C_6
REMARK    4  A    between atoms: C_16  and  C_17
REMARK                            x       y       z     vdW  Elec       q    Type
REMARK                         _______ _______ _______ _____ _____    ______ ____
ROOT
ATOM      1  N   UNL     1      -0.129  12.347  22.130  0.00  0.00    +0.000 NA
ATOM      2  C   UNL     1      -1.251  12.387  23.168  0.00  0.00    +0.000 C 
ATOM      3  C   UNL     1      -1.269  10.854  23.091  0.00  0.00    +0.000 C 
ATOM      4  C   UNL     1      -0.696  11.035  21.650  0.00  0.00    +0.000 C 
ENDROOT
BRANCH   2   5
ATOM      5  C   UNL     1      -2.630  13.068  22.762  0.00  0.00    +0.000 C 
ATOM      6  O   UNL     1      -2.751  14.206  22.298  0.00  0.00    +0.000 OA
ATOM      7  N   UNL     1      -3.722  12.261  23.047  0.00  0.00    +0.000 N 
ATOM      8  C   UNL     1      -5.031  12.663  22.790  0.00  0.00    +0.000 A 
ATOM      9  C   UNL     1      -5.406  13.142  21.540  0.00  0.00    +0.000 A 
ATOM     10  C   UNL     1      -6.722  13.554  21.354  0.00  0.00    +0.000 A 
ATOM     11  C   UNL     1      -7.601  13.508  22.429  0.00  0.00    +0.000 A 
ATOM     12  C   UNL     1      -7.141  12.990  23.629  0.00  0.00    +0.000 A 
ATOM     13  N   UNL     1      -5.886  12.523  23.818  0.00  0.00    +0.000 NA
ATOM     14  H   UNL     1      -3.642  11.632  23.835  0.00  0.00    +0.000 HD
ENDBRANCH   2   5
BRANCH   4  15
ATOM     15  C   UNL     1       0.348   9.917  21.304  0.00  0.00    +0.000 C 
ATOM     16  O   UNL     1       0.801   9.178  22.186  0.00  0.00    +0.000 OA
ATOM     17  N   UNL     1       0.679   9.829  19.967  0.00  0.00    +0.000 N 
ATOM     18  C   UNL     1       1.475   8.827  19.413  0.00  0.00    +0.000 A 
ATOM     19  C   UNL     1       1.928   8.989  18.108  0.00  0.00    +0.000 A 
ATOM     20  C   UNL     1       2.736   7.999  17.548  0.00  0.00    +0.000 A 
ATOM     21  C   UNL     1       3.054   6.873  18.300  0.00  0.00    +0.000 A 
ATOM     22  C   UNL     1       2.545   6.785  19.581  0.00  0.00    +0.000 A 
ATOM     23  N   UNL     1       1.768   7.730  20.136  0.00  0.00    +0.000 NA
ATOM     24  H   UNL     1       0.406  10.607  19.369  0.00  0.00    +0.000 HD
ENDBRANCH   4  15
BRANCH   1  27
ATOM     25  O   UNL     1       1.458  14.787  22.066  0.00  0.00    +0.000 OA
ATOM     26  C   UNL     1       0.538  14.588  21.285  0.00  0.00    +0.000 C 
ATOM     27  N   UNL     1      -0.244  13.443  21.244  0.00  0.00    +0.000 N 
ATOM     28  H   UNL     1      -1.056  13.438  20.634  0.00  0.00    +0.000 HD
BRANCH  26  29
ATOM     29  C   UNL     1       0.212  15.637  20.273  0.00  0.00    +0.000 A 
ATOM     30  C   UNL     1      -1.059  16.201  20.159  0.00  0.00    +0.000 A 
ATOM     31  C   UNL     1      -1.273  17.135  19.162  0.00  0.00    +0.000 A 
ATOM     32  N   UNL     1      -0.322  17.531  18.290  0.00  0.00    +0.000 NA
ATOM     33  C   UNL     1       0.896  16.962  18.412  0.00  0.00    +0.000 A 
ATOM     34  C   UNL     1       1.212  16.023  19.377  0.00  0.00    +0.000 A 
ENDBRANCH  26  29
ENDBRANCH   1  27
TORSDOF 4
ENDMDL
