MODEL 1
REMARK VINA RESULT:      -7.7      0.000      0.000
REMARK  Name = 
REMARK  2 active torsions:
REMARK  status: ('A' for Active; 'I' for Inactive)
REMARK    1  A    between atoms: C_1  and  C_2
REMARK    2  A    between atoms: C_11  and  C_13
REMARK                            x       y       z     vdW  Elec       q    Type
REMARK                         _______ _______ _______ _____ _____    ______ ____
ROOT
ATOM      1  C   UNL     1      -0.735  11.190  21.893  0.00  0.00    +0.000 C 
ATOM      2  C   UNL     1      -0.032   9.935  21.491  0.00  0.00    +0.000 A 
ATOM      3  C   UNL     1      -0.501   8.687  21.849  0.00  0.00    +0.000 A 
ATOM      4  C   UNL     1       0.201   7.560  21.430  0.00  0.00    +0.000 A 
ATOM      5  C   UNL     1       1.342   7.690  20.648  0.00  0.00    +0.000 A 
ATOM      6  N   UNL     1       2.012   6.583  20.160  0.00  0.00    +0.000 N 
ATOM      7  C   UNL     1       2.150   5.360  20.945  0.00  0.00    +0.000 C 
ATOM      8  C   UNL     1       1.259   4.251  20.404  0.00  0.00    +0.000 C 
ATOM      9  C   UNL     1       1.378   3.956  18.905  0.00  0.00    +0.000 C 
ATOM     10  N   UNL     1       2.609   4.419  18.258  0.00  0.00    +0.000 N 
ATOM     11  C   UNL     1       3.596   3.475  17.946  0.00  0.00    +0.000 C 
ATOM     12  O   UNL     1       3.422   2.284  18.197  0.00  0.00    +0.000 OA
ATOM     13  C   UNL     1       2.621   5.848  17.893  0.00  0.00    +0.000 C 
ATOM     14  C   UNL     1       2.972   6.775  19.071  0.00  0.00    +0.000 C 
ATOM     15  N   UNL     1       1.750   8.934  20.317  0.00  0.00    +0.000 NA
ATOM     16  N   UNL     1       1.078  10.061  20.742  0.00  0.00    +0.000 NA
ENDROOT
BRANCH  11  17
ATOM     17  C   UNL     1       4.822   3.909  17.294  0.00  0.00    +0.000 A 
ATOM     18  C   UNL     1       5.023   4.079  15.927  0.00  0.00    +0.000 A 
ATOM     19  C   UNL     1       6.356   4.501  15.722  0.00  0.00    +0.000 A 
ATOM     20 CL   UNL     1       7.056   4.862  14.222  0.00  0.00    +0.000 Cl
ATOM     21  C   UNL     1       6.963   4.550  16.950  0.00  0.00    +0.000 A 
ATOM     22  N   UNL     1       6.051   4.124  17.879  0.00  0.00    +0.000 N 
ATOM     23  H   UNL     1       6.264   3.982  18.853  0.00  0.00    +0.000 HD
ENDBRANCH  11  17
TORSDOF 1
ENDMDL
MODEL 2
REMARK VINA RESULT:      -7.6      4.090      5.470
REMARK  Name = 
REMARK  2 active torsions:
REMARK  status: ('A' for Active; 'I' for Inactive)
REMARK    1  A    between atoms: C_1  and  C_2
REMARK    2  A    between atoms: C_11  and  C_13
REMARK                            x       y       z     vdW  Elec       q    Type
REMARK                         _______ _______ _______ _____ _____    ______ ____
ROOT
ATOM      1  C   UNL     1       1.086   2.607  22.143  0.00  0.00    +0.000 C 
ATOM      2  C   UNL     1       1.883   3.129  20.993  0.00  0.00    +0.000 A 
ATOM      3  C   UNL     1       2.793   4.155  21.139  0.00  0.00    +0.000 A 
ATOM      4  C   UNL     1       3.509   4.584  20.024  0.00  0.00    +0.000 A 
ATOM      5  C   UNL     1       3.322   3.974  18.790  0.00  0.00    +0.000 A 
ATOM      6  N   UNL     1       4.074   4.333  17.686  0.00  0.00    +0.000 N 
ATOM      7  C   UNL     1       4.465   5.718  17.441  0.00  0.00    +0.000 C 
ATOM      8  C   UNL     1       5.949   5.930  17.710  0.00  0.00    +0.000 C 
ATOM      9  C   UNL     1       6.910   4.959  17.017  0.00  0.00    +0.000 C 
ATOM     10  N   UNL     1       6.372   4.251  15.850  0.00  0.00    +0.000 N 
ATOM     11  C   UNL     1       6.770   4.668  14.574  0.00  0.00    +0.000 C 
ATOM     12  O   UNL     1       7.566   5.596  14.440  0.00  0.00    +0.000 OA
ATOM     13  C   UNL     1       5.540   3.074  16.164  0.00  0.00    +0.000 C 
ATOM     14  C   UNL     1       4.088   3.434  16.531  0.00  0.00    +0.000 C 
ATOM     15  N   UNL     1       2.427   2.966  18.705  0.00  0.00    +0.000 NA
ATOM     16  N   UNL     1       1.696   2.545  19.796  0.00  0.00    +0.000 NA
ENDROOT
BRANCH  11  17
ATOM     17  C   UNL     1       6.259   3.975  13.401  0.00  0.00    +0.000 A 
ATOM     18  C   UNL     1       4.983   4.087  12.857  0.00  0.00    +0.000 A 
ATOM     19  C   UNL     1       4.902   3.237  11.731  0.00  0.00    +0.000 A 
ATOM     20 CL   UNL     1       3.550   3.057  10.727  0.00  0.00    +0.000 Cl
ATOM     21  C   UNL     1       6.106   2.591  11.619  0.00  0.00    +0.000 A 
ATOM     22  N   UNL     1       6.888   2.990  12.670  0.00  0.00    +0.000 N 
ATOM     23  H   UNL     1       7.795   2.603  12.876  0.00  0.00    +0.000 HD
ENDBRANCH  11  17
TORSDOF 1
ENDMDL
MODEL 3
REMARK VINA RESULT:      -6.5      3.973      5.420
REMARK  Name = 
REMARK  2 active torsions:
REMARK  status: ('A' for Active; 'I' for Inactive)
REMARK    1  A    between atoms: C_1  and  C_2
REMARK    2  A    between atoms: C_11  and  C_13
REMARK                            x       y       z     vdW  Elec       q    Type
REMARK                         _______ _______ _______ _____ _____    ______ ____
ROOT
ATOM      1  C   UNL     1       1.107   2.544  22.271  0.00  0.00    +0.000 C 
ATOM      2  C   UNL     1       1.825   3.089  21.080  0.00  0.00    +0.000 A 
ATOM      3  C   UNL     1       2.561   4.255  21.140  0.00  0.00    +0.000 A 
ATOM      4  C   UNL     1       3.214   4.699  19.993  0.00  0.00    +0.000 A 
ATOM      5  C   UNL     1       3.139   3.968  18.813  0.00  0.00    +0.000 A 
ATOM      6  N   UNL     1       3.838   4.350  17.683  0.00  0.00    +0.000 N 
ATOM      7  C   UNL     1       4.010   5.755  17.324  0.00  0.00    +0.000 C 
ATOM      8  C   UNL     1       5.438   6.219  17.572  0.00  0.00    +0.000 C 
ATOM      9  C   UNL     1       6.548   5.358  16.960  0.00  0.00    +0.000 C 
ATOM     10  N   UNL     1       6.142   4.482  15.857  0.00  0.00    +0.000 N 
ATOM     11  C   UNL     1       6.485   4.851  14.550  0.00  0.00    +0.000 C 
ATOM     12  O   UNL     1       7.126   5.878  14.339  0.00  0.00    +0.000 OA
ATOM     13  C   UNL     1       5.502   3.218  16.268  0.00  0.00    +0.000 C 
ATOM     14  C   UNL     1       4.007   3.373  16.606  0.00  0.00    +0.000 C 
ATOM     15  N   UNL     1       2.415   2.829  18.813  0.00  0.00    +0.000 NA
ATOM     16  N   UNL     1       1.746   2.388  19.936  0.00  0.00    +0.000 NA
ENDROOT
BRANCH  11  17
ATOM     17  C   UNL     1       6.102   3.992  13.439  0.00  0.00    +0.000 A 
ATOM     18  C   UNL     1       6.922   3.098  12.757  0.00  0.00    +0.000 A 
ATOM     19  C   UNL     1       6.157   2.474  11.746  0.00  0.00    +0.000 A 
ATOM     20 CL   UNL     1       6.719   1.288  10.675  0.00  0.00    +0.000 Cl
ATOM     21  C   UNL     1       4.897   3.013  11.795  0.00  0.00    +0.000 A 
ATOM     22  N   UNL     1       4.898   3.975  12.770  0.00  0.00    +0.000 N 
ATOM     23  H   UNL     1       4.120   4.586  12.958  0.00  0.00    +0.000 HD
ENDBRANCH  11  17
TORSDOF 1
ENDMDL
MODEL 4
REMARK VINA RESULT:      -6.3      0.938      1.044
REMARK  Name = 
REMARK  2 active torsions:
REMARK  status: ('A' for Active; 'I' for Inactive)
REMARK    1  A    between atoms: C_1  and  C_2
REMARK    2  A    between atoms: C_11  and  C_13
REMARK                            x       y       z     vdW  Elec       q    Type
REMARK                         _______ _______ _______ _____ _____    ______ ____
ROOT
ATOM      1  C   UNL     1      -0.994  11.287  22.101  0.00  0.00    +0.000 C 
ATOM      2  C   UNL     1      -0.255  10.055  21.691  0.00  0.00    +0.000 A 
ATOM      3  C   UNL     1      -0.695   8.791  22.030  0.00  0.00    +0.000 A 
ATOM      4  C   UNL     1       0.038   7.687  21.603  0.00  0.00    +0.000 A 
ATOM      5  C   UNL     1       1.182   7.856  20.834  0.00  0.00    +0.000 A 
ATOM      6  N   UNL     1       1.885   6.773  20.337  0.00  0.00    +0.000 N 
ATOM      7  C   UNL     1       2.047   5.544  21.109  0.00  0.00    +0.000 C 
ATOM      8  C   UNL     1       1.189   4.419  20.547  0.00  0.00    +0.000 C 
ATOM      9  C   UNL     1       1.328   4.145  19.045  0.00  0.00    +0.000 C 
ATOM     10  N   UNL     1       2.553   4.647  18.415  0.00  0.00    +0.000 N 
ATOM     11  C   UNL     1       3.566   3.732  18.101  0.00  0.00    +0.000 C 
ATOM     12  O   UNL     1       3.420   2.535  18.335  0.00  0.00    +0.000 OA
ATOM     13  C   UNL     1       2.532   6.080  18.067  0.00  0.00    +0.000 C 
ATOM     14  C   UNL     1       2.849   7.002  19.260  0.00  0.00    +0.000 C 
ATOM     15  N   UNL     1       1.562   9.113  20.520  0.00  0.00    +0.000 NA
ATOM     16  N   UNL     1       0.857  10.218  20.953  0.00  0.00    +0.000 NA
ENDROOT
BRANCH  11  17
ATOM     17  C   UNL     1       4.786   4.205  17.465  0.00  0.00    +0.000 A 
ATOM     18  C   UNL     1       5.477   5.378  17.755  0.00  0.00    +0.000 A 
ATOM     19  C   UNL     1       6.600   5.457  16.900  0.00  0.00    +0.000 A 
ATOM     20 CL   UNL     1       7.755   6.696  16.903  0.00  0.00    +0.000 Cl
ATOM     21  C   UNL     1       6.565   4.361  16.078  0.00  0.00    +0.000 A 
ATOM     22  N   UNL     1       5.432   3.654  16.379  0.00  0.00    +0.000 N 
ATOM     23  H   UNL     1       5.119   2.847  15.864  0.00  0.00    +0.000 HD
ENDBRANCH  11  17
TORSDOF 1
ENDMDL
MODEL 5
REMARK VINA RESULT:      -6.2      3.932      7.530
REMARK  Name = 
REMARK  2 active torsions:
REMARK  status: ('A' for Active; 'I' for Inactive)
REMARK    1  A    between atoms: C_1  and  C_2
REMARK    2  A    between atoms: C_11  and  C_13
REMARK                            x       y       z     vdW  Elec       q    Type
REMARK                         _______ _______ _______ _____ _____    ______ ____
ROOT
ATOM      1  C   UNL     1       7.220   4.567  16.980  0.00  0.00    +0.000 C 
ATOM      2  C   UNL     1       5.967   5.184  17.511  0.00  0.00    +0.000 A 
ATOM      3  C   UNL     1       5.581   5.036  18.828  0.00  0.00    +0.000 A 
ATOM      4  C   UNL     1       4.405   5.648  19.256  0.00  0.00    +0.000 A 
ATOM      5  C   UNL     1       3.646   6.409  18.376  0.00  0.00    +0.000 A 
ATOM      6  N   UNL     1       2.515   7.086  18.797  0.00  0.00    +0.000 N 
ATOM      7  C   UNL     1       1.608   6.520  19.791  0.00  0.00    +0.000 C 
ATOM      8  C   UNL     1       1.740   7.231  21.131  0.00  0.00    +0.000 C 
ATOM      9  C   UNL     1       1.636   8.759  21.101  0.00  0.00    +0.000 C 
ATOM     10  N   UNL     1       0.983   9.333  19.920  0.00  0.00    +0.000 N 
ATOM     11  C   UNL     1      -0.328   9.810  20.048  0.00  0.00    +0.000 C 
ATOM     12  O   UNL     1      -0.906   9.763  21.131  0.00  0.00    +0.000 OA
ATOM     13  C   UNL     1       1.844   9.451  18.728  0.00  0.00    +0.000 C 
ATOM     14  C   UNL     1       1.972   8.137  17.936  0.00  0.00    +0.000 C 
ATOM     15  N   UNL     1       4.076   6.530  17.102  0.00  0.00    +0.000 NA
ATOM     16  N   UNL     1       5.227   5.913  16.658  0.00  0.00    +0.000 NA
ENDROOT
BRANCH  11  17
ATOM     17  C   UNL     1      -0.993  10.394  18.893  0.00  0.00    +0.000 A 
ATOM     18  C   UNL     1      -1.518   9.711  17.801  0.00  0.00    +0.000 A 
ATOM     19  C   UNL     1      -2.065  10.657  16.904  0.00  0.00    +0.000 A 
ATOM     20 CL   UNL     1      -2.842  10.295  15.442  0.00  0.00    +0.000 Cl
ATOM     21  C   UNL     1      -1.839  11.900  17.434  0.00  0.00    +0.000 A 
ATOM     22  N   UNL     1      -1.131  11.733  18.594  0.00  0.00    +0.000 N 
ATOM     23  H   UNL     1      -0.761  12.492  19.142  0.00  0.00    +0.000 HD
ENDBRANCH  11  17
TORSDOF 1
ENDMDL
MODEL 6
REMARK VINA RESULT:      -5.8      2.940      7.290
REMARK  Name = 
REMARK  2 active torsions:
REMARK  status: ('A' for Active; 'I' for Inactive)
REMARK    1  A    between atoms: C_1  and  C_2
REMARK    2  A    between atoms: C_11  and  C_13
REMARK                            x       y       z     vdW  Elec       q    Type
REMARK                         _______ _______ _______ _____ _____    ______ ____
ROOT
ATOM      1  C   UNL     1       7.935   4.784  12.850  0.00  0.00    +0.000 C 
ATOM      2  C   UNL     1       6.894   4.806  13.921  0.00  0.00    +0.000 A 
ATOM      3  C   UNL     1       6.421   3.649  14.506  0.00  0.00    +0.000 A 
ATOM      4  C   UNL     1       5.458   3.745  15.506  0.00  0.00    +0.000 A 
ATOM      5  C   UNL     1       4.995   4.988  15.920  0.00  0.00    +0.000 A 
ATOM      6  N   UNL     1       4.093   5.112  16.962  0.00  0.00    +0.000 N 
ATOM      7  C   UNL     1       3.016   4.148  17.163  0.00  0.00    +0.000 C 
ATOM      8  C   UNL     1       3.289   3.255  18.365  0.00  0.00    +0.000 C 
ATOM      9  C   UNL     1       3.637   3.968  19.676  0.00  0.00    +0.000 C 
ATOM     10  N   UNL     1       3.235   5.376  19.764  0.00  0.00    +0.000 N 
ATOM     11  C   UNL     1       2.116   5.703  20.541  0.00  0.00    +0.000 C 
ATOM     12  O   UNL     1       1.500   4.829  21.148  0.00  0.00    +0.000 OA
ATOM     13  C   UNL     1       4.146   6.327  19.100  0.00  0.00    +0.000 C 
ATOM     14  C   UNL     1       3.920   6.428  17.580  0.00  0.00    +0.000 C 
ATOM     15  N   UNL     1       5.499   6.089  15.323  0.00  0.00    +0.000 NA
ATOM     16  N   UNL     1       6.439   6.008  14.316  0.00  0.00    +0.000 NA
ENDROOT
BRANCH  11  17
ATOM     17  C   UNL     1       1.704   7.094  20.653  0.00  0.00    +0.000 A 
ATOM     18  C   UNL     1       1.401   7.960  19.607  0.00  0.00    +0.000 A 
ATOM     19  C   UNL     1       1.057   9.216  20.154  0.00  0.00    +0.000 A 
ATOM     20 CL   UNL     1       0.586  10.582  19.268  0.00  0.00    +0.000 Cl
ATOM     21  C   UNL     1       1.186   9.119  21.515  0.00  0.00    +0.000 A 
ATOM     22  N   UNL     1       1.643   7.860  21.798  0.00  0.00    +0.000 N 
ATOM     23  H   UNL     1       1.905   7.550  22.719  0.00  0.00    +0.000 HD
ENDBRANCH  11  17
TORSDOF 1
ENDMDL
MODEL 7
REMARK VINA RESULT:      -5.6      3.244      7.449
REMARK  Name = 
REMARK  2 active torsions:
REMARK  status: ('A' for Active; 'I' for Inactive)
REMARK    1  A    between atoms: C_1  and  C_2
REMARK    2  A    between atoms: C_11  and  C_13
REMARK                            x       y       z     vdW  Elec       q    Type
REMARK                         _______ _______ _______ _____ _____    ______ ____
ROOT
ATOM      1  C   UNL     1       7.958   4.897  12.966  0.00  0.00    +0.000 C 
ATOM      2  C   UNL     1       6.899   4.893  14.020  0.00  0.00    +0.000 A 
ATOM      3  C   UNL     1       6.451   3.725  14.603  0.00  0.00    +0.000 A 
ATOM      4  C   UNL     1       5.469   3.797  15.587  0.00  0.00    +0.000 A 
ATOM      5  C   UNL     1       4.964   5.028  15.988  0.00  0.00    +0.000 A 
ATOM      6  N   UNL     1       4.042   5.129  17.014  0.00  0.00    +0.000 N 
ATOM      7  C   UNL     1       2.990   4.135  17.203  0.00  0.00    +0.000 C 
ATOM      8  C   UNL     1       3.270   3.255  18.413  0.00  0.00    +0.000 C 
ATOM      9  C   UNL     1       3.576   3.984  19.726  0.00  0.00    +0.000 C 
ATOM     10  N   UNL     1       3.131   5.379  19.801  0.00  0.00    +0.000 N 
ATOM     11  C   UNL     1       1.991   5.677  20.559  0.00  0.00    +0.000 C 
ATOM     12  O   UNL     1       1.391   4.788  21.159  0.00  0.00    +0.000 OA
ATOM     13  C   UNL     1       4.024   6.354  19.148  0.00  0.00    +0.000 C 
ATOM     14  C   UNL     1       3.821   6.442  17.624  0.00  0.00    +0.000 C 
ATOM     15  N   UNL     1       5.445   6.140  15.394  0.00  0.00    +0.000 NA
ATOM     16  N   UNL     1       6.403   6.083  14.402  0.00  0.00    +0.000 NA
ENDROOT
BRANCH  11  17
ATOM     17  C   UNL     1       1.537   7.056  20.658  0.00  0.00    +0.000 A 
ATOM     18  C   UNL     1       0.725   7.596  21.650  0.00  0.00    +0.000 A 
ATOM     19  C   UNL     1       0.519   8.964  21.362  0.00  0.00    +0.000 A 
ATOM     20 CL   UNL     1      -0.383  10.045  22.304  0.00  0.00    +0.000 Cl
ATOM     21  C   UNL     1       1.171   9.237  20.188  0.00  0.00    +0.000 A 
ATOM     22  N   UNL     1       1.720   8.065  19.738  0.00  0.00    +0.000 N 
ATOM     23  H   UNL     1       2.184   7.966  18.850  0.00  0.00    +0.000 HD
ENDBRANCH  11  17
TORSDOF 1
ENDMDL
MODEL 8
REMARK VINA RESULT:      -5.6      1.567      1.781
REMARK  Name = 
REMARK  2 active torsions:
REMARK  status: ('A' for Active; 'I' for Inactive)
REMARK    1  A    between atoms: C_1  and  C_2
REMARK    2  A    between atoms: C_11  and  C_13
REMARK                            x       y       z     vdW  Elec       q    Type
REMARK                         _______ _______ _______ _____ _____    ______ ____
ROOT
ATOM      1  C   UNL     1      -1.148  12.578  19.334  0.00  0.00    +0.000 C 
ATOM      2  C   UNL     1      -0.359  11.316  19.462  0.00  0.00    +0.000 A 
ATOM      3  C   UNL     1      -0.598  10.403  20.469  0.00  0.00    +0.000 A 
ATOM      4  C   UNL     1       0.170   9.242  20.521  0.00  0.00    +0.000 A 
ATOM      5  C   UNL     1       1.146   9.000  19.563  0.00  0.00    +0.000 A 
ATOM      6  N   UNL     1       1.870   7.822  19.552  0.00  0.00    +0.000 N 
ATOM      7  C   UNL     1       2.289   7.166  20.787  0.00  0.00    +0.000 C 
ATOM      8  C   UNL     1       1.476   5.906  21.049  0.00  0.00    +0.000 C 
ATOM      9  C   UNL     1       1.394   4.900  19.895  0.00  0.00    +0.000 C 
ATOM     10  N   UNL     1       2.436   5.016  18.871  0.00  0.00    +0.000 N 
ATOM     11  C   UNL     1       3.477   4.078  18.867  0.00  0.00    +0.000 C 
ATOM     12  O   UNL     1       3.501   3.170  19.695  0.00  0.00    +0.000 OA
ATOM     13  C   UNL     1       2.204   6.066  17.862  0.00  0.00    +0.000 C 
ATOM     14  C   UNL     1       2.612   7.472  18.340  0.00  0.00    +0.000 C 
ATOM     15  N   UNL     1       1.330   9.921  18.593  0.00  0.00    +0.000 NA
ATOM     16  N   UNL     1       0.592  11.085  18.540  0.00  0.00    +0.000 NA
ENDROOT
BRANCH  11  17
ATOM     17  C   UNL     1       4.517   4.165  17.853  0.00  0.00    +0.000 A 
ATOM     18  C   UNL     1       5.429   5.202  17.683  0.00  0.00    +0.000 A 
ATOM     19  C   UNL     1       6.255   4.892  16.579  0.00  0.00    +0.000 A 
ATOM     20 CL   UNL     1       7.532   5.846  16.006  0.00  0.00    +0.000 Cl
ATOM     21  C   UNL     1       5.821   3.697  16.067  0.00  0.00    +0.000 A 
ATOM     22  N   UNL     1       4.731   3.306  16.798  0.00  0.00    +0.000 N 
ATOM     23  H   UNL     1       4.167   2.501  16.578  0.00  0.00    +0.000 HD
ENDBRANCH  11  17
TORSDOF 1
ENDMDL
MODEL 9
REMARK VINA RESULT:      -5.5      9.218     12.328
REMARK  Name = 
REMARK  2 active torsions:
REMARK  status: ('A' for Active; 'I' for Inactive)
REMARK    1  A    between atoms: C_1  and  C_2
REMARK    2  A    between atoms: C_11  and  C_13
REMARK                            x       y       z     vdW  Elec       q    Type
REMARK                         _______ _______ _______ _____ _____    ______ ____
ROOT
ATOM      1  C   UNL     1      -2.687   9.775  15.488  0.00  0.00    +0.000 C 
ATOM      2  C   UNL     1      -3.204  10.613  16.611  0.00  0.00    +0.000 A 
ATOM      3  C   UNL     1      -4.555  10.808  16.817  0.00  0.00    +0.000 A 
ATOM      4  C   UNL     1      -4.965  11.594  17.891  0.00  0.00    +0.000 A 
ATOM      5  C   UNL     1      -4.029  12.156  18.751  0.00  0.00    +0.000 A 
ATOM      6  N   UNL     1      -4.415  12.878  19.865  0.00  0.00    +0.000 N 
ATOM      7  C   UNL     1      -5.582  13.755  19.845  0.00  0.00    +0.000 C 
ATOM      8  C   UNL     1      -6.738  13.157  20.635  0.00  0.00    +0.000 C 
ATOM      9  C   UNL     1      -6.420  12.701  22.063  0.00  0.00    +0.000 C 
ATOM     10  N   UNL     1      -5.218  13.283  22.667  0.00  0.00    +0.000 N 
ATOM     11  C   UNL     1      -5.373  14.290  23.628  0.00  0.00    +0.000 C 
ATOM     12  O   UNL     1      -6.495  14.663  23.966  0.00  0.00    +0.000 OA
ATOM     13  C   UNL     1      -3.949  12.644  22.269  0.00  0.00    +0.000 C 
ATOM     14  C   UNL     1      -3.420  13.134  20.908  0.00  0.00    +0.000 C 
ATOM     15  N   UNL     1      -2.721  11.924  18.510  0.00  0.00    +0.000 NA
ATOM     16  N   UNL     1      -2.299  11.165  17.438  0.00  0.00    +0.000 NA
ENDROOT
BRANCH  11  17
ATOM     17  C   UNL     1      -4.195  14.875  24.250  0.00  0.00    +0.000 A 
ATOM     18  C   UNL     1      -3.449  15.950  23.775  0.00  0.00    +0.000 A 
ATOM     19  C   UNL     1      -2.386  16.187  24.676  0.00  0.00    +0.000 A 
ATOM     20 CL   UNL     1      -1.227  17.414  24.532  0.00  0.00    +0.000 Cl
ATOM     21  C   UNL     1      -2.470  15.241  25.665  0.00  0.00    +0.000 A 
ATOM     22  N   UNL     1      -3.518  14.415  25.359  0.00  0.00    +0.000 N 
ATOM     23  H   UNL     1      -3.748  13.583  25.877  0.00  0.00    +0.000 HD
ENDBRANCH  11  17
TORSDOF 1
ENDMDL
