MODEL 1
REMARK VINA RESULT:      -8.4      0.000      0.000
REMARK  Name = 
REMARK  7 active torsions:
REMARK  status: ('A' for Active; 'I' for Inactive)
REMARK    1  A    between atoms: C_1  and  S_2
REMARK    2  A    between atoms: S_2  and  C_3
REMARK    3  A    between atoms: C_5  and  C_6
REMARK    4  A    between atoms: C_10  and  S_11
REMARK    5  A    between atoms: S_11  and  C_14
REMARK    6  A    between atoms: C_18  and  C_19
REMARK    7  A    between atoms: C_23  and  C_24
REMARK                            x       y       z     vdW  Elec       q    Type
REMARK                         _______ _______ _______ _____ _____    ______ ____
ROOT
ATOM      1  S   UNL     1       3.442   3.277  17.711  0.00  0.00    +0.000 S 
ATOM      2  O   UNL     1       2.503   3.181  16.610  0.00  0.00    +0.000 OA
ATOM      3  O   UNL     1       3.971   2.085  18.343  0.00  0.00    +0.000 OA
ENDROOT
BRANCH   1   4
ATOM      4  C   UNL     1       2.732   4.303  18.950  0.00  0.00    +0.000 A 
ATOM      5  C   UNL     1       2.518   3.796  20.232  0.00  0.00    +0.000 A 
ATOM      6  C   UNL     1       2.032   4.642  21.221  0.00  0.00    +0.000 A 
ATOM      7  C   UNL     1       1.762   5.984  20.927  0.00  0.00    +0.000 A 
ATOM      8  C   UNL     1       1.991   6.525  19.646  0.00  0.00    +0.000 A 
ATOM      9  C   UNL     1       2.500   5.656  18.667  0.00  0.00    +0.000 A 
BRANCH   8  10
ATOM     10  C   UNL     1       1.731   7.953  19.348  0.00  0.00    +0.000 A 
ATOM     11  C   UNL     1       2.091   8.529  18.116  0.00  0.00    +0.000 A 
ATOM     12  C   UNL     1       1.872   9.885  17.854  0.00  0.00    +0.000 A 
ATOM     13  C   UNL     1       1.272  10.697  18.814  0.00  0.00    +0.000 A 
ATOM     14  C   UNL     1       0.889  10.157  20.042  0.00  0.00    +0.000 A 
ATOM     15  C   UNL     1       0.233  10.998  21.096  0.00  0.00    +0.000 C 
ATOM     16  C   UNL     1       1.125   8.796  20.296  0.00  0.00    +0.000 A 
ENDBRANCH   8  10
ENDBRANCH   1   4
BRANCH   1  21
ATOM     17  C   UNL     1       5.894   4.677  17.543  0.00  0.00    +0.000 A 
ATOM     18  S   UNL     1       7.035   5.157  16.341  0.00  0.00    +0.000 S 
ATOM     19  C   UNL     1       6.201   4.357  15.086  0.00  0.00    +0.000 A 
ATOM     20  C   UNL     1       5.045   3.781  15.560  0.00  0.00    +0.000 A 
ATOM     21  C   UNL     1       4.849   3.974  16.972  0.00  0.00    +0.000 A 
BRANCH  19  22
ATOM     22  C   UNL     1       6.713   4.337  13.725  0.00  0.00    +0.000 C 
ATOM     23  N   UNL     1       7.550   5.238  13.308  0.00  0.00    +0.000 NA
ATOM     24  N   UNL     1       6.384   3.385  12.807  0.00  0.00    +0.000 N 
ATOM     25  H   UNL     1       7.730   5.910  14.062  0.00  0.00    +0.000 HD
ATOM     26  H   UNL     1       6.196   2.457  13.159  0.00  0.00    +0.000 HD
ATOM     27  H   UNL     1       7.027   3.398  12.022  0.00  0.00    +0.000 HD
ENDBRANCH  19  22
BRANCH  17  29
ATOM     28  C   UNL     1       7.841   5.813  19.147  0.00  0.00    +0.000 C 
ATOM     29  S   UNL     1       6.161   5.146  19.216  0.00  0.00    +0.000 S 
ENDBRANCH  17  29
ENDBRANCH   1  21
TORSDOF 5
ENDMDL
MODEL 2
REMARK VINA RESULT:      -8.2      5.876      8.896
REMARK  Name = 
REMARK  7 active torsions:
REMARK  status: ('A' for Active; 'I' for Inactive)
REMARK    1  A    between atoms: C_1  and  S_2
REMARK    2  A    between atoms: S_2  and  C_3
REMARK    3  A    between atoms: C_5  and  C_6
REMARK    4  A    between atoms: C_10  and  S_11
REMARK    5  A    between atoms: S_11  and  C_14
REMARK    6  A    between atoms: C_18  and  C_19
REMARK    7  A    between atoms: C_23  and  C_24
REMARK                            x       y       z     vdW  Elec       q    Type
REMARK                         _______ _______ _______ _____ _____    ______ ____
ROOT
ATOM      1  S   UNL     1       0.375   9.919  21.204  0.00  0.00    +0.000 S 
ATOM      2  O   UNL     1       1.302  10.883  21.765  0.00  0.00    +0.000 OA
ATOM      3  O   UNL     1      -0.351   9.001  22.060  0.00  0.00    +0.000 OA
ENDROOT
BRANCH   1   4
ATOM      4  C   UNL     1       1.225   8.990  19.976  0.00  0.00    +0.000 A 
ATOM      5  C   UNL     1       1.571   9.593  18.766  0.00  0.00    +0.000 A 
ATOM      6  C   UNL     1       2.312   8.870  17.839  0.00  0.00    +0.000 A 
ATOM      7  C   UNL     1       2.704   7.557  18.124  0.00  0.00    +0.000 A 
ATOM      8  C   UNL     1       2.386   6.935  19.347  0.00  0.00    +0.000 A 
ATOM      9  C   UNL     1       1.652   7.689  20.277  0.00  0.00    +0.000 A 
BRANCH   8  10
ATOM     10  C   UNL     1       2.828   5.554  19.655  0.00  0.00    +0.000 A 
ATOM     11  C   UNL     1       4.004   5.012  19.106  0.00  0.00    +0.000 A 
ATOM     12  C   UNL     1       4.396   3.698  19.376  0.00  0.00    +0.000 A 
ATOM     13  C   UNL     1       3.628   2.895  20.216  0.00  0.00    +0.000 A 
ATOM     14  C   UNL     1       2.462   3.403  20.790  0.00  0.00    +0.000 A 
ATOM     15  C   UNL     1       1.615   2.572  21.706  0.00  0.00    +0.000 C 
ATOM     16  C   UNL     1       2.075   4.722  20.502  0.00  0.00    +0.000 A 
ENDBRANCH   8  10
ENDBRANCH   1   4
BRANCH   1  21
ATOM     17  C   UNL     1      -1.578  11.964  21.134  0.00  0.00    +0.000 A 
ATOM     18  S   UNL     1      -2.750  12.602  20.041  0.00  0.00    +0.000 S 
ATOM     19  C   UNL     1      -2.283  11.560  18.774  0.00  0.00    +0.000 A 
ATOM     20  C   UNL     1      -1.291  10.703  19.190  0.00  0.00    +0.000 A 
ATOM     21  C   UNL     1      -0.888  10.915  20.555  0.00  0.00    +0.000 A 
BRANCH  19  22
ATOM     22  C   UNL     1      -2.904  11.635  17.460  0.00  0.00    +0.000 C 
ATOM     23  N   UNL     1      -4.157  11.945  17.325  0.00  0.00    +0.000 NA
ATOM     24  N   UNL     1      -2.235  11.413  16.294  0.00  0.00    +0.000 N 
ATOM     25  H   UNL     1      -4.574  12.085  18.252  0.00  0.00    +0.000 HD
ATOM     26  H   UNL     1      -1.258  11.673  16.271  0.00  0.00    +0.000 HD
ATOM     27  H   UNL     1      -2.763  11.758  15.500  0.00  0.00    +0.000 HD
ENDBRANCH  19  22
BRANCH  17  29
ATOM     28  C   UNL     1      -3.095  12.327  23.419  0.00  0.00    +0.000 C 
ATOM     29  S   UNL     1      -1.446  12.649  22.748  0.00  0.00    +0.000 S 
ENDBRANCH  17  29
ENDBRANCH   1  21
TORSDOF 5
ENDMDL
MODEL 3
REMARK VINA RESULT:      -7.9      5.864      8.994
REMARK  Name = 
REMARK  7 active torsions:
REMARK  status: ('A' for Active; 'I' for Inactive)
REMARK    1  A    between atoms: C_1  and  S_2
REMARK    2  A    between atoms: S_2  and  C_3
REMARK    3  A    between atoms: C_5  and  C_6
REMARK    4  A    between atoms: C_10  and  S_11
REMARK    5  A    between atoms: S_11  and  C_14
REMARK    6  A    between atoms: C_18  and  C_19
REMARK    7  A    between atoms: C_23  and  C_24
REMARK                            x       y       z     vdW  Elec       q    Type
REMARK                         _______ _______ _______ _____ _____    ______ ____
ROOT
ATOM      1  S   UNL     1       0.541  10.030  21.204  0.00  0.00    +0.000 S 
ATOM      2  O   UNL     1       1.522  11.042  21.547  0.00  0.00    +0.000 OA
ATOM      3  O   UNL     1      -0.090   9.227  22.232  0.00  0.00    +0.000 OA
ENDROOT
BRANCH   1   4
ATOM      4  C   UNL     1       1.257   8.955  20.010  0.00  0.00    +0.000 A 
ATOM      5  C   UNL     1       1.731   9.473  18.805  0.00  0.00    +0.000 A 
ATOM      6  C   UNL     1       2.366   8.623  17.907  0.00  0.00    +0.000 A 
ATOM      7  C   UNL     1       2.525   7.267  18.216  0.00  0.00    +0.000 A 
ATOM      8  C   UNL     1       2.076   6.725  19.436  0.00  0.00    +0.000 A 
ATOM      9  C   UNL     1       1.452   7.605  20.336  0.00  0.00    +0.000 A 
BRANCH   8  10
ATOM     10  C   UNL     1       2.272   5.295  19.771  0.00  0.00    +0.000 A 
ATOM     11  C   UNL     1       2.058   4.802  21.071  0.00  0.00    +0.000 A 
ATOM     12  C   UNL     1       2.277   3.458  21.387  0.00  0.00    +0.000 A 
ATOM     13  C   UNL     1       2.702   2.567  20.404  0.00  0.00    +0.000 A 
ATOM     14  C   UNL     1       2.910   3.017  19.100  0.00  0.00    +0.000 A 
ATOM     15  C   UNL     1       3.358   2.085  18.013  0.00  0.00    +0.000 C 
ATOM     16  C   UNL     1       2.697   4.372  18.799  0.00  0.00    +0.000 A 
ENDBRANCH   8  10
ENDBRANCH   1   4
BRANCH   1  21
ATOM     17  C   UNL     1      -1.542  11.943  21.184  0.00  0.00    +0.000 A 
ATOM     18  S   UNL     1      -2.752  12.534  20.106  0.00  0.00    +0.000 S 
ATOM     19  C   UNL     1      -2.215  11.562  18.811  0.00  0.00    +0.000 A 
ATOM     20  C   UNL     1      -1.169  10.760  19.206  0.00  0.00    +0.000 A 
ATOM     21  C   UNL     1      -0.784  10.959  20.578  0.00  0.00    +0.000 A 
BRANCH  19  22
ATOM     22  C   UNL     1      -2.837  11.633  17.498  0.00  0.00    +0.000 C 
ATOM     23  N   UNL     1      -2.159  11.383  16.419  0.00  0.00    +0.000 NA
ATOM     24  N   UNL     1      -4.150  11.937  17.298  0.00  0.00    +0.000 N 
ATOM     25  H   UNL     1      -1.187  11.173  16.669  0.00  0.00    +0.000 HD
ATOM     26  H   UNL     1      -4.800  11.644  18.014  0.00  0.00    +0.000 HD
ATOM     27  H   UNL     1      -4.443  11.687  16.359  0.00  0.00    +0.000 HD
ENDBRANCH  19  22
BRANCH  17  29
ATOM     28  C   UNL     1      -3.160  12.360  23.390  0.00  0.00    +0.000 C 
ATOM     29  S   UNL     1      -1.459  12.588  22.818  0.00  0.00    +0.000 S 
ENDBRANCH  17  29
ENDBRANCH   1  21
TORSDOF 5
ENDMDL
MODEL 4
REMARK VINA RESULT:      -7.9      0.638      1.558
REMARK  Name = 
REMARK  7 active torsions:
REMARK  status: ('A' for Active; 'I' for Inactive)
REMARK    1  A    between atoms: C_1  and  S_2
REMARK    2  A    between atoms: S_2  and  C_3
REMARK    3  A    between atoms: C_5  and  C_6
REMARK    4  A    between atoms: C_10  and  S_11
REMARK    5  A    between atoms: S_11  and  C_14
REMARK    6  A    between atoms: C_18  and  C_19
REMARK    7  A    between atoms: C_23  and  C_24
REMARK                            x       y       z     vdW  Elec       q    Type
REMARK                         _______ _______ _______ _____ _____    ______ ____
ROOT
ATOM      1  S   UNL     1       3.417   3.094  17.545  0.00  0.00    +0.000 S 
ATOM      2  O   UNL     1       2.436   3.287  16.495  0.00  0.00    +0.000 OA
ATOM      3  O   UNL     1       3.925   1.773  17.855  0.00  0.00    +0.000 OA
ENDROOT
BRANCH   1   4
ATOM      4  C   UNL     1       2.787   3.814  19.022  0.00  0.00    +0.000 A 
ATOM      5  C   UNL     1       2.740   3.062  20.195  0.00  0.00    +0.000 A 
ATOM      6  C   UNL     1       2.316   3.670  21.371  0.00  0.00    +0.000 A 
ATOM      7  C   UNL     1       1.944   5.019  21.370  0.00  0.00    +0.000 A 
ATOM      8  C   UNL     1       2.005   5.806  20.202  0.00  0.00    +0.000 A 
ATOM      9  C   UNL     1       2.453   5.176  19.029  0.00  0.00    +0.000 A 
BRANCH   8  10
ATOM     10  C   UNL     1       1.637   7.241  20.212  0.00  0.00    +0.000 A 
ATOM     11  C   UNL     1       0.997   7.835  21.315  0.00  0.00    +0.000 A 
ATOM     12  C   UNL     1       0.624   9.182  21.303  0.00  0.00    +0.000 A 
ATOM     13  C   UNL     1       0.896   9.975  20.191  0.00  0.00    +0.000 A 
ATOM     14  C   UNL     1       1.543   9.424  19.084  0.00  0.00    +0.000 A 
ATOM     15  C   UNL     1       1.861  10.250  17.874  0.00  0.00    +0.000 C 
ATOM     16  C   UNL     1       1.903   8.067  19.105  0.00  0.00    +0.000 A 
ENDBRANCH   8  10
ENDBRANCH   1   4
BRANCH   1  21
ATOM     17  C   UNL     1       5.767   4.668  17.598  0.00  0.00    +0.000 A 
ATOM     18  S   UNL     1       6.955   5.262  16.498  0.00  0.00    +0.000 S 
ATOM     19  C   UNL     1       6.277   4.443  15.164  0.00  0.00    +0.000 A 
ATOM     20  C   UNL     1       5.133   3.773  15.536  0.00  0.00    +0.000 A 
ATOM     21  C   UNL     1       4.820   3.910  16.933  0.00  0.00    +0.000 A 
BRANCH  19  22
ATOM     22  C   UNL     1       6.888   4.499  13.846  0.00  0.00    +0.000 C 
ATOM     23  N   UNL     1       6.545   3.666  12.910  0.00  0.00    +0.000 NA
ATOM     24  N   UNL     1       7.829   5.417  13.486  0.00  0.00    +0.000 N 
ATOM     25  H   UNL     1       5.842   3.014  13.275  0.00  0.00    +0.000 HD
ATOM     26  H   UNL     1       7.765   6.328  13.917  0.00  0.00    +0.000 HD
ATOM     27  H   UNL     1       7.936   5.453  12.478  0.00  0.00    +0.000 HD
ENDBRANCH  19  22
BRANCH  17  29
ATOM     28  C   UNL     1       7.590   5.663  19.425  0.00  0.00    +0.000 C 
ATOM     29  S   UNL     1       5.874   5.106  19.297  0.00  0.00    +0.000 S 
ENDBRANCH  17  29
ENDBRANCH   1  21
TORSDOF 5
ENDMDL
MODEL 5
REMARK VINA RESULT:      -7.8      2.266      3.949
REMARK  Name = 
REMARK  7 active torsions:
REMARK  status: ('A' for Active; 'I' for Inactive)
REMARK    1  A    between atoms: C_1  and  S_2
REMARK    2  A    between atoms: S_2  and  C_3
REMARK    3  A    between atoms: C_5  and  C_6
REMARK    4  A    between atoms: C_10  and  S_11
REMARK    5  A    between atoms: S_11  and  C_14
REMARK    6  A    between atoms: C_18  and  C_19
REMARK    7  A    between atoms: C_23  and  C_24
REMARK                            x       y       z     vdW  Elec       q    Type
REMARK                         _______ _______ _______ _____ _____    ______ ____
ROOT
ATOM      1  S   UNL     1       2.534   5.614  19.435  0.00  0.00    +0.000 S 
ATOM      2  O   UNL     1       1.674   4.797  18.600  0.00  0.00    +0.000 OA
ATOM      3  O   UNL     1       2.638   5.369  20.860  0.00  0.00    +0.000 OA
ENDROOT
BRANCH   1   4
ATOM      4  C   UNL     1       2.100   7.300  19.185  0.00  0.00    +0.000 A 
ATOM      5  C   UNL     1       2.355   7.907  17.956  0.00  0.00    +0.000 A 
ATOM      6  C   UNL     1       1.933   9.215  17.747  0.00  0.00    +0.000 A 
ATOM      7  C   UNL     1       1.260   9.906  18.762  0.00  0.00    +0.000 A 
ATOM      8  C   UNL     1       0.971   9.307  20.003  0.00  0.00    +0.000 A 
ATOM      9  C   UNL     1       1.390   7.979  20.186  0.00  0.00    +0.000 A 
BRANCH   8  10
ATOM     10  C   UNL     1       0.233  10.033  21.064  0.00  0.00    +0.000 A 
ATOM     11  C   UNL     1      -0.064   9.434  22.302  0.00  0.00    +0.000 A 
ATOM     12  C   UNL     1      -0.789  10.114  23.285  0.00  0.00    +0.000 A 
ATOM     13  C   UNL     1      -1.223  11.419  23.060  0.00  0.00    +0.000 A 
ATOM     14  C   UNL     1      -0.934  12.049  21.850  0.00  0.00    +0.000 A 
ATOM     15  C   UNL     1      -1.377  13.455  21.575  0.00  0.00    +0.000 C 
ATOM     16  C   UNL     1      -0.215  11.351  20.867  0.00  0.00    +0.000 A 
ENDBRANCH   8  10
ENDBRANCH   1   4
BRANCH   1  21
ATOM     17  C   UNL     1       4.837   4.045  18.950  0.00  0.00    +0.000 A 
ATOM     18  S   UNL     1       6.391   4.212  18.223  0.00  0.00    +0.000 S 
ATOM     19  C   UNL     1       6.091   5.811  17.710  0.00  0.00    +0.000 A 
ATOM     20  C   UNL     1       4.851   6.232  18.133  0.00  0.00    +0.000 A 
ATOM     21  C   UNL     1       4.126   5.228  18.864  0.00  0.00    +0.000 A 
BRANCH  19  22
ATOM     22  C   UNL     1       7.069   6.558  16.936  0.00  0.00    +0.000 C 
ATOM     23  N   UNL     1       7.590   6.063  15.854  0.00  0.00    +0.000 NA
ATOM     24  N   UNL     1       7.492   7.813  17.259  0.00  0.00    +0.000 N 
ATOM     25  H   UNL     1       7.219   5.120  15.699  0.00  0.00    +0.000 HD
ATOM     26  H   UNL     1       6.822   8.417  17.714  0.00  0.00    +0.000 HD
ATOM     27  H   UNL     1       7.965   8.251  16.475  0.00  0.00    +0.000 HD
ENDBRANCH  19  22
BRANCH  17  29
ATOM     28  C   UNL     1       3.463   1.713  18.371  0.00  0.00    +0.000 C 
ATOM     29  S   UNL     1       4.398   2.514  19.697  0.00  0.00    +0.000 S 
ENDBRANCH  17  29
ENDBRANCH   1  21
TORSDOF 5
ENDMDL
MODEL 6
REMARK VINA RESULT:      -7.6      2.120      3.032
REMARK  Name = 
REMARK  7 active torsions:
REMARK  status: ('A' for Active; 'I' for Inactive)
REMARK    1  A    between atoms: C_1  and  S_2
REMARK    2  A    between atoms: S_2  and  C_3
REMARK    3  A    between atoms: C_5  and  C_6
REMARK    4  A    between atoms: C_10  and  S_11
REMARK    5  A    between atoms: S_11  and  C_14
REMARK    6  A    between atoms: C_18  and  C_19
REMARK    7  A    between atoms: C_23  and  C_24
REMARK                            x       y       z     vdW  Elec       q    Type
REMARK                         _______ _______ _______ _____ _____    ______ ____
ROOT
ATOM      1  S   UNL     1       3.655   3.309  17.607  0.00  0.00    +0.000 S 
ATOM      2  O   UNL     1       2.926   3.721  16.423  0.00  0.00    +0.000 OA
ATOM      3  O   UNL     1       3.990   1.916  17.827  0.00  0.00    +0.000 OA
ENDROOT
BRANCH   1   4
ATOM      4  C   UNL     1       2.795   3.910  19.018  0.00  0.00    +0.000 A 
ATOM      5  C   UNL     1       2.546   3.058  20.094  0.00  0.00    +0.000 A 
ATOM      6  C   UNL     1       1.937   3.569  21.234  0.00  0.00    +0.000 A 
ATOM      7  C   UNL     1       1.584   4.922  21.295  0.00  0.00    +0.000 A 
ATOM      8  C   UNL     1       1.846   5.808  20.231  0.00  0.00    +0.000 A 
ATOM      9  C   UNL     1       2.478   5.274  19.096  0.00  0.00    +0.000 A 
BRANCH   8  10
ATOM     10  C   UNL     1       1.495   7.245  20.311  0.00  0.00    +0.000 A 
ATOM     11  C   UNL     1       1.719   8.124  19.235  0.00  0.00    +0.000 A 
ATOM     12  C   UNL     1       1.416   9.485  19.331  0.00  0.00    +0.000 A 
ATOM     13  C   UNL     1       0.866  10.001  20.502  0.00  0.00    +0.000 A 
ATOM     14  C   UNL     1       0.617   9.157  21.585  0.00  0.00    +0.000 A 
ATOM     15  C   UNL     1       0.018   9.675  22.858  0.00  0.00    +0.000 C 
ATOM     16  C   UNL     1       0.936   7.794  21.479  0.00  0.00    +0.000 A 
ENDBRANCH   8  10
ENDBRANCH   1   4
BRANCH   1  21
ATOM     17  C   UNL     1       5.951   4.234  16.238  0.00  0.00    +0.000 A 
ATOM     18  S   UNL     1       7.447   5.014  16.593  0.00  0.00    +0.000 S 
ATOM     19  C   UNL     1       7.078   5.191  18.249  0.00  0.00    +0.000 A 
ATOM     20  C   UNL     1       5.862   4.616  18.539  0.00  0.00    +0.000 A 
ATOM     21  C   UNL     1       5.211   4.046  17.390  0.00  0.00    +0.000 A 
BRANCH  19  22
ATOM     22  C   UNL     1       7.983   5.870  19.163  0.00  0.00    +0.000 C 
ATOM     23  N   UNL     1       8.392   7.080  18.928  0.00  0.00    +0.000 NA
ATOM     24  N   UNL     1       8.446   5.318  20.319  0.00  0.00    +0.000 N 
ATOM     25  H   UNL     1       7.999   7.405  18.038  0.00  0.00    +0.000 HD
ATOM     26  H   UNL     1       7.829   4.677  20.798  0.00  0.00    +0.000 HD
ATOM     27  H   UNL     1       8.845   6.025  20.927  0.00  0.00    +0.000 HD
ENDBRANCH  19  22
BRANCH  17  29
ATOM     28  C   UNL     1       6.930   4.592  13.675  0.00  0.00    +0.000 C 
ATOM     29  S   UNL     1       5.599   3.766  14.579  0.00  0.00    +0.000 S 
ENDBRANCH  17  29
ENDBRANCH   1  21
TORSDOF 5
ENDMDL
MODEL 7
REMARK VINA RESULT:      -7.6      2.100      3.241
REMARK  Name = 
REMARK  7 active torsions:
REMARK  status: ('A' for Active; 'I' for Inactive)
REMARK    1  A    between atoms: C_1  and  S_2
REMARK    2  A    between atoms: S_2  and  C_3
REMARK    3  A    between atoms: C_5  and  C_6
REMARK    4  A    between atoms: C_10  and  S_11
REMARK    5  A    between atoms: S_11  and  C_14
REMARK    6  A    between atoms: C_18  and  C_19
REMARK    7  A    between atoms: C_23  and  C_24
REMARK                            x       y       z     vdW  Elec       q    Type
REMARK                         _______ _______ _______ _____ _____    ______ ____
ROOT
ATOM      1  S   UNL     1       3.606   3.248  17.579  0.00  0.00    +0.000 S 
ATOM      2  O   UNL     1       2.898   3.631  16.373  0.00  0.00    +0.000 OA
ATOM      3  O   UNL     1       3.957   1.864  17.828  0.00  0.00    +0.000 OA
ENDROOT
BRANCH   1   4
ATOM      4  C   UNL     1       2.704   3.855  18.962  0.00  0.00    +0.000 A 
ATOM      5  C   UNL     1       2.378   2.995  20.010  0.00  0.00    +0.000 A 
ATOM      6  C   UNL     1       1.736   3.508  21.131  0.00  0.00    +0.000 A 
ATOM      7  C   UNL     1       1.426   4.871  21.200  0.00  0.00    +0.000 A 
ATOM      8  C   UNL     1       1.765   5.764  20.164  0.00  0.00    +0.000 A 
ATOM      9  C   UNL     1       2.429   5.227  19.049  0.00  0.00    +0.000 A 
BRANCH   8  10
ATOM     10  C   UNL     1       1.460   7.212  20.254  0.00  0.00    +0.000 A 
ATOM     11  C   UNL     1       0.840   7.769  21.388  0.00  0.00    +0.000 A 
ATOM     12  C   UNL     1       0.526   9.130  21.451  0.00  0.00    +0.000 A 
ATOM     13  C   UNL     1       0.838   9.972  20.387  0.00  0.00    +0.000 A 
ATOM     14  C   UNL     1       1.466   9.457  19.252  0.00  0.00    +0.000 A 
ATOM     15  C   UNL     1       1.825  10.335  18.091  0.00  0.00    +0.000 C 
ATOM     16  C   UNL     1       1.766   8.086  19.197  0.00  0.00    +0.000 A 
ENDBRANCH   8  10
ENDBRANCH   1   4
BRANCH   1  21
ATOM     17  C   UNL     1       5.913   4.199  16.248  0.00  0.00    +0.000 A 
ATOM     18  S   UNL     1       7.391   5.004  16.628  0.00  0.00    +0.000 S 
ATOM     19  C   UNL     1       6.988   5.183  18.276  0.00  0.00    +0.000 A 
ATOM     20  C   UNL     1       5.775   4.592  18.546  0.00  0.00    +0.000 A 
ATOM     21  C   UNL     1       5.154   4.006  17.388  0.00  0.00    +0.000 A 
BRANCH  19  22
ATOM     22  C   UNL     1       7.866   5.881  19.202  0.00  0.00    +0.000 C 
ATOM     23  N   UNL     1       8.198   5.352  20.340  0.00  0.00    +0.000 NA
ATOM     24  N   UNL     1       8.414   7.102  18.950  0.00  0.00    +0.000 N 
ATOM     25  H   UNL     1       7.733   4.443  20.442  0.00  0.00    +0.000 HD
ATOM     26  H   UNL     1       8.628   7.317  17.986  0.00  0.00    +0.000 HD
ATOM     27  H   UNL     1       9.181   7.295  19.586  0.00  0.00    +0.000 HD
ENDBRANCH  19  22
BRANCH  17  29
ATOM     28  C   UNL     1       6.982   4.491  13.713  0.00  0.00    +0.000 C 
ATOM     29  S   UNL     1       5.599   3.719  14.586  0.00  0.00    +0.000 S 
ENDBRANCH  17  29
ENDBRANCH   1  21
TORSDOF 5
ENDMDL
MODEL 8
REMARK VINA RESULT:      -7.5      3.242      7.568
REMARK  Name = 
REMARK  7 active torsions:
REMARK  status: ('A' for Active; 'I' for Inactive)
REMARK    1  A    between atoms: C_1  and  S_2
REMARK    2  A    between atoms: S_2  and  C_3
REMARK    3  A    between atoms: C_5  and  C_6
REMARK    4  A    between atoms: C_10  and  S_11
REMARK    5  A    between atoms: S_11  and  C_14
REMARK    6  A    between atoms: C_18  and  C_19
REMARK    7  A    between atoms: C_23  and  C_24
REMARK                            x       y       z     vdW  Elec       q    Type
REMARK                         _______ _______ _______ _____ _____    ______ ____
ROOT
ATOM      1  S   UNL     1       4.359   3.863  18.478  0.00  0.00    +0.000 S 
ATOM      2  O   UNL     1       5.214   3.539  19.603  0.00  0.00    +0.000 OA
ATOM      3  O   UNL     1       3.449   2.878  17.927  0.00  0.00    +0.000 OA
ENDROOT
BRANCH   1   4
ATOM      4  C   UNL     1       5.372   4.481  17.179  0.00  0.00    +0.000 A 
ATOM      5  C   UNL     1       6.356   5.430  17.458  0.00  0.00    +0.000 A 
ATOM      6  C   UNL     1       7.201   5.848  16.437  0.00  0.00    +0.000 A 
ATOM      7  C   UNL     1       7.060   5.318  15.149  0.00  0.00    +0.000 A 
ATOM      8  C   UNL     1       6.089   4.342  14.848  0.00  0.00    +0.000 A 
ATOM      9  C   UNL     1       5.258   3.921  15.899  0.00  0.00    +0.000 A 
BRANCH   8  10
ATOM     10  C   UNL     1       5.964   3.764  13.489  0.00  0.00    +0.000 A 
ATOM     11  C   UNL     1       7.077   3.261  12.792  0.00  0.00    +0.000 A 
ATOM     12  C   UNL     1       6.955   2.746  11.498  0.00  0.00    +0.000 A 
ATOM     13  C   UNL     1       5.711   2.708  10.873  0.00  0.00    +0.000 A 
ATOM     14  C   UNL     1       4.582   3.185  11.539  0.00  0.00    +0.000 A 
ATOM     15  C   UNL     1       3.225   3.151  10.902  0.00  0.00    +0.000 C 
ATOM     16  C   UNL     1       4.720   3.708  12.835  0.00  0.00    +0.000 A 
ENDBRANCH   8  10
ENDBRANCH   1   4
BRANCH   1  21
ATOM     17  C   UNL     1       2.524   5.031  20.286  0.00  0.00    +0.000 A 
ATOM     18  S   UNL     1       1.612   6.486  20.451  0.00  0.00    +0.000 S 
ATOM     19  C   UNL     1       2.287   7.187  19.050  0.00  0.00    +0.000 A 
ATOM     20  C   UNL     1       3.150   6.309  18.435  0.00  0.00    +0.000 A 
ATOM     21  C   UNL     1       3.281   5.056  19.129  0.00  0.00    +0.000 A 
BRANCH  19  22
ATOM     22  C   UNL     1       1.942   8.537  18.633  0.00  0.00    +0.000 C 
ATOM     23  N   UNL     1       2.267   8.981  17.456  0.00  0.00    +0.000 NA
ATOM     24  N   UNL     1       1.248   9.415  19.410  0.00  0.00    +0.000 N 
ATOM     25  H   UNL     1       2.788   8.256  16.951  0.00  0.00    +0.000 HD
ATOM     26  H   UNL     1       0.565   9.023  20.043  0.00  0.00    +0.000 HD
ATOM     27  H   UNL     1       0.892  10.188  18.858  0.00  0.00    +0.000 HD
ENDBRANCH  19  22
BRANCH  17  29
ATOM     28  C   UNL     1       1.217   2.625  20.682  0.00  0.00    +0.000 C 
ATOM     29  S   UNL     1       2.355   3.769  21.499  0.00  0.00    +0.000 S 
ENDBRANCH  17  29
ENDBRANCH   1  21
TORSDOF 5
ENDMDL
MODEL 9
REMARK VINA RESULT:      -7.5      3.180      7.509
REMARK  Name = 
REMARK  7 active torsions:
REMARK  status: ('A' for Active; 'I' for Inactive)
REMARK    1  A    between atoms: C_1  and  S_2
REMARK    2  A    between atoms: S_2  and  C_3
REMARK    3  A    between atoms: C_5  and  C_6
REMARK    4  A    between atoms: C_10  and  S_11
REMARK    5  A    between atoms: S_11  and  C_14
REMARK    6  A    between atoms: C_18  and  C_19
REMARK    7  A    between atoms: C_23  and  C_24
REMARK                            x       y       z     vdW  Elec       q    Type
REMARK                         _______ _______ _______ _____ _____    ______ ____
ROOT
ATOM      1  S   UNL     1       3.879   4.045  18.490  0.00  0.00    +0.000 S 
ATOM      2  O   UNL     1       4.318   3.250  19.621  0.00  0.00    +0.000 OA
ATOM      3  O   UNL     1       2.985   3.491  17.494  0.00  0.00    +0.000 OA
ENDROOT
BRANCH   1   4
ATOM      4  C   UNL     1       5.305   4.676  17.677  0.00  0.00    +0.000 A 
ATOM      5  C   UNL     1       6.304   5.309  18.417  0.00  0.00    +0.000 A 
ATOM      6  C   UNL     1       7.460   5.730  17.772  0.00  0.00    +0.000 A 
ATOM      7  C   UNL     1       7.614   5.517  16.397  0.00  0.00    +0.000 A 
ATOM      8  C   UNL     1       6.630   4.860  15.632  0.00  0.00    +0.000 A 
ATOM      9  C   UNL     1       5.477   4.427  16.308  0.00  0.00    +0.000 A 
BRANCH   8  10
ATOM     10  C   UNL     1       6.810   4.611  14.182  0.00  0.00    +0.000 A 
ATOM     11  C   UNL     1       7.695   5.379  13.403  0.00  0.00    +0.000 A 
ATOM     12  C   UNL     1       7.834   5.159  12.029  0.00  0.00    +0.000 A 
ATOM     13  C   UNL     1       7.102   4.154  11.402  0.00  0.00    +0.000 A 
ATOM     14  C   UNL     1       6.226   3.363  12.145  0.00  0.00    +0.000 A 
ATOM     15  C   UNL     1       5.428   2.266  11.506  0.00  0.00    +0.000 C 
ATOM     16  C   UNL     1       6.087   3.601  13.522  0.00  0.00    +0.000 A 
ENDBRANCH   8  10
ENDBRANCH   1   4
BRANCH   1  21
ATOM     17  C   UNL     1       2.239   5.280  20.436  0.00  0.00    +0.000 A 
ATOM     18  S   UNL     1       1.413   6.775  20.677  0.00  0.00    +0.000 S 
ATOM     19  C   UNL     1       2.018   7.458  19.235  0.00  0.00    +0.000 A 
ATOM     20  C   UNL     1       2.790   6.546  18.553  0.00  0.00    +0.000 A 
ATOM     21  C   UNL     1       2.911   5.281  19.227  0.00  0.00    +0.000 A 
BRANCH  19  22
ATOM     22  C   UNL     1       1.709   8.827  18.854  0.00  0.00    +0.000 C 
ATOM     23  N   UNL     1       2.052   9.295  17.692  0.00  0.00    +0.000 NA
ATOM     24  N   UNL     1       1.035   9.701  19.653  0.00  0.00    +0.000 N 
ATOM     25  H   UNL     1       2.557   8.571  17.169  0.00  0.00    +0.000 HD
ATOM     26  H   UNL     1       0.338   9.310  20.271  0.00  0.00    +0.000 HD
ATOM     27  H   UNL     1       0.701  10.498  19.121  0.00  0.00    +0.000 HD
ENDBRANCH  19  22
BRANCH  17  29
ATOM     28  C   UNL     1       1.072   2.797  20.790  0.00  0.00    +0.000 C 
ATOM     29  S   UNL     1       2.097   4.015  21.649  0.00  0.00    +0.000 S 
ENDBRANCH  17  29
ENDBRANCH   1  21
TORSDOF 5
ENDMDL
