MODEL 1
REMARK VINA RESULT:      -8.0      0.000      0.000
REMARK  Name = 
REMARK  6 active torsions:
REMARK  status: ('A' for Active; 'I' for Inactive)
REMARK    1  A    between atoms: C_1  and  O_2
REMARK    2  A    between atoms: O_2  and  C_3
REMARK    3  A    between atoms: C_4  and  C_5
REMARK    4  A    between atoms: N_7  and  C_8
REMARK    5  A    between atoms: C_8  and  C_9
REMARK    6  A    between atoms: N_13  and  C_14
REMARK                            x       y       z     vdW  Elec       q    Type
REMARK                         _______ _______ _______ _____ _____    ______ ____
ROOT
ATOM      1  C   UNL     1       1.303   9.262  18.432  0.00  0.00    +0.000 C 
ATOM      2  O   UNL     1       2.050   9.345  17.464  0.00  0.00    +0.000 OA
ATOM      3  N   UNL     1       1.555   8.425  19.498  0.00  0.00    +0.000 N 
ATOM      4  H   UNL     1       0.979   8.450  20.326  0.00  0.00    +0.000 HD
ENDROOT
BRANCH   1   6
ATOM      5  C   UNL     1      -0.277  10.914  19.600  0.00  0.00    +0.000 A 
ATOM      6  C   UNL     1       0.051  10.086  18.505  0.00  0.00    +0.000 A 
ATOM      7  C   UNL     1      -0.882   9.932  17.472  0.00  0.00    +0.000 A 
ATOM      8  C   UNL     1      -2.135  10.553  17.539  0.00  0.00    +0.000 A 
ATOM      9 BR   UNL     1      -3.288  10.265  16.044  0.00  0.00    +0.000 Br
ATOM     10  C   UNL     1      -2.525  11.330  18.657  0.00  0.00    +0.000 A 
ATOM     11  C   UNL     1      -3.812  11.919  18.796  0.00  0.00    +0.000 A 
ATOM     12  C   UNL     1      -4.176  12.674  19.911  0.00  0.00    +0.000 A 
ATOM     13  C   UNL     1      -3.253  12.865  20.925  0.00  0.00    +0.000 A 
ATOM     14  C   UNL     1      -1.981  12.302  20.817  0.00  0.00    +0.000 A 
ATOM     15  C   UNL     1      -1.581  11.516  19.698  0.00  0.00    +0.000 A 
BRANCH   5  17
ATOM     16  C   UNL     1       1.492  12.241  20.542  0.00  0.00    +0.000 C 
ATOM     17  O   UNL     1       0.543  11.189  20.674  0.00  0.00    +0.000 OA
ENDBRANCH   5  17
ENDBRANCH   1   6
BRANCH   3  18
ATOM     18  C   UNL     1       2.616   7.421  19.503  0.00  0.00    +0.000 C 
BRANCH  18  19
ATOM     19  C   UNL     1       2.046   6.026  19.213  0.00  0.00    +0.000 C 
ATOM     20  C   UNL     1       1.788   5.118  20.411  0.00  0.00    +0.000 C 
ATOM     21  C   UNL     1       1.231   3.867  19.737  0.00  0.00    +0.000 C 
ATOM     22  C   UNL     1       1.627   4.004  18.258  0.00  0.00    +0.000 C 
ATOM     23  N   UNL     1       2.641   5.112  18.178  0.00  0.00    +0.000 NA
BRANCH  23  24
ATOM     24  C   UNL     1       3.998   4.526  18.427  0.00  0.00    +0.000 C 
ATOM     25  C   UNL     1       4.412   3.573  17.265  0.00  0.00    +0.000 C 
ATOM     26  C   UNL     1       4.912   4.283  16.007  0.00  0.00    +0.000 C 
ATOM     27  C   UNL     1       6.068   5.228  16.299  0.00  0.00    +0.000 C 
ATOM     28  C   UNL     1       5.749   6.185  17.437  0.00  0.00    +0.000 C 
ATOM     29  C   UNL     1       5.205   5.463  18.669  0.00  0.00    +0.000 C 
ENDBRANCH  23  24
ENDBRANCH  18  19
ENDBRANCH   3  18
TORSDOF 5
ENDMDL
MODEL 2
REMARK VINA RESULT:      -7.8      1.290      1.796
REMARK  Name = 
REMARK  6 active torsions:
REMARK  status: ('A' for Active; 'I' for Inactive)
REMARK    1  A    between atoms: C_1  and  O_2
REMARK    2  A    between atoms: O_2  and  C_3
REMARK    3  A    between atoms: C_4  and  C_5
REMARK    4  A    between atoms: N_7  and  C_8
REMARK    5  A    between atoms: C_8  and  C_9
REMARK    6  A    between atoms: N_13  and  C_14
REMARK                            x       y       z     vdW  Elec       q    Type
REMARK                         _______ _______ _______ _____ _____    ______ ____
ROOT
ATOM      1  C   UNL     1       0.180   9.803  18.791  0.00  0.00    +0.000 C 
ATOM      2  O   UNL     1       0.567   9.888  19.951  0.00  0.00    +0.000 OA
ATOM      3  N   UNL     1       0.874   9.105  17.825  0.00  0.00    +0.000 N 
ATOM      4  H   UNL     1       0.483   8.965  16.905  0.00  0.00    +0.000 HD
ENDROOT
BRANCH   1   6
ATOM      5  C   UNL     1      -1.886  11.268  19.207  0.00  0.00    +0.000 A 
ATOM      6  C   UNL     1      -1.094  10.466  18.358  0.00  0.00    +0.000 A 
ATOM      7  C   UNL     1      -1.564  10.178  17.071  0.00  0.00    +0.000 A 
ATOM      8  C   UNL     1      -2.814  10.639  16.644  0.00  0.00    +0.000 A 
ATOM      9 BR   UNL     1      -3.305  10.181  14.855  0.00  0.00    +0.000 Br
ATOM     10  C   UNL     1      -3.667  11.382  17.496  0.00  0.00    +0.000 A 
ATOM     11  C   UNL     1      -4.973  11.809  17.126  0.00  0.00    +0.000 A 
ATOM     12  C   UNL     1      -5.798  12.534  17.985  0.00  0.00    +0.000 A 
ATOM     13  C   UNL     1      -5.334  12.858  19.250  0.00  0.00    +0.000 A 
ATOM     14  C   UNL     1      -4.057  12.455  19.641  0.00  0.00    +0.000 A 
ATOM     15  C   UNL     1      -3.193  11.704  18.793  0.00  0.00    +0.000 A 
BRANCH   5  17
ATOM     16  C   UNL     1      -0.800  12.863  20.641  0.00  0.00    +0.000 C 
ATOM     17  O   UNL     1      -1.549  11.663  20.485  0.00  0.00    +0.000 OA
ENDBRANCH   5  17
ENDBRANCH   1   6
BRANCH   3  18
ATOM     18  C   UNL     1       2.216   8.566  18.025  0.00  0.00    +0.000 C 
BRANCH  18  19
ATOM     19  C   UNL     1       2.151   7.126  18.554  0.00  0.00    +0.000 C 
ATOM     20  C   UNL     1       2.400   6.922  20.044  0.00  0.00    +0.000 C 
ATOM     21  C   UNL     1       2.243   5.409  20.179  0.00  0.00    +0.000 C 
ATOM     22  C   UNL     1       2.361   4.869  18.745  0.00  0.00    +0.000 C 
ATOM     23  N   UNL     1       2.888   5.993  17.896  0.00  0.00    +0.000 NA
BRANCH  23  24
ATOM     24  C   UNL     1       4.386   5.971  17.966  0.00  0.00    +0.000 C 
ATOM     25  C   UNL     1       4.925   4.516  17.823  0.00  0.00    +0.000 C 
ATOM     26  C   UNL     1       4.950   3.983  16.390  0.00  0.00    +0.000 C 
ATOM     27  C   UNL     1       5.733   4.889  15.452  0.00  0.00    +0.000 C 
ATOM     28  C   UNL     1       5.276   6.336  15.543  0.00  0.00    +0.000 C 
ATOM     29  C   UNL     1       5.212   6.836  16.985  0.00  0.00    +0.000 C 
ENDBRANCH  23  24
ENDBRANCH  18  19
ENDBRANCH   3  18
TORSDOF 5
ENDMDL
MODEL 3
REMARK VINA RESULT:      -7.7      2.053      3.757
REMARK  Name = 
REMARK  6 active torsions:
REMARK  status: ('A' for Active; 'I' for Inactive)
REMARK    1  A    between atoms: C_1  and  O_2
REMARK    2  A    between atoms: O_2  and  C_3
REMARK    3  A    between atoms: C_4  and  C_5
REMARK    4  A    between atoms: N_7  and  C_8
REMARK    5  A    between atoms: C_8  and  C_9
REMARK    6  A    between atoms: N_13  and  C_14
REMARK                            x       y       z     vdW  Elec       q    Type
REMARK                         _______ _______ _______ _____ _____    ______ ____
ROOT
ATOM      1  C   UNL     1       2.097   8.609  18.091  0.00  0.00    +0.000 C 
ATOM      2  O   UNL     1       2.566   9.063  17.054  0.00  0.00    +0.000 OA
ATOM      3  N   UNL     1       2.224   7.283  18.448  0.00  0.00    +0.000 N 
ATOM      4  H   UNL     1       1.918   6.957  19.353  0.00  0.00    +0.000 HD
ENDROOT
BRANCH   1   6
ATOM      5  C   UNL     1       1.142   9.181  20.405  0.00  0.00    +0.000 A 
ATOM      6  C   UNL     1       1.347   9.493  19.044  0.00  0.00    +0.000 A 
ATOM      7  C   UNL     1       0.732  10.634  18.513  0.00  0.00    +0.000 A 
ATOM      8  C   UNL     1      -0.104  11.431  19.304  0.00  0.00    +0.000 A 
ATOM      9 BR   UNL     1      -0.852  12.964  18.443  0.00  0.00    +0.000 Br
ATOM     10  C   UNL     1      -0.391  11.105  20.652  0.00  0.00    +0.000 A 
ATOM     11  C   UNL     1      -1.289  11.847  21.468  0.00  0.00    +0.000 A 
ATOM     12  C   UNL     1      -1.562  11.503  22.791  0.00  0.00    +0.000 A 
ATOM     13  C   UNL     1      -0.934  10.397  23.342  0.00  0.00    +0.000 A 
ATOM     14  C   UNL     1      -0.046   9.650  22.568  0.00  0.00    +0.000 A 
ATOM     15  C   UNL     1       0.245   9.968  21.209  0.00  0.00    +0.000 A 
BRANCH   5  17
ATOM     16  C   UNL     1       0.962   6.901  21.145  0.00  0.00    +0.000 C 
ATOM     17  O   UNL     1       1.701   8.115  21.077  0.00  0.00    +0.000 OA
ENDBRANCH   5  17
ENDBRANCH   1   6
BRANCH   3  18
ATOM     18  C   UNL     1       2.751   6.254  17.556  0.00  0.00    +0.000 C 
BRANCH  18  19
ATOM     19  C   UNL     1       4.068   5.684  18.101  0.00  0.00    +0.000 C 
ATOM     20  C   UNL     1       5.022   5.054  17.092  0.00  0.00    +0.000 C 
ATOM     21  C   UNL     1       6.183   4.629  17.988  0.00  0.00    +0.000 C 
ATOM     22  C   UNL     1       5.610   4.649  19.414  0.00  0.00    +0.000 C 
ATOM     23  N   UNL     1       4.116   4.758  19.284  0.00  0.00    +0.000 NA
BRANCH  23  24
ATOM     24  C   UNL     1       3.555   3.375  19.141  0.00  0.00    +0.000 C 
ATOM     25  C   UNL     1       3.653   2.595  20.487  0.00  0.00    +0.000 C 
ATOM     26  C   UNL     1       2.582   2.961  21.514  0.00  0.00    +0.000 C 
ATOM     27  C   UNL     1       1.174   2.803  20.960  0.00  0.00    +0.000 C 
ATOM     28  C   UNL     1       0.999   3.524  19.633  0.00  0.00    +0.000 C 
ATOM     29  C   UNL     1       2.106   3.184  18.636  0.00  0.00    +0.000 C 
ENDBRANCH  23  24
ENDBRANCH  18  19
ENDBRANCH   3  18
TORSDOF 5
ENDMDL
MODEL 4
REMARK VINA RESULT:      -7.7      2.215      3.830
REMARK  Name = 
REMARK  6 active torsions:
REMARK  status: ('A' for Active; 'I' for Inactive)
REMARK    1  A    between atoms: C_1  and  O_2
REMARK    2  A    between atoms: O_2  and  C_3
REMARK    3  A    between atoms: C_4  and  C_5
REMARK    4  A    between atoms: N_7  and  C_8
REMARK    5  A    between atoms: C_8  and  C_9
REMARK    6  A    between atoms: N_13  and  C_14
REMARK                            x       y       z     vdW  Elec       q    Type
REMARK                         _______ _______ _______ _____ _____    ______ ____
ROOT
ATOM      1  C   UNL     1       1.549   9.186  18.436  0.00  0.00    +0.000 C 
ATOM      2  O   UNL     1       1.927   9.900  17.513  0.00  0.00    +0.000 OA
ATOM      3  N   UNL     1       1.943   7.871  18.569  0.00  0.00    +0.000 N 
ATOM      4  H   UNL     1       1.701   7.337  19.391  0.00  0.00    +0.000 HD
ENDROOT
BRANCH   1   6
ATOM      5  C   UNL     1      -0.413  10.643  19.223  0.00  0.00    +0.000 A 
ATOM      6  C   UNL     1       0.623   9.721  19.487  0.00  0.00    +0.000 A 
ATOM      7  C   UNL     1       0.879   9.358  20.815  0.00  0.00    +0.000 A 
ATOM      8  C   UNL     1       0.153   9.928  21.868  0.00  0.00    +0.000 A 
ATOM      9 BR   UNL     1       0.607   9.316  23.620  0.00  0.00    +0.000 Br
ATOM     10  C   UNL     1      -0.841  10.911  21.643  0.00  0.00    +0.000 A 
ATOM     11  C   UNL     1      -1.551  11.566  22.688  0.00  0.00    +0.000 A 
ATOM     12  C   UNL     1      -2.521  12.537  22.442  0.00  0.00    +0.000 A 
ATOM     13  C   UNL     1      -2.812  12.882  21.132  0.00  0.00    +0.000 A 
ATOM     14  C   UNL     1      -2.133  12.257  20.086  0.00  0.00    +0.000 A 
ATOM     15  C   UNL     1      -1.129  11.269  20.302  0.00  0.00    +0.000 A 
BRANCH   5  17
ATOM     16  C   UNL     1      -1.701  10.255  17.231  0.00  0.00    +0.000 C 
ATOM     17  O   UNL     1      -0.805  11.074  17.973  0.00  0.00    +0.000 OA
ENDBRANCH   5  17
ENDBRANCH   1   6
BRANCH   3  18
ATOM     18  C   UNL     1       2.681   7.141  17.542  0.00  0.00    +0.000 C 
BRANCH  18  19
ATOM     19  C   UNL     1       3.872   6.392  18.156  0.00  0.00    +0.000 C 
ATOM     20  C   UNL     1       4.886   5.790  17.191  0.00  0.00    +0.000 C 
ATOM     21  C   UNL     1       5.892   5.160  18.152  0.00  0.00    +0.000 C 
ATOM     22  C   UNL     1       5.154   5.077  19.498  0.00  0.00    +0.000 C 
ATOM     23  N   UNL     1       3.701   5.341  19.217  0.00  0.00    +0.000 NA
BRANCH  23  24
ATOM     24  C   UNL     1       3.050   4.041  18.847  0.00  0.00    +0.000 C 
ATOM     25  C   UNL     1       3.529   2.895  19.787  0.00  0.00    +0.000 C 
ATOM     26  C   UNL     1       2.860   2.877  21.162  0.00  0.00    +0.000 C 
ATOM     27  C   UNL     1       1.342   2.828  21.063  0.00  0.00    +0.000 C 
ATOM     28  C   UNL     1       0.794   3.910  20.147  0.00  0.00    +0.000 C 
ATOM     29  C   UNL     1       1.507   3.944  18.796  0.00  0.00    +0.000 C 
ENDBRANCH  23  24
ENDBRANCH  18  19
ENDBRANCH   3  18
TORSDOF 5
ENDMDL
MODEL 5
REMARK VINA RESULT:      -7.6      2.557      3.863
REMARK  Name = 
REMARK  6 active torsions:
REMARK  status: ('A' for Active; 'I' for Inactive)
REMARK    1  A    between atoms: C_1  and  O_2
REMARK    2  A    between atoms: O_2  and  C_3
REMARK    3  A    between atoms: C_4  and  C_5
REMARK    4  A    between atoms: N_7  and  C_8
REMARK    5  A    between atoms: C_8  and  C_9
REMARK    6  A    between atoms: N_13  and  C_14
REMARK                            x       y       z     vdW  Elec       q    Type
REMARK                         _______ _______ _______ _____ _____    ______ ____
ROOT
ATOM      1  C   UNL     1       1.446   9.223  18.298  0.00  0.00    +0.000 C 
ATOM      2  O   UNL     1       1.021   9.244  17.148  0.00  0.00    +0.000 OA
ATOM      3  N   UNL     1       2.157   8.158  18.810  0.00  0.00    +0.000 N 
ATOM      4  H   UNL     1       2.582   8.209  19.723  0.00  0.00    +0.000 HD
ENDROOT
BRANCH   1   6
ATOM      5  C   UNL     1       0.436  10.301  20.397  0.00  0.00    +0.000 A 
ATOM      6  C   UNL     1       1.212  10.382  19.221  0.00  0.00    +0.000 A 
ATOM      7  C   UNL     1       1.708  11.630  18.826  0.00  0.00    +0.000 A 
ATOM      8  C   UNL     1       1.409  12.786  19.557  0.00  0.00    +0.000 A 
ATOM      9 BR   UNL     1       2.176  14.408  18.902  0.00  0.00    +0.000 Br
ATOM     10  C   UNL     1       0.571  12.751  20.698  0.00  0.00    +0.000 A 
ATOM     11  C   UNL     1       0.185  13.910  21.427  0.00  0.00    +0.000 A 
ATOM     12  C   UNL     1      -0.647  13.852  22.545  0.00  0.00    +0.000 A 
ATOM     13  C   UNL     1      -1.117  12.621  22.971  0.00  0.00    +0.000 A 
ATOM     14  C   UNL     1      -0.755  11.466  22.278  0.00  0.00    +0.000 A 
ATOM     15  C   UNL     1       0.083  11.491  21.126  0.00  0.00    +0.000 A 
BRANCH   5  17
ATOM     16  C   UNL     1       0.723   8.369  21.799  0.00  0.00    +0.000 C 
ATOM     17  O   UNL     1      -0.095   9.146  20.931  0.00  0.00    +0.000 OA
ENDBRANCH   5  17
ENDBRANCH   1   6
BRANCH   3  18
ATOM     18  C   UNL     1       2.308   6.881  18.117  0.00  0.00    +0.000 C 
BRANCH  18  19
ATOM     19  C   UNL     1       3.678   6.257  18.421  0.00  0.00    +0.000 C 
ATOM     20  C   UNL     1       4.529   5.837  17.227  0.00  0.00    +0.000 C 
ATOM     21  C   UNL     1       5.778   5.291  17.915  0.00  0.00    +0.000 C 
ATOM     22  C   UNL     1       5.352   5.047  19.372  0.00  0.00    +0.000 C 
ATOM     23  N   UNL     1       3.852   5.140  19.411  0.00  0.00    +0.000 NA
BRANCH  23  24
ATOM     24  C   UNL     1       3.289   3.790  19.082  0.00  0.00    +0.000 C 
ATOM     25  C   UNL     1       3.632   2.759  20.199  0.00  0.00    +0.000 C 
ATOM     26  C   UNL     1       2.756   2.858  21.448  0.00  0.00    +0.000 C 
ATOM     27  C   UNL     1       1.274   2.750  21.123  0.00  0.00    +0.000 C 
ATOM     28  C   UNL     1       0.859   3.716  20.025  0.00  0.00    +0.000 C 
ATOM     29  C   UNL     1       1.775   3.638  18.804  0.00  0.00    +0.000 C 
ENDBRANCH  23  24
ENDBRANCH  18  19
ENDBRANCH   3  18
TORSDOF 5
ENDMDL
MODEL 6
REMARK VINA RESULT:      -7.5      2.226      3.857
REMARK  Name = 
REMARK  6 active torsions:
REMARK  status: ('A' for Active; 'I' for Inactive)
REMARK    1  A    between atoms: C_1  and  O_2
REMARK    2  A    between atoms: O_2  and  C_3
REMARK    3  A    between atoms: C_4  and  C_5
REMARK    4  A    between atoms: N_7  and  C_8
REMARK    5  A    between atoms: C_8  and  C_9
REMARK    6  A    between atoms: N_13  and  C_14
REMARK                            x       y       z     vdW  Elec       q    Type
REMARK                         _______ _______ _______ _____ _____    ______ ____
ROOT
ATOM      1  C   UNL     1       2.123   7.930  17.917  0.00  0.00    +0.000 C 
ATOM      2  O   UNL     1       1.474   7.052  17.360  0.00  0.00    +0.000 OA
ATOM      3  N   UNL     1       3.469   8.120  17.687  0.00  0.00    +0.000 N 
ATOM      4  H   UNL     1       3.956   8.912  18.079  0.00  0.00    +0.000 HD
ENDROOT
BRANCH   1   6
ATOM      5  C   UNL     1       1.385   8.610  20.280  0.00  0.00    +0.000 A 
ATOM      6  C   UNL     1       1.469   8.862  18.894  0.00  0.00    +0.000 A 
ATOM      7  C   UNL     1       0.817   9.987  18.372  0.00  0.00    +0.000 A 
ATOM      8  C   UNL     1       0.062  10.826  19.199  0.00  0.00    +0.000 A 
ATOM      9 BR   UNL     1      -0.749  12.329  18.344  0.00  0.00    +0.000 Br
ATOM     10  C   UNL     1      -0.105  10.560  20.580  0.00  0.00    +0.000 A 
ATOM     11  C   UNL     1      -0.920  11.347  21.441  0.00  0.00    +0.000 A 
ATOM     12  C   UNL     1      -1.075  11.061  22.797  0.00  0.00    +0.000 A 
ATOM     13  C   UNL     1      -0.409   9.973  23.336  0.00  0.00    +0.000 A 
ATOM     14  C   UNL     1       0.400   9.183  22.518  0.00  0.00    +0.000 A 
ATOM     15  C   UNL     1       0.570   9.440  21.127  0.00  0.00    +0.000 A 
BRANCH   5  17
ATOM     16  C   UNL     1       1.482   6.254  20.747  0.00  0.00    +0.000 C 
ATOM     17  O   UNL     1       1.994   7.567  20.945  0.00  0.00    +0.000 OA
ENDBRANCH   5  17
ENDBRANCH   1   6
BRANCH   3  18
ATOM     18  C   UNL     1       4.296   7.192  16.921  0.00  0.00    +0.000 C 
BRANCH  18  19
ATOM     19  C   UNL     1       5.323   6.502  17.829  0.00  0.00    +0.000 C 
ATOM     20  C   UNL     1       6.649   6.096  17.196  0.00  0.00    +0.000 C 
ATOM     21  C   UNL     1       7.381   5.472  18.382  0.00  0.00    +0.000 C 
ATOM     22  C   UNL     1       6.282   5.187  19.419  0.00  0.00    +0.000 C 
ATOM     23  N   UNL     1       4.963   5.339  18.712  0.00  0.00    +0.000 NA
BRANCH  23  24
ATOM     24  C   UNL     1       4.619   4.027  18.073  0.00  0.00    +0.000 C 
ATOM     25  C   UNL     1       4.546   2.893  19.140  0.00  0.00    +0.000 C 
ATOM     26  C   UNL     1       3.256   2.872  19.960  0.00  0.00    +0.000 C 
ATOM     27  C   UNL     1       2.016   2.796  19.081  0.00  0.00    +0.000 C 
ATOM     28  C   UNL     1       2.018   3.864  17.999  0.00  0.00    +0.000 C 
ATOM     29  C   UNL     1       3.333   3.903  17.222  0.00  0.00    +0.000 C 
ENDBRANCH  23  24
ENDBRANCH  18  19
ENDBRANCH   3  18
TORSDOF 5
ENDMDL
MODEL 7
REMARK VINA RESULT:      -7.4      2.699      8.897
REMARK  Name = 
REMARK  6 active torsions:
REMARK  status: ('A' for Active; 'I' for Inactive)
REMARK    1  A    between atoms: C_1  and  O_2
REMARK    2  A    between atoms: O_2  and  C_3
REMARK    3  A    between atoms: C_4  and  C_5
REMARK    4  A    between atoms: N_7  and  C_8
REMARK    5  A    between atoms: C_8  and  C_9
REMARK    6  A    between atoms: N_13  and  C_14
REMARK                            x       y       z     vdW  Elec       q    Type
REMARK                         _______ _______ _______ _____ _____    ______ ____
ROOT
ATOM      1  C   UNL     1       0.675   8.332  21.085  0.00  0.00    +0.000 C 
ATOM      2  O   UNL     1      -0.451   8.050  21.478  0.00  0.00    +0.000 OA
ATOM      3  N   UNL     1       1.192   9.608  21.163  0.00  0.00    +0.000 N 
ATOM      4  H   UNL     1       2.156   9.793  20.927  0.00  0.00    +0.000 HD
ENDROOT
BRANCH   1   6
ATOM      5  C   UNL     1       2.354   7.482  19.339  0.00  0.00    +0.000 A 
ATOM      6  C   UNL     1       1.564   7.280  20.491  0.00  0.00    +0.000 A 
ATOM      7  C   UNL     1       1.516   6.001  21.059  0.00  0.00    +0.000 A 
ATOM      8  C   UNL     1       2.203   4.930  20.476  0.00  0.00    +0.000 A 
ATOM      9 BR   UNL     1       2.056   3.254  21.380  0.00  0.00    +0.000 Br
ATOM     10  C   UNL     1       2.943   5.082  19.278  0.00  0.00    +0.000 A 
ATOM     11  C   UNL     1       3.597   4.006  18.614  0.00  0.00    +0.000 A 
ATOM     12  C   UNL     1       4.314   4.179  17.431  0.00  0.00    +0.000 A 
ATOM     13  C   UNL     1       4.402   5.444  16.875  0.00  0.00    +0.000 A 
ATOM     14  C   UNL     1       3.773   6.520  17.503  0.00  0.00    +0.000 A 
ATOM     15  C   UNL     1       3.022   6.376  18.706  0.00  0.00    +0.000 A 
BRANCH   5  17
ATOM     16  C   UNL     1       1.534   9.089  17.750  0.00  0.00    +0.000 C 
ATOM     17  O   UNL     1       2.527   8.684  18.684  0.00  0.00    +0.000 OA
ENDBRANCH   5  17
ENDBRANCH   1   6
BRANCH   3  18
ATOM     18  C   UNL     1       0.402  10.779  21.532  0.00  0.00    +0.000 C 
BRANCH  18  19
ATOM     19  C   UNL     1      -0.343  11.339  20.312  0.00  0.00    +0.000 C 
ATOM     20  C   UNL     1       0.371  12.408  19.493  0.00  0.00    +0.000 C 
ATOM     21  C   UNL     1      -0.653  12.693  18.396  0.00  0.00    +0.000 C 
ATOM     22  C   UNL     1      -1.974  12.114  18.928  0.00  0.00    +0.000 C 
ATOM     23  N   UNL     1      -1.766  11.819  20.388  0.00  0.00    +0.000 NA
BRANCH  23  24
ATOM     24  C   UNL     1      -2.066  13.065  21.167  0.00  0.00    +0.000 C 
ATOM     25  C   UNL     1      -3.489  13.601  20.827  0.00  0.00    +0.000 C 
ATOM     26  C   UNL     1      -4.632  12.855  21.514  0.00  0.00    +0.000 C 
ATOM     27  C   UNL     1      -4.471  12.822  23.027  0.00  0.00    +0.000 C 
ATOM     28  C   UNL     1      -3.096  12.323  23.443  0.00  0.00    +0.000 C 
ATOM     29  C   UNL     1      -1.968  13.046  22.710  0.00  0.00    +0.000 C 
ENDBRANCH  23  24
ENDBRANCH  18  19
ENDBRANCH   3  18
TORSDOF 5
ENDMDL
MODEL 8
REMARK VINA RESULT:      -7.3      2.522      3.414
REMARK  Name = 
REMARK  6 active torsions:
REMARK  status: ('A' for Active; 'I' for Inactive)
REMARK    1  A    between atoms: C_1  and  O_2
REMARK    2  A    between atoms: O_2  and  C_3
REMARK    3  A    between atoms: C_4  and  C_5
REMARK    4  A    between atoms: N_7  and  C_8
REMARK    5  A    between atoms: C_8  and  C_9
REMARK    6  A    between atoms: N_13  and  C_14
REMARK                            x       y       z     vdW  Elec       q    Type
REMARK                         _______ _______ _______ _____ _____    ______ ____
ROOT
ATOM      1  C   UNL     1       0.588   8.253  21.049  0.00  0.00    +0.000 C 
ATOM      2  O   UNL     1      -0.345   7.731  21.647  0.00  0.00    +0.000 OA
ATOM      3  N   UNL     1       1.711   7.551  20.663  0.00  0.00    +0.000 N 
ATOM      4  H   UNL     1       2.418   7.980  20.084  0.00  0.00    +0.000 HD
ENDROOT
BRANCH   1   6
ATOM      5  C   UNL     1       1.250  10.270  19.605  0.00  0.00    +0.000 A 
ATOM      6  C   UNL     1       0.552   9.711  20.697  0.00  0.00    +0.000 A 
ATOM      7  C   UNL     1      -0.129  10.567  21.571  0.00  0.00    +0.000 A 
ATOM      8  C   UNL     1      -0.088  11.955  21.394  0.00  0.00    +0.000 A 
ATOM      9 BR   UNL     1      -1.083  12.986  22.656  0.00  0.00    +0.000 Br
ATOM     10  C   UNL     1       0.664  12.553  20.353  0.00  0.00    +0.000 A 
ATOM     11  C   UNL     1       0.790  13.959  20.180  0.00  0.00    +0.000 A 
ATOM     12  C   UNL     1       1.543  14.525  19.152  0.00  0.00    +0.000 A 
ATOM     13  C   UNL     1       2.193  13.692  18.257  0.00  0.00    +0.000 A 
ATOM     14  C   UNL     1       2.088  12.308  18.399  0.00  0.00    +0.000 A 
ATOM     15  C   UNL     1       1.337  11.698  19.445  0.00  0.00    +0.000 A 
BRANCH   5  17
ATOM     16  C   UNL     1       1.199   8.985  17.574  0.00  0.00    +0.000 C 
ATOM     17  O   UNL     1       1.939   9.561  18.644  0.00  0.00    +0.000 OA
ENDBRANCH   5  17
ENDBRANCH   1   6
BRANCH   3  18
ATOM     18  C   UNL     1       1.994   6.183  21.089  0.00  0.00    +0.000 C 
BRANCH  18  19
ATOM     19  C   UNL     1       1.583   5.180  20.003  0.00  0.00    +0.000 C 
ATOM     20  C   UNL     1       1.176   3.785  20.464  0.00  0.00    +0.000 C 
ATOM     21  C   UNL     1       0.837   3.107  19.138  0.00  0.00    +0.000 C 
ATOM     22  C   UNL     1       1.484   3.995  18.063  0.00  0.00    +0.000 C 
ATOM     23  N   UNL     1       2.416   4.936  18.775  0.00  0.00    +0.000 NA
BRANCH  23  24
ATOM     24  C   UNL     1       3.744   4.255  18.928  0.00  0.00    +0.000 C 
ATOM     25  C   UNL     1       4.085   3.415  17.661  0.00  0.00    +0.000 C 
ATOM     26  C   UNL     1       4.601   4.231  16.476  0.00  0.00    +0.000 C 
ATOM     27  C   UNL     1       5.812   5.077  16.842  0.00  0.00    +0.000 C 
ATOM     28  C   UNL     1       5.565   5.919  18.084  0.00  0.00    +0.000 C 
ATOM     29  C   UNL     1       5.004   5.095  19.243  0.00  0.00    +0.000 C 
ENDBRANCH  23  24
ENDBRANCH  18  19
ENDBRANCH   3  18
TORSDOF 5
ENDMDL
MODEL 9
REMARK VINA RESULT:      -7.3      2.590      4.055
REMARK  Name = 
REMARK  6 active torsions:
REMARK  status: ('A' for Active; 'I' for Inactive)
REMARK    1  A    between atoms: C_1  and  O_2
REMARK    2  A    between atoms: O_2  and  C_3
REMARK    3  A    between atoms: C_4  and  C_5
REMARK    4  A    between atoms: N_7  and  C_8
REMARK    5  A    between atoms: C_8  and  C_9
REMARK    6  A    between atoms: N_13  and  C_14
REMARK                            x       y       z     vdW  Elec       q    Type
REMARK                         _______ _______ _______ _____ _____    ______ ____
ROOT
ATOM      1  C   UNL     1      -0.051   9.386  21.396  0.00  0.00    +0.000 C 
ATOM      2  O   UNL     1      -0.660   8.747  22.246  0.00  0.00    +0.000 OA
ATOM      3  N   UNL     1       0.944   8.832  20.618  0.00  0.00    +0.000 N 
ATOM      4  H   UNL     1       1.358   9.350  19.858  0.00  0.00    +0.000 HD
ENDROOT
BRANCH   1   6
ATOM      5  C   UNL     1      -0.188  11.476  19.911  0.00  0.00    +0.000 A 
ATOM      6  C   UNL     1      -0.365  10.833  21.155  0.00  0.00    +0.000 A 
ATOM      7  C   UNL     1      -0.753  11.600  22.261  0.00  0.00    +0.000 A 
ATOM      8  C   UNL     1      -0.924  12.985  22.150  0.00  0.00    +0.000 A 
ATOM      9 BR   UNL     1      -1.475  13.887  23.741  0.00  0.00    +0.000 Br
ATOM     10  C   UNL     1      -0.682  13.672  20.936  0.00  0.00    +0.000 A 
ATOM     11  C   UNL     1      -0.775  15.085  20.798  0.00  0.00    +0.000 A 
ATOM     12  C   UNL     1      -0.525  15.740  19.593  0.00  0.00    +0.000 A 
ATOM     13  C   UNL     1      -0.175  14.993  18.480  0.00  0.00    +0.000 A 
ATOM     14  C   UNL     1      -0.077  13.605  18.583  0.00  0.00    +0.000 A 
ATOM     15  C   UNL     1      -0.314  12.905  19.801  0.00  0.00    +0.000 A 
BRANCH   5  17
ATOM     16  C   UNL     1      -0.870  10.243  17.964  0.00  0.00    +0.000 C 
ATOM     17  O   UNL     1       0.160  10.857  18.730  0.00  0.00    +0.000 OA
ENDBRANCH   5  17
ENDBRANCH   1   6
BRANCH   3  18
ATOM     18  C   UNL     1       1.504   7.503  20.850  0.00  0.00    +0.000 C 
BRANCH  18  19
ATOM     19  C   UNL     1       2.512   7.139  19.751  0.00  0.00    +0.000 C 
ATOM     20  C   UNL     1       2.314   7.786  18.385  0.00  0.00    +0.000 C 
ATOM     21  C   UNL     1       3.483   7.203  17.594  0.00  0.00    +0.000 C 
ATOM     22  C   UNL     1       3.949   5.989  18.413  0.00  0.00    +0.000 C 
ATOM     23  N   UNL     1       2.880   5.716  19.436  0.00  0.00    +0.000 NA
BRANCH  23  24
ATOM     24  C   UNL     1       1.849   4.825  18.811  0.00  0.00    +0.000 C 
ATOM     25  C   UNL     1       2.512   3.812  17.830  0.00  0.00    +0.000 C 
ATOM     26  C   UNL     1       3.185   2.617  18.505  0.00  0.00    +0.000 C 
ATOM     27  C   UNL     1       2.232   1.860  19.418  0.00  0.00    +0.000 C 
ATOM     28  C   UNL     1       1.528   2.783  20.400  0.00  0.00    +0.000 C 
ATOM     29  C   UNL     1       0.904   3.996  19.713  0.00  0.00    +0.000 C 
ENDBRANCH  23  24
ENDBRANCH  18  19
ENDBRANCH   3  18
TORSDOF 5
ENDMDL
