MODEL 1
REMARK VINA RESULT:      -7.0      0.000      0.000
REMARK  Name = 
REMARK  6 active torsions:
REMARK  status: ('A' for Active; 'I' for Inactive)
REMARK    1  A    between atoms: C_1  and  N_2
REMARK    2  A    between atoms: N_2  and  C_3
REMARK    3  A    between atoms: N_2  and  C_4
REMARK    4  A    between atoms: C_7  and  C_8
REMARK    5  A    between atoms: C_9  and  C_10
REMARK    6  A    between atoms: C_10  and  C_12
REMARK                            x       y       z     vdW  Elec       q    Type
REMARK                         _______ _______ _______ _____ _____    ______ ____
ROOT
ATOM      1  C   UNL     1       7.951   9.086  17.638  0.00  0.00    +0.000 C 
ATOM      2  C   UNL     1       7.990   7.800  18.012  0.00  0.00    +0.000 C 
ENDROOT
BRANCH   1   6
ATOM      3  C   UNL     1      10.109  12.292  19.590  0.00  0.00    +0.000 A 
ATOM      4  C   UNL     1       9.429  12.465  18.379  0.00  0.00    +0.000 A 
ATOM      5  C   UNL     1       8.724  11.422  17.764  0.00  0.00    +0.000 A 
ATOM      6  C   UNL     1       8.672  10.154  18.343  0.00  0.00    +0.000 A 
ATOM      7  C   UNL     1       9.306   9.971  19.574  0.00  0.00    +0.000 A 
ATOM      8  C   UNL     1      10.012  11.020  20.177  0.00  0.00    +0.000 A 
BRANCH   3  10
ATOM      9  C   UNL     1      10.200  14.176  21.193  0.00  0.00    +0.000 C 
ATOM     10  N   UNL     1      10.829  13.325  20.190  0.00  0.00    +0.000 N 
ATOM     11  C   UNL     1      12.049  13.809  19.556  0.00  0.00    +0.000 C 
ENDBRANCH   3  10
ENDBRANCH   1   6
BRANCH   2  12
ATOM     12  C   UNL     1       7.325   6.728  17.210  0.00  0.00    +0.000 C 
ATOM     13  O   UNL     1       7.761   6.423  16.101  0.00  0.00    +0.000 OA
BRANCH  12  14
ATOM     14  C   UNL     1       6.192   6.081  17.856  0.00  0.00    +0.000 A 
ATOM     15  C   UNL     1       6.118   5.495  19.110  0.00  0.00    +0.000 A 
ATOM     16  C   UNL     1       4.844   4.900  19.361  0.00  0.00    +0.000 A 
ATOM     17  C   UNL     1       4.006   5.069  18.286  0.00  0.00    +0.000 A 
ATOM     18  I   UNL     1       2.098   4.315  18.201  0.00  0.00    +0.000 I 
ATOM     19  S   UNL     1       4.699   5.959  17.021  0.00  0.00    +0.000 S 
ENDBRANCH  12  14
ENDBRANCH   2  12
TORSDOF 4
ENDMDL
MODEL 2
REMARK VINA RESULT:      -6.9      0.955      1.419
REMARK  Name = 
REMARK  6 active torsions:
REMARK  status: ('A' for Active; 'I' for Inactive)
REMARK    1  A    between atoms: C_1  and  N_2
REMARK    2  A    between atoms: N_2  and  C_3
REMARK    3  A    between atoms: N_2  and  C_4
REMARK    4  A    between atoms: C_7  and  C_8
REMARK    5  A    between atoms: C_9  and  C_10
REMARK    6  A    between atoms: C_10  and  C_12
REMARK                            x       y       z     vdW  Elec       q    Type
REMARK                         _______ _______ _______ _____ _____    ______ ____
ROOT
ATOM      1  C   UNL     1       7.776   9.020  17.564  0.00  0.00    +0.000 C 
ATOM      2  C   UNL     1       7.824   7.740  17.956  0.00  0.00    +0.000 C 
ENDROOT
BRANCH   1   6
ATOM      3  C   UNL     1      10.037  12.246  19.360  0.00  0.00    +0.000 A 
ATOM      4  C   UNL     1       9.236  12.423  18.227  0.00  0.00    +0.000 A 
ATOM      5  C   UNL     1       8.499  11.373  17.663  0.00  0.00    +0.000 A 
ATOM      6  C   UNL     1       8.537  10.094  18.217  0.00  0.00    +0.000 A 
ATOM      7  C   UNL     1       9.295   9.905  19.374  0.00  0.00    +0.000 A 
ATOM      8  C   UNL     1      10.032  10.961  19.927  0.00  0.00    +0.000 A 
BRANCH   3  10
ATOM      9  C   UNL     1      12.196  13.441  19.561  0.00  0.00    +0.000 C 
ATOM     10  N   UNL     1      10.788  13.286  19.908  0.00  0.00    +0.000 N 
ATOM     11  C   UNL     1      10.302  13.968  21.101  0.00  0.00    +0.000 C 
ENDBRANCH   3  10
ENDBRANCH   1   6
BRANCH   2  12
ATOM     12  C   UNL     1       7.114   6.661  17.204  0.00  0.00    +0.000 C 
ATOM     13  O   UNL     1       7.692   6.048  16.307  0.00  0.00    +0.000 OA
BRANCH  12  14
ATOM     14  C   UNL     1       5.754   6.389  17.643  0.00  0.00    +0.000 A 
ATOM     15  C   UNL     1       4.561   6.919  17.177  0.00  0.00    +0.000 A 
ATOM     16  C   UNL     1       3.430   6.453  17.913  0.00  0.00    +0.000 A 
ATOM     17  C   UNL     1       3.817   5.581  18.901  0.00  0.00    +0.000 A 
ATOM     18  I   UNL     1       2.513   4.720  20.233  0.00  0.00    +0.000 I 
ATOM     19  S   UNL     1       5.485   5.283  18.926  0.00  0.00    +0.000 S 
ENDBRANCH  12  14
ENDBRANCH   2  12
TORSDOF 4
ENDMDL
MODEL 3
REMARK VINA RESULT:      -6.9      0.265      1.125
REMARK  Name = 
REMARK  6 active torsions:
REMARK  status: ('A' for Active; 'I' for Inactive)
REMARK    1  A    between atoms: C_1  and  N_2
REMARK    2  A    between atoms: N_2  and  C_3
REMARK    3  A    between atoms: N_2  and  C_4
REMARK    4  A    between atoms: C_7  and  C_8
REMARK    5  A    between atoms: C_9  and  C_10
REMARK    6  A    between atoms: C_10  and  C_12
REMARK                            x       y       z     vdW  Elec       q    Type
REMARK                         _______ _______ _______ _____ _____    ______ ____
ROOT
ATOM      1  C   UNL     1       7.802   8.952  17.596  0.00  0.00    +0.000 C 
ATOM      2  C   UNL     1       7.961   7.660  17.913  0.00  0.00    +0.000 C 
ENDROOT
BRANCH   1   6
ATOM      3  C   UNL     1       9.911  12.110  19.674  0.00  0.00    +0.000 A 
ATOM      4  C   UNL     1       9.792  10.814  20.188  0.00  0.00    +0.000 A 
ATOM      5  C   UNL     1       9.117   9.798  19.499  0.00  0.00    +0.000 A 
ATOM      6  C   UNL     1       8.530  10.042  18.258  0.00  0.00    +0.000 A 
ATOM      7  C   UNL     1       8.675  11.316  17.705  0.00  0.00    +0.000 A 
ATOM      8  C   UNL     1       9.348  12.326  18.406  0.00  0.00    +0.000 A 
BRANCH   3  10
ATOM      9  C   UNL     1       9.932  13.752  21.526  0.00  0.00    +0.000 C 
ATOM     10  N   UNL     1      10.564  13.127  20.370  0.00  0.00    +0.000 N 
ATOM     11  C   UNL     1      11.671  13.832  19.736  0.00  0.00    +0.000 C 
ENDBRANCH   3  10
ENDBRANCH   1   6
BRANCH   2  12
ATOM     12  C   UNL     1       7.277   6.573  17.149  0.00  0.00    +0.000 C 
ATOM     13  O   UNL     1       7.724   6.205  16.063  0.00  0.00    +0.000 OA
BRANCH  12  14
ATOM     14  C   UNL     1       6.114   5.990  17.801  0.00  0.00    +0.000 A 
ATOM     15  C   UNL     1       5.971   5.559  19.111  0.00  0.00    +0.000 A 
ATOM     16  C   UNL     1       4.690   4.977  19.358  0.00  0.00    +0.000 A 
ATOM     17  C   UNL     1       3.916   5.001  18.224  0.00  0.00    +0.000 A 
ATOM     18  I   UNL     1       2.025   4.211  18.121  0.00  0.00    +0.000 I 
ATOM     19  S   UNL     1       4.676   5.743  16.902  0.00  0.00    +0.000 S 
ENDBRANCH  12  14
ENDBRANCH   2  12
TORSDOF 4
ENDMDL
MODEL 4
REMARK VINA RESULT:      -6.6      1.271      1.960
REMARK  Name = 
REMARK  6 active torsions:
REMARK  status: ('A' for Active; 'I' for Inactive)
REMARK    1  A    between atoms: C_1  and  N_2
REMARK    2  A    between atoms: N_2  and  C_3
REMARK    3  A    between atoms: N_2  and  C_4
REMARK    4  A    between atoms: C_7  and  C_8
REMARK    5  A    between atoms: C_9  and  C_10
REMARK    6  A    between atoms: C_10  and  C_12
REMARK                            x       y       z     vdW  Elec       q    Type
REMARK                         _______ _______ _______ _____ _____    ______ ____
ROOT
ATOM      1  C   UNL     1       8.133   8.280  18.393  0.00  0.00    +0.000 C 
ATOM      2  C   UNL     1       7.639   7.732  17.275  0.00  0.00    +0.000 C 
ENDROOT
BRANCH   1   6
ATOM      3  C   UNL     1       9.557  12.353  18.759  0.00  0.00    +0.000 A 
ATOM      4  C   UNL     1       9.981  11.323  19.608  0.00  0.00    +0.000 A 
ATOM      5  C   UNL     1       9.521  10.007  19.471  0.00  0.00    +0.000 A 
ATOM      6  C   UNL     1       8.612   9.667  18.470  0.00  0.00    +0.000 A 
ATOM      7  C   UNL     1       8.210  10.668  17.583  0.00  0.00    +0.000 A 
ATOM      8  C   UNL     1       8.672  11.983  17.733  0.00  0.00    +0.000 A 
BRANCH   3  10
ATOM      9  C   UNL     1      10.831  14.287  17.887  0.00  0.00    +0.000 C 
ATOM     10  N   UNL     1       9.997  13.667  18.910  0.00  0.00    +0.000 N 
ATOM     11  C   UNL     1       9.969  14.284  20.231  0.00  0.00    +0.000 C 
ENDBRANCH   3  10
ENDBRANCH   1   6
BRANCH   2  12
ATOM     12  C   UNL     1       7.069   6.350  17.263  0.00  0.00    +0.000 C 
ATOM     13  O   UNL     1       7.769   5.394  16.932  0.00  0.00    +0.000 OA
BRANCH  12  14
ATOM     14  C   UNL     1       5.686   6.244  17.703  0.00  0.00    +0.000 A 
ATOM     15  C   UNL     1       4.562   6.894  17.218  0.00  0.00    +0.000 A 
ATOM     16  C   UNL     1       3.383   6.577  17.960  0.00  0.00    +0.000 A 
ATOM     17  C   UNL     1       3.668   5.693  18.972  0.00  0.00    +0.000 A 
ATOM     18  I   UNL     1       2.272   5.019  20.319  0.00  0.00    +0.000 I 
ATOM     19  S   UNL     1       5.291   5.209  19.012  0.00  0.00    +0.000 S 
ENDBRANCH  12  14
ENDBRANCH   2  12
TORSDOF 4
ENDMDL
MODEL 5
REMARK VINA RESULT:      -6.6      1.141      1.526
REMARK  Name = 
REMARK  6 active torsions:
REMARK  status: ('A' for Active; 'I' for Inactive)
REMARK    1  A    between atoms: C_1  and  N_2
REMARK    2  A    between atoms: N_2  and  C_3
REMARK    3  A    between atoms: N_2  and  C_4
REMARK    4  A    between atoms: C_7  and  C_8
REMARK    5  A    between atoms: C_9  and  C_10
REMARK    6  A    between atoms: C_10  and  C_12
REMARK                            x       y       z     vdW  Elec       q    Type
REMARK                         _______ _______ _______ _____ _____    ______ ____
ROOT
ATOM      1  C   UNL     1       8.308   8.255  18.315  0.00  0.00    +0.000 C 
ATOM      2  C   UNL     1       7.422   7.882  17.381  0.00  0.00    +0.000 C 
ENDROOT
BRANCH   1   6
ATOM      3  C   UNL     1       9.460  12.392  18.859  0.00  0.00    +0.000 A 
ATOM      4  C   UNL     1       8.683  11.959  17.779  0.00  0.00    +0.000 A 
ATOM      5  C   UNL     1       8.307  10.618  17.621  0.00  0.00    +0.000 A 
ATOM      6  C   UNL     1       8.697   9.652  18.548  0.00  0.00    +0.000 A 
ATOM      7  C   UNL     1       9.434  10.070  19.657  0.00  0.00    +0.000 A 
ATOM      8  C   UNL     1       9.809  11.412  19.802  0.00  0.00    +0.000 A 
BRANCH   3  10
ATOM      9  C   UNL     1      10.296  14.490  17.845  0.00  0.00    +0.000 C 
ATOM     10  N   UNL     1       9.853  13.723  19.003  0.00  0.00    +0.000 N 
ATOM     11  C   UNL     1      10.199  14.228  20.326  0.00  0.00    +0.000 C 
ENDBRANCH   3  10
ENDBRANCH   1   6
BRANCH   2  12
ATOM     12  C   UNL     1       6.976   6.463  17.243  0.00  0.00    +0.000 C 
ATOM     13  O   UNL     1       7.797   5.575  17.018  0.00  0.00    +0.000 OA
BRANCH  12  14
ATOM     14  C   UNL     1       5.551   6.237  17.435  0.00  0.00    +0.000 A 
ATOM     15  C   UNL     1       4.530   7.163  17.575  0.00  0.00    +0.000 A 
ATOM     16  C   UNL     1       3.263   6.549  17.816  0.00  0.00    +0.000 A 
ATOM     17  C   UNL     1       3.381   5.181  17.840  0.00  0.00    +0.000 A 
ATOM     18  I   UNL     1       1.813   3.911  18.217  0.00  0.00    +0.000 I 
ATOM     19  S   UNL     1       4.955   4.632  17.535  0.00  0.00    +0.000 S 
ENDBRANCH  12  14
ENDBRANCH   2  12
TORSDOF 4
ENDMDL
MODEL 6
REMARK VINA RESULT:      -6.6      6.300      7.245
REMARK  Name = 
REMARK  6 active torsions:
REMARK  status: ('A' for Active; 'I' for Inactive)
REMARK    1  A    between atoms: C_1  and  N_2
REMARK    2  A    between atoms: N_2  and  C_3
REMARK    3  A    between atoms: N_2  and  C_4
REMARK    4  A    between atoms: C_7  and  C_8
REMARK    5  A    between atoms: C_9  and  C_10
REMARK    6  A    between atoms: C_10  and  C_12
REMARK                            x       y       z     vdW  Elec       q    Type
REMARK                         _______ _______ _______ _____ _____    ______ ____
ROOT
ATOM      1  C   UNL     1       3.194   5.849  18.761  0.00  0.00    +0.000 C 
ATOM      2  C   UNL     1       4.415   5.585  19.245  0.00  0.00    +0.000 C 
ENDROOT
BRANCH   1   6
ATOM      3  C   UNL     1       1.030   9.514  19.557  0.00  0.00    +0.000 A 
ATOM      4  C   UNL     1       1.263   8.544  20.539  0.00  0.00    +0.000 A 
ATOM      5  C   UNL     1       1.975   7.368  20.271  0.00  0.00    +0.000 A 
ATOM      6  C   UNL     1       2.486   7.115  18.998  0.00  0.00    +0.000 A 
ATOM      7  C   UNL     1       2.305   8.089  18.015  0.00  0.00    +0.000 A 
ATOM      8  C   UNL     1       1.586   9.260  18.293  0.00  0.00    +0.000 A 
BRANCH   3  10
ATOM      9  C   UNL     1      -1.101  10.767  19.428  0.00  0.00    +0.000 C 
ATOM     10  N   UNL     1       0.301  10.674  19.819  0.00  0.00    +0.000 N 
ATOM     11  C   UNL     1       1.010  11.913  20.112  0.00  0.00    +0.000 C 
ENDBRANCH   3  10
ENDBRANCH   1   6
BRANCH   2  12
ATOM     12  C   UNL     1       5.142   4.327  18.898  0.00  0.00    +0.000 C 
ATOM     13  O   UNL     1       5.136   3.373  19.676  0.00  0.00    +0.000 OA
BRANCH  12  14
ATOM     14  C   UNL     1       5.791   4.323  17.595  0.00  0.00    +0.000 A 
ATOM     15  C   UNL     1       7.073   4.726  17.255  0.00  0.00    +0.000 A 
ATOM     16  C   UNL     1       7.321   4.634  15.852  0.00  0.00    +0.000 A 
ATOM     17  C   UNL     1       6.216   4.155  15.192  0.00  0.00    +0.000 A 
ATOM     18  I   UNL     1       6.121   3.923  13.154  0.00  0.00    +0.000 I 
ATOM     19  S   UNL     1       4.924   3.777  16.221  0.00  0.00    +0.000 S 
ENDBRANCH  12  14
ENDBRANCH   2  12
TORSDOF 4
ENDMDL
MODEL 7
REMARK VINA RESULT:      -6.5      0.810      1.031
REMARK  Name = 
REMARK  6 active torsions:
REMARK  status: ('A' for Active; 'I' for Inactive)
REMARK    1  A    between atoms: C_1  and  N_2
REMARK    2  A    between atoms: N_2  and  C_3
REMARK    3  A    between atoms: N_2  and  C_4
REMARK    4  A    between atoms: C_7  and  C_8
REMARK    5  A    between atoms: C_9  and  C_10
REMARK    6  A    between atoms: C_10  and  C_12
REMARK                            x       y       z     vdW  Elec       q    Type
REMARK                         _______ _______ _______ _____ _____    ______ ____
ROOT
ATOM      1  C   UNL     1       7.635   8.464  17.489  0.00  0.00    +0.000 C 
ATOM      2  C   UNL     1       7.768   7.227  17.985  0.00  0.00    +0.000 C 
ENDROOT
BRANCH   1   6
ATOM      3  C   UNL     1       9.679  11.973  18.993  0.00  0.00    +0.000 A 
ATOM      4  C   UNL     1       8.811  12.014  17.896  0.00  0.00    +0.000 A 
ATOM      5  C   UNL     1       8.146  10.874  17.427  0.00  0.00    +0.000 A 
ATOM      6  C   UNL     1       8.327   9.636  18.044  0.00  0.00    +0.000 A 
ATOM      7  C   UNL     1       9.153   9.580  19.168  0.00  0.00    +0.000 A 
ATOM      8  C   UNL     1       9.816  10.726  19.625  0.00  0.00    +0.000 A 
BRANCH   3  10
ATOM      9  C   UNL     1      11.672  12.977  20.063  0.00  0.00    +0.000 C 
ATOM     10  N   UNL     1      10.357  13.104  19.446  0.00  0.00    +0.000 N 
ATOM     11  C   UNL     1       9.618  14.340  19.668  0.00  0.00    +0.000 C 
ENDBRANCH   3  10
ENDBRANCH   1   6
BRANCH   2  12
ATOM     12  C   UNL     1       7.129   6.045  17.331  0.00  0.00    +0.000 C 
ATOM     13  O   UNL     1       7.658   5.516  16.355  0.00  0.00    +0.000 OA
BRANCH  12  14
ATOM     14  C   UNL     1       5.901   5.576  17.958  0.00  0.00    +0.000 A 
ATOM     15  C   UNL     1       5.598   5.457  19.305  0.00  0.00    +0.000 A 
ATOM     16  C   UNL     1       4.306   4.890  19.527  0.00  0.00    +0.000 A 
ATOM     17  C   UNL     1       3.685   4.611  18.334  0.00  0.00    +0.000 A 
ATOM     18  I   UNL     1       1.836   3.730  18.194  0.00  0.00    +0.000 I 
ATOM     19  S   UNL     1       4.595   5.058  16.976  0.00  0.00    +0.000 S 
ENDBRANCH  12  14
ENDBRANCH   2  12
TORSDOF 4
ENDMDL
MODEL 8
REMARK VINA RESULT:      -6.5      1.155      1.735
REMARK  Name = 
REMARK  6 active torsions:
REMARK  status: ('A' for Active; 'I' for Inactive)
REMARK    1  A    between atoms: C_1  and  N_2
REMARK    2  A    between atoms: N_2  and  C_3
REMARK    3  A    between atoms: N_2  and  C_4
REMARK    4  A    between atoms: C_7  and  C_8
REMARK    5  A    between atoms: C_9  and  C_10
REMARK    6  A    between atoms: C_10  and  C_12
REMARK                            x       y       z     vdW  Elec       q    Type
REMARK                         _______ _______ _______ _____ _____    ______ ____
ROOT
ATOM      1  C   UNL     1       7.695   8.304  17.564  0.00  0.00    +0.000 C 
ATOM      2  C   UNL     1       7.748   7.090  18.129  0.00  0.00    +0.000 C 
ENDROOT
BRANCH   1   6
ATOM      3  C   UNL     1       9.635  11.737  19.353  0.00  0.00    +0.000 A 
ATOM      4  C   UNL     1       9.664  10.463  19.934  0.00  0.00    +0.000 A 
ATOM      5  C   UNL     1       9.042   9.358  19.338  0.00  0.00    +0.000 A 
ATOM      6  C   UNL     1       8.362   9.486  18.127  0.00  0.00    +0.000 A 
ATOM      7  C   UNL     1       8.358  10.738  17.508  0.00  0.00    +0.000 A 
ATOM      8  C   UNL     1       8.979  11.837  18.116  0.00  0.00    +0.000 A 
BRANCH   3  10
ATOM      9  C   UNL     1       9.419  13.852  20.620  0.00  0.00    +0.000 C 
ATOM     10  N   UNL     1      10.235  12.841  19.958  0.00  0.00    +0.000 N 
ATOM     11  C   UNL     1      11.603  13.197  19.602  0.00  0.00    +0.000 C 
ENDBRANCH   3  10
ENDBRANCH   1   6
BRANCH   2  12
ATOM     12  C   UNL     1       7.142   5.892  17.473  0.00  0.00    +0.000 C 
ATOM     13  O   UNL     1       7.828   5.166  16.754  0.00  0.00    +0.000 OA
BRANCH  12  14
ATOM     14  C   UNL     1       5.742   5.652  17.787  0.00  0.00    +0.000 A 
ATOM     15  C   UNL     1       4.629   5.774  16.970  0.00  0.00    +0.000 A 
ATOM     16  C   UNL     1       3.408   5.516  17.665  0.00  0.00    +0.000 A 
ATOM     17  C   UNL     1       3.653   5.201  18.980  0.00  0.00    +0.000 A 
ATOM     18  I   UNL     1       2.175   4.818  20.352  0.00  0.00    +0.000 I 
ATOM     19  S   UNL     1       5.302   5.166  19.371  0.00  0.00    +0.000 S 
ENDBRANCH  12  14
ENDBRANCH   2  12
TORSDOF 4
ENDMDL
MODEL 9
REMARK VINA RESULT:      -6.5      6.128      7.127
REMARK  Name = 
REMARK  6 active torsions:
REMARK  status: ('A' for Active; 'I' for Inactive)
REMARK    1  A    between atoms: C_1  and  N_2
REMARK    2  A    between atoms: N_2  and  C_3
REMARK    3  A    between atoms: N_2  and  C_4
REMARK    4  A    between atoms: C_7  and  C_8
REMARK    5  A    between atoms: C_9  and  C_10
REMARK    6  A    between atoms: C_10  and  C_12
REMARK                            x       y       z     vdW  Elec       q    Type
REMARK                         _______ _______ _______ _____ _____    ______ ____
ROOT
ATOM      1  C   UNL     1       3.326   6.104  18.544  0.00  0.00    +0.000 C 
ATOM      2  C   UNL     1       4.093   5.468  19.440  0.00  0.00    +0.000 C 
ENDROOT
BRANCH   1   6
ATOM      3  C   UNL     1       1.016   9.663  19.403  0.00  0.00    +0.000 A 
ATOM      4  C   UNL     1       1.534   9.386  18.132  0.00  0.00    +0.000 A 
ATOM      5  C   UNL     1       2.270   8.223  17.865  0.00  0.00    +0.000 A 
ATOM      6  C   UNL     1       2.517   7.287  18.868  0.00  0.00    +0.000 A 
ATOM      7  C   UNL     1       1.971   7.521  20.132  0.00  0.00    +0.000 A 
ATOM      8  C   UNL     1       1.241   8.689  20.389  0.00  0.00    +0.000 A 
BRANCH   3  10
ATOM      9  C   UNL     1      -0.573  11.411  18.661  0.00  0.00    +0.000 C 
ATOM     10  N   UNL     1       0.303  10.831  19.673  0.00  0.00    +0.000 N 
ATOM     11  C   UNL     1       0.715  11.680  20.784  0.00  0.00    +0.000 C 
ENDBRANCH   3  10
ENDBRANCH   1   6
BRANCH   2  12
ATOM     12  C   UNL     1       4.979   4.330  19.048  0.00  0.00    +0.000 C 
ATOM     13  O   UNL     1       5.083   3.346  19.779  0.00  0.00    +0.000 OA
BRANCH  12  14
ATOM     14  C   UNL     1       5.641   4.472  17.760  0.00  0.00    +0.000 A 
ATOM     15  C   UNL     1       6.766   5.211  17.431  0.00  0.00    +0.000 A 
ATOM     16  C   UNL     1       7.072   5.153  16.038  0.00  0.00    +0.000 A 
ATOM     17  C   UNL     1       6.167   4.363  15.372  0.00  0.00    +0.000 A 
ATOM     18  I   UNL     1       6.201   4.055  13.343  0.00  0.00    +0.000 I 
ATOM     19  S   UNL     1       5.004   3.664  16.388  0.00  0.00    +0.000 S 
ENDBRANCH  12  14
ENDBRANCH   2  12
TORSDOF 4
ENDMDL
