MODEL 1
REMARK VINA RESULT:      -7.7      0.000      0.000
REMARK  Name = 
REMARK  6 active torsions:
REMARK  status: ('A' for Active; 'I' for Inactive)
REMARK    1  A    between atoms: C_5  and  C_6
REMARK    2  A    between atoms: C_6  and  C_7
REMARK    3  A    between atoms: C_7  and  C_8
REMARK    4  A    between atoms: C_8  and  C_9
REMARK    5  A    between atoms: C_9  and  N_10
REMARK    6  A    between atoms: N_13  and  C_14
REMARK                            x       y       z     vdW  Elec       q    Type
REMARK                         _______ _______ _______ _____ _____    ______ ____
ROOT
ATOM      1  N   UNL     1       6.454   6.319  17.026  0.00  0.00    +0.000 NA
ATOM      2  C   UNL     1       6.549   5.210  18.008  0.00  0.00    +0.000 C 
ATOM      3  C   UNL     1       5.475   5.265  19.111  0.00  0.00    +0.000 C 
ATOM      4  N   UNL     1       4.131   5.287  18.522  0.00  0.00    +0.000 N 
ATOM      5  C   UNL     1       3.909   6.254  17.428  0.00  0.00    +0.000 C 
ATOM      6  C   UNL     1       5.095   6.254  16.424  0.00  0.00    +0.000 C 
ENDROOT
BRANCH   4   7
ATOM      7  C   UNL     1       3.235   4.259  18.726  0.00  0.00    +0.000 A 
ATOM      8  C   UNL     1       3.529   2.927  18.413  0.00  0.00    +0.000 A 
ATOM      9  C   UNL     1       2.613   1.907  18.663  0.00  0.00    +0.000 A 
ATOM     10  C   UNL     1       1.401   2.240  19.235  0.00  0.00    +0.000 A 
ATOM     11  N   UNL     1       1.050   3.500  19.552  0.00  0.00    +0.000 NA
ATOM     12  C   UNL     1       1.973   4.464  19.295  0.00  0.00    +0.000 A 
ENDBRANCH   4   7
BRANCH   1  13
ATOM     13  C   UNL     1       6.680   7.642  17.632  0.00  0.00    +0.000 C 
BRANCH  13  14
ATOM     14  C   UNL     1       8.162   7.966  17.859  0.00  0.00    +0.000 C 
BRANCH  14  15
ATOM     15  C   UNL     1       8.361   9.475  17.998  0.00  0.00    +0.000 C 
BRANCH  15  16
ATOM     16  C   UNL     1       9.113   9.822  19.282  0.00  0.00    +0.000 C 
BRANCH  16  21
ATOM     17  F   UNL     1      12.326  14.402  18.594  0.00  0.00    +0.000 F 
ATOM     18  C   UNL     1      11.566  13.311  18.759  0.00  0.00    +0.000 A 
ATOM     19  C   UNL     1      11.088  12.636  17.643  0.00  0.00    +0.000 A 
ATOM     20  C   UNL     1      10.291  11.504  17.813  0.00  0.00    +0.000 A 
ATOM     21  C   UNL     1       9.968  11.052  19.102  0.00  0.00    +0.000 A 
ATOM     22  C   UNL     1      10.472  11.739  20.216  0.00  0.00    +0.000 A 
ATOM     23  C   UNL     1      11.268  12.871  20.043  0.00  0.00    +0.000 A 
ENDBRANCH  16  21
ENDBRANCH  15  16
ENDBRANCH  14  15
ENDBRANCH  13  14
ENDBRANCH   1  13
TORSDOF 6
ENDMDL
MODEL 2
REMARK VINA RESULT:      -7.6      0.644      1.194
REMARK  Name = 
REMARK  6 active torsions:
REMARK  status: ('A' for Active; 'I' for Inactive)
REMARK    1  A    between atoms: C_5  and  C_6
REMARK    2  A    between atoms: C_6  and  C_7
REMARK    3  A    between atoms: C_7  and  C_8
REMARK    4  A    between atoms: C_8  and  C_9
REMARK    5  A    between atoms: C_9  and  N_10
REMARK    6  A    between atoms: N_13  and  C_14
REMARK                            x       y       z     vdW  Elec       q    Type
REMARK                         _______ _______ _______ _____ _____    ______ ____
ROOT
ATOM      1  N   UNL     1       6.410   6.712  16.714  0.00  0.00    +0.000 NA
ATOM      2  C   UNL     1       6.803   5.498  17.472  0.00  0.00    +0.000 C 
ATOM      3  C   UNL     1       6.014   5.301  18.780  0.00  0.00    +0.000 C 
ATOM      4  N   UNL     1       4.571   5.269  18.513  0.00  0.00    +0.000 N 
ATOM      5  C   UNL     1       4.038   6.345  17.655  0.00  0.00    +0.000 C 
ATOM      6  C   UNL     1       4.955   6.594  16.424  0.00  0.00    +0.000 C 
ENDROOT
BRANCH   4   7
ATOM      7  C   UNL     1       3.817   4.141  18.753  0.00  0.00    +0.000 A 
ATOM      8  C   UNL     1       3.670   3.115  17.810  0.00  0.00    +0.000 A 
ATOM      9  C   UNL     1       2.927   1.972  18.098  0.00  0.00    +0.000 A 
ATOM     10  C   UNL     1       2.338   1.869  19.342  0.00  0.00    +0.000 A 
ATOM     11  N   UNL     1       2.431   2.819  20.291  0.00  0.00    +0.000 NA
ATOM     12  C   UNL     1       3.166   3.916  19.972  0.00  0.00    +0.000 A 
ENDBRANCH   4   7
BRANCH   1  13
ATOM     13  C   UNL     1       6.684   7.959  17.447  0.00  0.00    +0.000 C 
BRANCH  13  14
ATOM     14  C   UNL     1       8.161   8.137  17.823  0.00  0.00    +0.000 C 
BRANCH  14  15
ATOM     15  C   UNL     1       8.503   9.622  17.946  0.00  0.00    +0.000 C 
BRANCH  15  16
ATOM     16  C   UNL     1       9.350   9.896  19.189  0.00  0.00    +0.000 C 
BRANCH  16  21
ATOM     17  F   UNL     1      12.310  14.661  18.634  0.00  0.00    +0.000 F 
ATOM     18  C   UNL     1      11.603  13.530  18.764  0.00  0.00    +0.000 A 
ATOM     19  C   UNL     1      11.190  13.124  20.026  0.00  0.00    +0.000 A 
ATOM     20  C   UNL     1      10.459  11.944  20.164  0.00  0.00    +0.000 A 
ATOM     21  C   UNL     1      10.148  11.168  19.037  0.00  0.00    +0.000 A 
ATOM     22  C   UNL     1      10.562  11.602  17.769  0.00  0.00    +0.000 A 
ATOM     23  C   UNL     1      11.293  12.782  17.635  0.00  0.00    +0.000 A 
ENDBRANCH  16  21
ENDBRANCH  15  16
ENDBRANCH  14  15
ENDBRANCH  13  14
ENDBRANCH   1  13
TORSDOF 6
ENDMDL
MODEL 3
REMARK VINA RESULT:      -7.5      1.392      1.711
REMARK  Name = 
REMARK  6 active torsions:
REMARK  status: ('A' for Active; 'I' for Inactive)
REMARK    1  A    between atoms: C_5  and  C_6
REMARK    2  A    between atoms: C_6  and  C_7
REMARK    3  A    between atoms: C_7  and  C_8
REMARK    4  A    between atoms: C_8  and  C_9
REMARK    5  A    between atoms: C_9  and  N_10
REMARK    6  A    between atoms: N_13  and  C_14
REMARK                            x       y       z     vdW  Elec       q    Type
REMARK                         _______ _______ _______ _____ _____    ______ ____
ROOT
ATOM      1  N   UNL     1       7.438   6.177  17.133  0.00  0.00    +0.000 NA
ATOM      2  C   UNL     1       7.278   4.808  17.683  0.00  0.00    +0.000 C 
ATOM      3  C   UNL     1       6.248   4.716  18.825  0.00  0.00    +0.000 C 
ATOM      4  N   UNL     1       4.944   5.226  18.387  0.00  0.00    +0.000 N 
ATOM      5  C   UNL     1       4.948   6.531  17.696  0.00  0.00    +0.000 C 
ATOM      6  C   UNL     1       6.100   6.616  16.655  0.00  0.00    +0.000 C 
ENDROOT
BRANCH   4   7
ATOM      7  C   UNL     1       3.836   4.410  18.312  0.00  0.00    +0.000 A 
ATOM      8  C   UNL     1       2.573   4.882  17.933  0.00  0.00    +0.000 A 
ATOM      9  C   UNL     1       1.481   4.023  17.835  0.00  0.00    +0.000 A 
ATOM     10  C   UNL     1       1.672   2.685  18.118  0.00  0.00    +0.000 A 
ATOM     11  N   UNL     1       2.854   2.166  18.496  0.00  0.00    +0.000 NA
ATOM     12  C   UNL     1       3.894   3.037  18.576  0.00  0.00    +0.000 A 
ENDBRANCH   4   7
BRANCH   1  13
ATOM     13  C   UNL     1       7.966   7.134  18.122  0.00  0.00    +0.000 C 
BRANCH  13  14
ATOM     14  C   UNL     1       7.974   8.585  17.626  0.00  0.00    +0.000 C 
BRANCH  14  15
ATOM     15  C   UNL     1       8.610   9.501  18.672  0.00  0.00    +0.000 C 
BRANCH  15  16
ATOM     16  C   UNL     1       9.475  10.578  18.017  0.00  0.00    +0.000 C 
BRANCH  16  21
ATOM     17  F   UNL     1      10.617  14.777  21.600  0.00  0.00    +0.000 F 
ATOM     18  C   UNL     1      10.350  13.777  20.748  0.00  0.00    +0.000 A 
ATOM     19  C   UNL     1      10.105  14.066  19.412  0.00  0.00    +0.000 A 
ATOM     20  C   UNL     1       9.820  13.027  18.526  0.00  0.00    +0.000 A 
ATOM     21  C   UNL     1       9.774  11.700  18.980  0.00  0.00    +0.000 A 
ATOM     22  C   UNL     1      10.038  11.428  20.331  0.00  0.00    +0.000 A 
ATOM     23  C   UNL     1      10.322  12.469  21.215  0.00  0.00    +0.000 A 
ENDBRANCH  16  21
ENDBRANCH  15  16
ENDBRANCH  14  15
ENDBRANCH  13  14
ENDBRANCH   1  13
TORSDOF 6
ENDMDL
MODEL 4
REMARK VINA RESULT:      -7.4      0.680      1.217
REMARK  Name = 
REMARK  6 active torsions:
REMARK  status: ('A' for Active; 'I' for Inactive)
REMARK    1  A    between atoms: C_5  and  C_6
REMARK    2  A    between atoms: C_6  and  C_7
REMARK    3  A    between atoms: C_7  and  C_8
REMARK    4  A    between atoms: C_8  and  C_9
REMARK    5  A    between atoms: C_9  and  N_10
REMARK    6  A    between atoms: N_13  and  C_14
REMARK                            x       y       z     vdW  Elec       q    Type
REMARK                         _______ _______ _______ _____ _____    ______ ____
ROOT
ATOM      1  N   UNL     1       6.451   6.491  16.906  0.00  0.00    +0.000 NA
ATOM      2  C   UNL     1       6.534   5.037  17.188  0.00  0.00    +0.000 C 
ATOM      3  C   UNL     1       5.816   4.615  18.485  0.00  0.00    +0.000 C 
ATOM      4  N   UNL     1       4.409   5.032  18.454  0.00  0.00    +0.000 N 
ATOM      5  C   UNL     1       4.146   6.430  18.058  0.00  0.00    +0.000 C 
ATOM      6  C   UNL     1       5.007   6.841  16.831  0.00  0.00    +0.000 C 
ENDROOT
BRANCH   4   7
ATOM      7  C   UNL     1       3.382   4.112  18.459  0.00  0.00    +0.000 A 
ATOM      8  C   UNL     1       3.462   2.895  19.147  0.00  0.00    +0.000 A 
ATOM      9  C   UNL     1       2.393   2.002  19.159  0.00  0.00    +0.000 A 
ATOM     10  C   UNL     1       1.242   2.347  18.477  0.00  0.00    +0.000 A 
ATOM     11  N   UNL     1       1.102   3.495  17.789  0.00  0.00    +0.000 NA
ATOM     12  C   UNL     1       2.166   4.339  17.805  0.00  0.00    +0.000 A 
ENDBRANCH   4   7
BRANCH   1  13
ATOM     13  C   UNL     1       7.122   7.313  17.928  0.00  0.00    +0.000 C 
BRANCH  13  14
ATOM     14  C   UNL     1       8.213   8.229  17.359  0.00  0.00    +0.000 C 
BRANCH  14  15
ATOM     15  C   UNL     1       8.129   9.616  17.997  0.00  0.00    +0.000 C 
BRANCH  15  16
ATOM     16  C   UNL     1       9.102   9.750  19.167  0.00  0.00    +0.000 C 
BRANCH  16  21
ATOM     17  F   UNL     1      12.292  14.369  18.656  0.00  0.00    +0.000 F 
ATOM     18  C   UNL     1      11.530  13.273  18.776  0.00  0.00    +0.000 A 
ATOM     19  C   UNL     1      11.227  12.788  20.042  0.00  0.00    +0.000 A 
ATOM     20  C   UNL     1      10.440  11.643  20.169  0.00  0.00    +0.000 A 
ATOM     21  C   UNL     1       9.961  10.982  19.027  0.00  0.00    +0.000 A 
ATOM     22  C   UNL     1      10.266  11.497  17.758  0.00  0.00    +0.000 A 
ATOM     23  C   UNL     1      11.055  12.641  17.634  0.00  0.00    +0.000 A 
ENDBRANCH  16  21
ENDBRANCH  15  16
ENDBRANCH  14  15
ENDBRANCH  13  14
ENDBRANCH   1  13
TORSDOF 6
ENDMDL
MODEL 5
REMARK VINA RESULT:      -7.4      5.742      7.575
REMARK  Name = 
REMARK  6 active torsions:
REMARK  status: ('A' for Active; 'I' for Inactive)
REMARK    1  A    between atoms: C_5  and  C_6
REMARK    2  A    between atoms: C_6  and  C_7
REMARK    3  A    between atoms: C_7  and  C_8
REMARK    4  A    between atoms: C_8  and  C_9
REMARK    5  A    between atoms: C_9  and  N_10
REMARK    6  A    between atoms: N_13  and  C_14
REMARK                            x       y       z     vdW  Elec       q    Type
REMARK                         _______ _______ _______ _____ _____    ______ ____
ROOT
ATOM      1  N   UNL     1       2.550   2.014  19.138  0.00  0.00    +0.000 NA
ATOM      2  C   UNL     1       2.304   2.577  17.787  0.00  0.00    +0.000 C 
ATOM      3  C   UNL     1       2.911   3.977  17.579  0.00  0.00    +0.000 C 
ATOM      4  N   UNL     1       4.353   3.960  17.850  0.00  0.00    +0.000 N 
ATOM      5  C   UNL     1       4.778   3.310  19.106  0.00  0.00    +0.000 C 
ATOM      6  C   UNL     1       4.024   1.969  19.331  0.00  0.00    +0.000 C 
ENDROOT
BRANCH   4   7
ATOM      7  C   UNL     1       5.277   4.220  16.861  0.00  0.00    +0.000 A 
ATOM      8  C   UNL     1       4.943   4.245  15.502  0.00  0.00    +0.000 A 
ATOM      9  C   UNL     1       5.895   4.545  14.530  0.00  0.00    +0.000 A 
ATOM     10  C   UNL     1       7.184   4.823  14.938  0.00  0.00    +0.000 A 
ATOM     11  N   UNL     1       7.576   4.808  16.226  0.00  0.00    +0.000 NA
ATOM     12  C   UNL     1       6.617   4.514  17.142  0.00  0.00    +0.000 A 
ENDBRANCH   4   7
BRANCH   1  13
ATOM     13  C   UNL     1       1.920   2.802  20.211  0.00  0.00    +0.000 C 
BRANCH  13  14
ATOM     14  C   UNL     1       1.163   4.035  19.702  0.00  0.00    +0.000 C 
BRANCH  14  15
ATOM     15  C   UNL     1       1.376   5.217  20.649  0.00  0.00    +0.000 C 
BRANCH  15  16
ATOM     16  C   UNL     1       2.535   6.100  20.186  0.00  0.00    +0.000 C 
BRANCH  16  21
ATOM     17  F   UNL     1       0.672  11.117  18.417  0.00  0.00    +0.000 F 
ATOM     18  C   UNL     1       1.112   9.922  18.835  0.00  0.00    +0.000 A 
ATOM     19  C   UNL     1       0.871   9.526  20.145  0.00  0.00    +0.000 A 
ATOM     20  C   UNL     1       1.334   8.285  20.583  0.00  0.00    +0.000 A 
ATOM     21  C   UNL     1       2.043   7.445  19.711  0.00  0.00    +0.000 A 
ATOM     22  C   UNL     1       2.264   7.857  18.389  0.00  0.00    +0.000 A 
ATOM     23  C   UNL     1       1.800   9.098  17.953  0.00  0.00    +0.000 A 
ENDBRANCH  16  21
ENDBRANCH  15  16
ENDBRANCH  14  15
ENDBRANCH  13  14
ENDBRANCH   1  13
TORSDOF 6
ENDMDL
MODEL 6
REMARK VINA RESULT:      -7.4      1.052      1.605
REMARK  Name = 
REMARK  6 active torsions:
REMARK  status: ('A' for Active; 'I' for Inactive)
REMARK    1  A    between atoms: C_5  and  C_6
REMARK    2  A    between atoms: C_6  and  C_7
REMARK    3  A    between atoms: C_7  and  C_8
REMARK    4  A    between atoms: C_8  and  C_9
REMARK    5  A    between atoms: C_9  and  N_10
REMARK    6  A    between atoms: N_13  and  C_14
REMARK                            x       y       z     vdW  Elec       q    Type
REMARK                         _______ _______ _______ _____ _____    ______ ____
ROOT
ATOM      1  N   UNL     1       6.998   5.941  17.117  0.00  0.00    +0.000 NA
ATOM      2  C   UNL     1       6.822   4.691  17.897  0.00  0.00    +0.000 C 
ATOM      3  C   UNL     1       5.862   4.836  19.093  0.00  0.00    +0.000 C 
ATOM      4  N   UNL     1       4.552   5.326  18.648  0.00  0.00    +0.000 N 
ATOM      5  C   UNL     1       4.561   6.498  17.748  0.00  0.00    +0.000 C 
ATOM      6  C   UNL     1       5.649   6.356  16.647  0.00  0.00    +0.000 C 
ENDROOT
BRANCH   4   7
ATOM      7  C   UNL     1       3.413   4.561  18.772  0.00  0.00    +0.000 A 
ATOM      8  C   UNL     1       2.740   4.400  19.989  0.00  0.00    +0.000 A 
ATOM      9  C   UNL     1       1.571   3.646  20.073  0.00  0.00    +0.000 A 
ATOM     10  C   UNL     1       1.085   3.060  18.922  0.00  0.00    +0.000 A 
ATOM     11  N   UNL     1       1.686   3.166  17.722  0.00  0.00    +0.000 NA
ATOM     12  C   UNL     1       2.821   3.912  17.683  0.00  0.00    +0.000 A 
ENDBRANCH   4   7
BRANCH   1  13
ATOM     13  C   UNL     1       7.619   7.023  17.901  0.00  0.00    +0.000 C 
BRANCH  13  14
ATOM     14  C   UNL     1       7.210   8.427  17.439  0.00  0.00    +0.000 C 
BRANCH  14  15
ATOM     15  C   UNL     1       8.368   9.407  17.627  0.00  0.00    +0.000 C 
BRANCH  15  16
ATOM     16  C   UNL     1       8.924   9.346  19.050  0.00  0.00    +0.000 C 
BRANCH  16  21
ATOM     17  F   UNL     1      11.467  14.175  20.457  0.00  0.00    +0.000 F 
ATOM     18  C   UNL     1      10.860  13.029  20.120  0.00  0.00    +0.000 A 
ATOM     19  C   UNL     1      10.116  12.345  21.073  0.00  0.00    +0.000 A 
ATOM     20  C   UNL     1       9.488  11.149  20.725  0.00  0.00    +0.000 A 
ATOM     21  C   UNL     1       9.611  10.635  19.425  0.00  0.00    +0.000 A 
ATOM     22  C   UNL     1      10.356  11.349  18.473  0.00  0.00    +0.000 A 
ATOM     23  C   UNL     1      10.983  12.544  18.824  0.00  0.00    +0.000 A 
ENDBRANCH  16  21
ENDBRANCH  15  16
ENDBRANCH  14  15
ENDBRANCH  13  14
ENDBRANCH   1  13
TORSDOF 6
ENDMDL
MODEL 7
REMARK VINA RESULT:      -7.3      1.269      1.559
REMARK  Name = 
REMARK  6 active torsions:
REMARK  status: ('A' for Active; 'I' for Inactive)
REMARK    1  A    between atoms: C_5  and  C_6
REMARK    2  A    between atoms: C_6  and  C_7
REMARK    3  A    between atoms: C_7  and  C_8
REMARK    4  A    between atoms: C_8  and  C_9
REMARK    5  A    between atoms: C_9  and  N_10
REMARK    6  A    between atoms: N_13  and  C_14
REMARK                            x       y       z     vdW  Elec       q    Type
REMARK                         _______ _______ _______ _____ _____    ______ ____
ROOT
ATOM      1  N   UNL     1       6.656   6.355  16.627  0.00  0.00    +0.000 NA
ATOM      2  C   UNL     1       6.649   4.877  16.758  0.00  0.00    +0.000 C 
ATOM      3  C   UNL     1       6.092   4.376  18.104  0.00  0.00    +0.000 C 
ATOM      4  N   UNL     1       4.738   4.896  18.327  0.00  0.00    +0.000 N 
ATOM      5  C   UNL     1       4.546   6.344  18.107  0.00  0.00    +0.000 C 
ATOM      6  C   UNL     1       5.253   6.816  16.806  0.00  0.00    +0.000 C 
ENDROOT
BRANCH   4   7
ATOM      7  C   UNL     1       3.646   4.059  18.404  0.00  0.00    +0.000 A 
ATOM      8  C   UNL     1       2.347   4.482  18.096  0.00  0.00    +0.000 A 
ATOM      9  C   UNL     1       1.269   3.601  18.152  0.00  0.00    +0.000 A 
ATOM     10  C   UNL     1       1.511   2.291  18.516  0.00  0.00    +0.000 A 
ATOM     11  N   UNL     1       2.731   1.821  18.833  0.00  0.00    +0.000 NA
ATOM     12  C   UNL     1       3.755   2.711  18.764  0.00  0.00    +0.000 A 
ENDBRANCH   4   7
BRANCH   1  13
ATOM     13  C   UNL     1       7.537   7.014  17.606  0.00  0.00    +0.000 C 
BRANCH  13  14
ATOM     14  C   UNL     1       7.348   8.534  17.676  0.00  0.00    +0.000 C 
BRANCH  14  15
ATOM     15  C   UNL     1       8.697   9.244  17.561  0.00  0.00    +0.000 C 
BRANCH  15  16
ATOM     16  C   UNL     1       8.931  10.190  18.738  0.00  0.00    +0.000 C 
BRANCH  16  21
ATOM     17  F   UNL     1      11.308  15.020  17.064  0.00  0.00    +0.000 F 
ATOM     18  C   UNL     1      10.743  13.873  17.466  0.00  0.00    +0.000 A 
ATOM     19  C   UNL     1      11.497  12.706  17.475  0.00  0.00    +0.000 A 
ATOM     20  C   UNL     1      10.908  11.511  17.887  0.00  0.00    +0.000 A 
ATOM     21  C   UNL     1       9.562  11.483  18.284  0.00  0.00    +0.000 A 
ATOM     22  C   UNL     1       8.822  12.675  18.281  0.00  0.00    +0.000 A 
ATOM     23  C   UNL     1       9.413  13.869  17.868  0.00  0.00    +0.000 A 
ENDBRANCH  16  21
ENDBRANCH  15  16
ENDBRANCH  14  15
ENDBRANCH  13  14
ENDBRANCH   1  13
TORSDOF 6
ENDMDL
MODEL 8
REMARK VINA RESULT:      -7.3      1.138      1.333
REMARK  Name = 
REMARK  6 active torsions:
REMARK  status: ('A' for Active; 'I' for Inactive)
REMARK    1  A    between atoms: C_5  and  C_6
REMARK    2  A    between atoms: C_6  and  C_7
REMARK    3  A    between atoms: C_7  and  C_8
REMARK    4  A    between atoms: C_8  and  C_9
REMARK    5  A    between atoms: C_9  and  N_10
REMARK    6  A    between atoms: N_13  and  C_14
REMARK                            x       y       z     vdW  Elec       q    Type
REMARK                         _______ _______ _______ _____ _____    ______ ____
ROOT
ATOM      1  N   UNL     1       7.178   6.360  16.729  0.00  0.00    +0.000 NA
ATOM      2  C   UNL     1       7.172   5.220  17.679  0.00  0.00    +0.000 C 
ATOM      3  C   UNL     1       6.003   5.255  18.681  0.00  0.00    +0.000 C 
ATOM      4  N   UNL     1       4.718   5.313  17.974  0.00  0.00    +0.000 N 
ATOM      5  C   UNL     1       4.606   6.316  16.896  0.00  0.00    +0.000 C 
ATOM      6  C   UNL     1       5.879   6.331  16.004  0.00  0.00    +0.000 C 
ENDROOT
BRANCH   4   7
ATOM      7  C   UNL     1       3.797   4.291  18.063  0.00  0.00    +0.000 A 
ATOM      8  C   UNL     1       4.113   3.033  18.591  0.00  0.00    +0.000 A 
ATOM      9  C   UNL     1       3.148   2.033  18.698  0.00  0.00    +0.000 A 
ATOM     10  C   UNL     1       1.865   2.312  18.273  0.00  0.00    +0.000 A 
ATOM     11  N   UNL     1       1.495   3.495  17.749  0.00  0.00    +0.000 NA
ATOM     12  C   UNL     1       2.464   4.444  17.664  0.00  0.00    +0.000 A 
ENDBRANCH   4   7
BRANCH   1  13
ATOM     13  C   UNL     1       7.362   7.661  17.394  0.00  0.00    +0.000 C 
BRANCH  13  14
ATOM     14  C   UNL     1       8.342   7.613  18.573  0.00  0.00    +0.000 C 
BRANCH  14  15
ATOM     15  C   UNL     1       8.869   9.013  18.884  0.00  0.00    +0.000 C 
BRANCH  15  16
ATOM     16  C   UNL     1       8.359  10.038  17.871  0.00  0.00    +0.000 C 
BRANCH  16  21
ATOM     17  F   UNL     1      11.482  14.730  17.916  0.00  0.00    +0.000 F 
ATOM     18  C   UNL     1      10.740  13.614  17.901  0.00  0.00    +0.000 A 
ATOM     19  C   UNL     1       9.357  13.713  17.823  0.00  0.00    +0.000 A 
ATOM     20  C   UNL     1       8.584  12.552  17.815  0.00  0.00    +0.000 A 
ATOM     21  C   UNL     1       9.197  11.292  17.890  0.00  0.00    +0.000 A 
ATOM     22  C   UNL     1      10.597  11.212  17.954  0.00  0.00    +0.000 A 
ATOM     23  C   UNL     1      11.367  12.375  17.963  0.00  0.00    +0.000 A 
ENDBRANCH  16  21
ENDBRANCH  15  16
ENDBRANCH  14  15
ENDBRANCH  13  14
ENDBRANCH   1  13
TORSDOF 6
ENDMDL
MODEL 9
REMARK VINA RESULT:      -7.2      5.592      8.180
REMARK  Name = 
REMARK  6 active torsions:
REMARK  status: ('A' for Active; 'I' for Inactive)
REMARK    1  A    between atoms: C_5  and  C_6
REMARK    2  A    between atoms: C_6  and  C_7
REMARK    3  A    between atoms: C_7  and  C_8
REMARK    4  A    between atoms: C_8  and  C_9
REMARK    5  A    between atoms: C_9  and  N_10
REMARK    6  A    between atoms: N_13  and  C_14
REMARK                            x       y       z     vdW  Elec       q    Type
REMARK                         _______ _______ _______ _____ _____    ______ ____
ROOT
ATOM      1  N   UNL     1       2.476   3.740  19.311  0.00  0.00    +0.000 NA
ATOM      2  C   UNL     1       2.301   4.512  18.056  0.00  0.00    +0.000 C 
ATOM      3  C   UNL     1       3.417   5.544  17.803  0.00  0.00    +0.000 C 
ATOM      4  N   UNL     1       4.732   4.891  17.801  0.00  0.00    +0.000 N 
ATOM      5  C   UNL     1       5.013   3.977  18.927  0.00  0.00    +0.000 C 
ATOM      6  C   UNL     1       3.795   3.059  19.226  0.00  0.00    +0.000 C 
ENDROOT
BRANCH   4   7
ATOM      7  C   UNL     1       5.521   4.857  16.672  0.00  0.00    +0.000 A 
ATOM      8  C   UNL     1       5.197   4.089  15.547  0.00  0.00    +0.000 A 
ATOM      9  C   UNL     1       5.999   4.103  14.408  0.00  0.00    +0.000 A 
ATOM     10  C   UNL     1       7.127   4.899  14.410  0.00  0.00    +0.000 A 
ATOM     11  N   UNL     1       7.502   5.655  15.459  0.00  0.00    +0.000 NA
ATOM     12  C   UNL     1       6.691   5.615  16.548  0.00  0.00    +0.000 A 
ENDBRANCH   4   7
BRANCH   1  13
ATOM     13  C   UNL     1       2.414   4.585  20.517  0.00  0.00    +0.000 C 
BRANCH  13  14
ATOM     14  C   UNL     1       1.323   5.660  20.457  0.00  0.00    +0.000 C 
BRANCH  14  15
ATOM     15  C   UNL     1       1.878   7.008  20.918  0.00  0.00    +0.000 C 
BRANCH  15  16
ATOM     16  C   UNL     1       1.291   8.160  20.103  0.00  0.00    +0.000 C 
BRANCH  16  21
ATOM     17  F   UNL     1      -1.510  11.787  23.384  0.00  0.00    +0.000 F 
ATOM     18  C   UNL     1      -0.840  10.926  22.606  0.00  0.00    +0.000 A 
ATOM     19  C   UNL     1      -0.717  11.187  21.247  0.00  0.00    +0.000 A 
ATOM     20  C   UNL     1      -0.026  10.288  20.435  0.00  0.00    +0.000 A 
ATOM     21  C   UNL     1       0.536   9.125  20.983  0.00  0.00    +0.000 A 
ATOM     22  C   UNL     1       0.413   8.887  22.360  0.00  0.00    +0.000 A 
ATOM     23  C   UNL     1      -0.279   9.787  23.170  0.00  0.00    +0.000 A 
ENDBRANCH  16  21
ENDBRANCH  15  16
ENDBRANCH  14  15
ENDBRANCH  13  14
ENDBRANCH   1  13
TORSDOF 6
ENDMDL
