MODEL 1
REMARK VINA RESULT:      -7.6      0.000      0.000
REMARK  Name = 
REMARK  6 active torsions:
REMARK  status: ('A' for Active; 'I' for Inactive)
REMARK    1  A    between atoms: C_2  and  C_3
REMARK    2  A    between atoms: C_9  and  O_10
REMARK    3  A    between atoms: O_10  and  C_11
REMARK    4  A    between atoms: C_11  and  C_12
REMARK    5  A    between atoms: N_14  and  C_15
REMARK    6  A    between atoms: C_15  and  C_16
REMARK                            x       y       z     vdW  Elec       q    Type
REMARK                         _______ _______ _______ _____ _____    ______ ____
ROOT
ATOM      1  C   UNL     1       6.371   4.525  16.110  0.00  0.00    +0.000 A 
ATOM      2  C   UNL     1       6.192   4.046  14.830  0.00  0.00    +0.000 A 
ATOM      3  N   UNL     1       7.080   4.765  14.086  0.00  0.00    +0.000 N 
ATOM      4  N   UNL     1       7.750   5.647  14.852  0.00  0.00    +0.000 NA
ATOM      5  N   UNL     1       7.328   5.500  16.101  0.00  0.00    +0.000 NA
ENDROOT
BRANCH   1   6
ATOM      6  C   UNL     1       5.603   4.197  17.332  0.00  0.00    +0.000 C 
BRANCH   6   7
ATOM      7  O   UNL     1       4.676   3.105  17.145  0.00  0.00    +0.000 OA
BRANCH   7  14
ATOM      8  C   UNL     1       3.389   2.408  19.088  0.00  0.00    +0.000 A 
ATOM      9  C   UNL     1       2.200   2.475  19.835  0.00  0.00    +0.000 A 
ATOM     10  C   UNL     1       1.184   3.331  19.439  0.00  0.00    +0.000 A 
ATOM     11  F   UNL     1       0.064   3.421  20.170  0.00  0.00    +0.000 F 
ATOM     12  C   UNL     1       1.313   4.116  18.312  0.00  0.00    +0.000 A 
ATOM     13  C   UNL     1       2.469   4.017  17.542  0.00  0.00    +0.000 A 
ATOM     14  C   UNL     1       3.536   3.184  17.912  0.00  0.00    +0.000 A 
BRANCH   8  16
ATOM     15  O   UNL     1       5.138   1.874  20.600  0.00  0.00    +0.000 OA
ATOM     16  C   UNL     1       4.452   1.530  19.649  0.00  0.00    +0.000 C 
ENDBRANCH   8  16
ENDBRANCH   7  14
ENDBRANCH   6   7
ENDBRANCH   1   6
BRANCH   3  17
ATOM     17  C   UNL     1       7.225   4.783  12.645  0.00  0.00    +0.000 C 
BRANCH  17  18
ATOM     18  C   UNL     1       6.672   3.541  11.995  0.00  0.00    +0.000 A 
ATOM     19  C   UNL     1       7.529   2.503  11.599  0.00  0.00    +0.000 A 
ATOM     20  C   UNL     1       7.011   1.322  11.064  0.00  0.00    +0.000 A 
ATOM     21  C   UNL     1       5.633   1.162  10.929  0.00  0.00    +0.000 A 
ATOM     22  C   UNL     1       4.772   2.187  11.312  0.00  0.00    +0.000 A 
ATOM     23  C   UNL     1       5.288   3.373  11.835  0.00  0.00    +0.000 A 
ENDBRANCH  17  18
ENDBRANCH   3  17
TORSDOF 6
ENDMDL
MODEL 2
REMARK VINA RESULT:      -7.5      0.897      1.348
REMARK  Name = 
REMARK  6 active torsions:
REMARK  status: ('A' for Active; 'I' for Inactive)
REMARK    1  A    between atoms: C_2  and  C_3
REMARK    2  A    between atoms: C_9  and  O_10
REMARK    3  A    between atoms: O_10  and  C_11
REMARK    4  A    between atoms: C_11  and  C_12
REMARK    5  A    between atoms: N_14  and  C_15
REMARK    6  A    between atoms: C_15  and  C_16
REMARK                            x       y       z     vdW  Elec       q    Type
REMARK                         _______ _______ _______ _____ _____    ______ ____
ROOT
ATOM      1  C   UNL     1       5.951   5.499  15.922  0.00  0.00    +0.000 A 
ATOM      2  C   UNL     1       5.696   5.100  14.627  0.00  0.00    +0.000 A 
ATOM      3  N   UNL     1       6.926   5.096  14.040  0.00  0.00    +0.000 N 
ATOM      4  N   UNL     1       7.878   5.488  14.909  0.00  0.00    +0.000 NA
ATOM      5  N   UNL     1       7.289   5.729  16.072  0.00  0.00    +0.000 NA
ENDROOT
BRANCH   1   6
ATOM      6  C   UNL     1       4.983   5.792  17.003  0.00  0.00    +0.000 C 
BRANCH   6   7
ATOM      7  O   UNL     1       4.997   4.806  18.061  0.00  0.00    +0.000 OA
BRANCH   7  14
ATOM      8  C   UNL     1       3.687   3.078  19.164  0.00  0.00    +0.000 A 
ATOM      9  C   UNL     1       2.460   2.411  19.322  0.00  0.00    +0.000 A 
ATOM     10  C   UNL     1       1.346   2.840  18.617  0.00  0.00    +0.000 A 
ATOM     11  F   UNL     1       0.168   2.226  18.793  0.00  0.00    +0.000 F 
ATOM     12  C   UNL     1       1.420   3.911  17.750  0.00  0.00    +0.000 A 
ATOM     13  C   UNL     1       2.645   4.544  17.554  0.00  0.00    +0.000 A 
ATOM     14  C   UNL     1       3.797   4.164  18.260  0.00  0.00    +0.000 A 
BRANCH   8  16
ATOM     15  O   UNL     1       4.970   1.413  20.265  0.00  0.00    +0.000 OA
ATOM     16  C   UNL     1       4.796   2.600  20.034  0.00  0.00    +0.000 C 
ENDBRANCH   8  16
ENDBRANCH   7  14
ENDBRANCH   6   7
ENDBRANCH   1   6
BRANCH   3  17
ATOM     17  C   UNL     1       7.245   4.896  12.641  0.00  0.00    +0.000 C 
BRANCH  17  18
ATOM     18  C   UNL     1       6.700   3.596  12.107  0.00  0.00    +0.000 A 
ATOM     19  C   UNL     1       5.316   3.404  11.981  0.00  0.00    +0.000 A 
ATOM     20  C   UNL     1       4.812   2.230  11.417  0.00  0.00    +0.000 A 
ATOM     21  C   UNL     1       5.685   1.242  10.965  0.00  0.00    +0.000 A 
ATOM     22  C   UNL     1       7.061   1.418  11.091  0.00  0.00    +0.000 A 
ATOM     23  C   UNL     1       7.566   2.585  11.665  0.00  0.00    +0.000 A 
ENDBRANCH  17  18
ENDBRANCH   3  17
TORSDOF 6
ENDMDL
MODEL 3
REMARK VINA RESULT:      -7.4      1.501      2.049
REMARK  Name = 
REMARK  6 active torsions:
REMARK  status: ('A' for Active; 'I' for Inactive)
REMARK    1  A    between atoms: C_2  and  C_3
REMARK    2  A    between atoms: C_9  and  O_10
REMARK    3  A    between atoms: O_10  and  C_11
REMARK    4  A    between atoms: C_11  and  C_12
REMARK    5  A    between atoms: N_14  and  C_15
REMARK    6  A    between atoms: C_15  and  C_16
REMARK                            x       y       z     vdW  Elec       q    Type
REMARK                         _______ _______ _______ _____ _____    ______ ____
ROOT
ATOM      1  C   UNL     1       6.009   4.444  16.489  0.00  0.00    +0.000 A 
ATOM      2  C   UNL     1       5.634   4.390  15.163  0.00  0.00    +0.000 A 
ATOM      3  N   UNL     1       6.791   4.644  14.487  0.00  0.00    +0.000 N 
ATOM      4  N   UNL     1       7.811   4.862  15.340  0.00  0.00    +0.000 NA
ATOM      5  N   UNL     1       7.342   4.732  16.573  0.00  0.00    +0.000 NA
ENDROOT
BRANCH   1   6
ATOM      6  C   UNL     1       5.152   4.355  17.693  0.00  0.00    +0.000 C 
BRANCH   6   7
ATOM      7  O   UNL     1       3.751   4.187  17.382  0.00  0.00    +0.000 OA
BRANCH   7  14
ATOM      8  C   UNL     1       2.335   4.805  19.261  0.00  0.00    +0.000 A 
ATOM      9  C   UNL     1       1.570   4.416  20.375  0.00  0.00    +0.000 A 
ATOM     10  C   UNL     1       1.405   3.070  20.661  0.00  0.00    +0.000 A 
ATOM     11  F   UNL     1       0.649   2.698  21.703  0.00  0.00    +0.000 F 
ATOM     12  C   UNL     1       1.989   2.098  19.876  0.00  0.00    +0.000 A 
ATOM     13  C   UNL     1       2.787   2.479  18.801  0.00  0.00    +0.000 A 
ATOM     14  C   UNL     1       2.966   3.827  18.453  0.00  0.00    +0.000 A 
BRANCH   8  16
ATOM     15  O   UNL     1       2.398   7.094  19.885  0.00  0.00    +0.000 OA
ATOM     16  C   UNL     1       2.373   6.267  18.985  0.00  0.00    +0.000 C 
ENDBRANCH   8  16
ENDBRANCH   7  14
ENDBRANCH   6   7
ENDBRANCH   1   6
BRANCH   3  17
ATOM     17  C   UNL     1       6.963   4.855  13.065  0.00  0.00    +0.000 C 
BRANCH  17  18
ATOM     18  C   UNL     1       6.567   3.649  12.252  0.00  0.00    +0.000 A 
ATOM     19  C   UNL     1       7.545   2.780  11.746  0.00  0.00    +0.000 A 
ATOM     20  C   UNL     1       7.176   1.623  11.056  0.00  0.00    +0.000 A 
ATOM     21  C   UNL     1       5.829   1.319  10.874  0.00  0.00    +0.000 A 
ATOM     22  C   UNL     1       4.848   2.177  11.365  0.00  0.00    +0.000 A 
ATOM     23  C   UNL     1       5.214   3.339  12.043  0.00  0.00    +0.000 A 
ENDBRANCH  17  18
ENDBRANCH   3  17
TORSDOF 6
ENDMDL
MODEL 4
REMARK VINA RESULT:      -7.4      1.440      2.288
REMARK  Name = 
REMARK  6 active torsions:
REMARK  status: ('A' for Active; 'I' for Inactive)
REMARK    1  A    between atoms: C_2  and  C_3
REMARK    2  A    between atoms: C_9  and  O_10
REMARK    3  A    between atoms: O_10  and  C_11
REMARK    4  A    between atoms: C_11  and  C_12
REMARK    5  A    between atoms: N_14  and  C_15
REMARK    6  A    between atoms: C_15  and  C_16
REMARK                            x       y       z     vdW  Elec       q    Type
REMARK                         _______ _______ _______ _____ _____    ______ ____
ROOT
ATOM      1  C   UNL     1       6.142   4.723  16.294  0.00  0.00    +0.000 A 
ATOM      2  C   UNL     1       6.001   4.183  15.033  0.00  0.00    +0.000 A 
ATOM      3  N   UNL     1       6.976   4.800  14.305  0.00  0.00    +0.000 N 
ATOM      4  N   UNL     1       7.660   5.679  15.061  0.00  0.00    +0.000 NA
ATOM      5  N   UNL     1       7.161   5.633  16.288  0.00  0.00    +0.000 NA
ENDROOT
BRANCH   1   6
ATOM      6  C   UNL     1       5.288   4.515  17.485  0.00  0.00    +0.000 C 
BRANCH   6   7
ATOM      7  O   UNL     1       3.878   4.460  17.170  0.00  0.00    +0.000 OA
BRANCH   7  14
ATOM      8  C   UNL     1       2.593   4.985  19.168  0.00  0.00    +0.000 A 
ATOM      9  C   UNL     1       1.806   4.545  20.247  0.00  0.00    +0.000 A 
ATOM     10  C   UNL     1       1.473   3.203  20.355  0.00  0.00    +0.000 A 
ATOM     11  F   UNL     1       0.696   2.788  21.364  0.00  0.00    +0.000 F 
ATOM     12  C   UNL     1       1.909   2.284  19.424  0.00  0.00    +0.000 A 
ATOM     13  C   UNL     1       2.728   2.707  18.380  0.00  0.00    +0.000 A 
ATOM     14  C   UNL     1       3.075   4.057  18.212  0.00  0.00    +0.000 A 
BRANCH   8  16
ATOM     15  O   UNL     1       2.295   7.143  18.227  0.00  0.00    +0.000 OA
ATOM     16  C   UNL     1       2.815   6.454  19.092  0.00  0.00    +0.000 C 
ENDBRANCH   8  16
ENDBRANCH   7  14
ENDBRANCH   6   7
ENDBRANCH   1   6
BRANCH   3  17
ATOM     17  C   UNL     1       7.201   4.726  12.876  0.00  0.00    +0.000 C 
BRANCH  17  18
ATOM     18  C   UNL     1       6.423   3.611  12.227  0.00  0.00    +0.000 A 
ATOM     19  C   UNL     1       5.045   3.746  11.996  0.00  0.00    +0.000 A 
ATOM     20  C   UNL     1       4.337   2.744  11.328  0.00  0.00    +0.000 A 
ATOM     21  C   UNL     1       4.999   1.604  10.876  0.00  0.00    +0.000 A 
ATOM     22  C   UNL     1       6.365   1.455  11.105  0.00  0.00    +0.000 A 
ATOM     23  C   UNL     1       7.071   2.448  11.784  0.00  0.00    +0.000 A 
ENDBRANCH  17  18
ENDBRANCH   3  17
TORSDOF 6
ENDMDL
MODEL 5
REMARK VINA RESULT:      -7.4      1.356      1.488
REMARK  Name = 
REMARK  6 active torsions:
REMARK  status: ('A' for Active; 'I' for Inactive)
REMARK    1  A    between atoms: C_2  and  C_3
REMARK    2  A    between atoms: C_9  and  O_10
REMARK    3  A    between atoms: O_10  and  C_11
REMARK    4  A    between atoms: C_11  and  C_12
REMARK    5  A    between atoms: N_14  and  C_15
REMARK    6  A    between atoms: C_15  and  C_16
REMARK                            x       y       z     vdW  Elec       q    Type
REMARK                         _______ _______ _______ _____ _____    ______ ____
ROOT
ATOM      1  C   UNL     1       6.451   4.510  16.131  0.00  0.00    +0.000 A 
ATOM      2  C   UNL     1       6.405   3.964  14.865  0.00  0.00    +0.000 A 
ATOM      3  N   UNL     1       7.212   4.781  14.130  0.00  0.00    +0.000 N 
ATOM      4  N   UNL     1       7.709   5.778  14.886  0.00  0.00    +0.000 NA
ATOM      5  N   UNL     1       7.254   5.615  16.121  0.00  0.00    +0.000 NA
ENDROOT
BRANCH   1   6
ATOM      6  C   UNL     1       5.683   4.115  17.333  0.00  0.00    +0.000 C 
BRANCH   6   7
ATOM      7  O   UNL     1       4.262   4.006  17.089  0.00  0.00    +0.000 OA
BRANCH   7  14
ATOM      8  C   UNL     1       2.533   3.685  18.770  0.00  0.00    +0.000 A 
ATOM      9  C   UNL     1       1.705   4.227  19.768  0.00  0.00    +0.000 A 
ATOM     10  C   UNL     1       1.832   5.563  20.118  0.00  0.00    +0.000 A 
ATOM     11  F   UNL     1       1.067   6.072  21.094  0.00  0.00    +0.000 F 
ATOM     12  C   UNL     1       2.754   6.378  19.495  0.00  0.00    +0.000 A 
ATOM     13  C   UNL     1       3.542   5.857  18.472  0.00  0.00    +0.000 A 
ATOM     14  C   UNL     1       3.470   4.507  18.096  0.00  0.00    +0.000 A 
BRANCH   8  16
ATOM     15  O   UNL     1       3.327   1.453  18.633  0.00  0.00    +0.000 OA
ATOM     16  C   UNL     1       2.383   2.223  18.534  0.00  0.00    +0.000 C 
ENDBRANCH   8  16
ENDBRANCH   7  14
ENDBRANCH   6   7
ENDBRANCH   1   6
BRANCH   3  17
ATOM     17  C   UNL     1       7.421   4.770  12.697  0.00  0.00    +0.000 C 
BRANCH  17  18
ATOM     18  C   UNL     1       6.785   3.577  12.031  0.00  0.00    +0.000 A 
ATOM     19  C   UNL     1       7.580   2.547  11.505  0.00  0.00    +0.000 A 
ATOM     20  C   UNL     1       6.990   1.408  10.954  0.00  0.00    +0.000 A 
ATOM     21  C   UNL     1       5.603   1.281  10.933  0.00  0.00    +0.000 A 
ATOM     22  C   UNL     1       4.802   2.298  11.446  0.00  0.00    +0.000 A 
ATOM     23  C   UNL     1       5.389   3.443  11.984  0.00  0.00    +0.000 A 
ENDBRANCH  17  18
ENDBRANCH   3  17
TORSDOF 6
ENDMDL
MODEL 6
REMARK VINA RESULT:      -7.4      1.759      2.014
REMARK  Name = 
REMARK  6 active torsions:
REMARK  status: ('A' for Active; 'I' for Inactive)
REMARK    1  A    between atoms: C_2  and  C_3
REMARK    2  A    between atoms: C_9  and  O_10
REMARK    3  A    between atoms: O_10  and  C_11
REMARK    4  A    between atoms: C_11  and  C_12
REMARK    5  A    between atoms: N_14  and  C_15
REMARK    6  A    between atoms: C_15  and  C_16
REMARK                            x       y       z     vdW  Elec       q    Type
REMARK                         _______ _______ _______ _____ _____    ______ ____
ROOT
ATOM      1  C   UNL     1       5.826   5.316  16.589  0.00  0.00    +0.000 A 
ATOM      2  C   UNL     1       5.674   5.529  15.236  0.00  0.00    +0.000 A 
ATOM      3  N   UNL     1       6.784   4.955  14.690  0.00  0.00    +0.000 N 
ATOM      4  N   UNL     1       7.581   4.440  15.645  0.00  0.00    +0.000 NA
ATOM      5  N   UNL     1       6.997   4.648  16.816  0.00  0.00    +0.000 NA
ENDROOT
BRANCH   1   6
ATOM      6  C   UNL     1       4.984   5.813  17.700  0.00  0.00    +0.000 C 
BRANCH   6   7
ATOM      7  O   UNL     1       4.830   4.853  18.770  0.00  0.00    +0.000 OA
BRANCH   7  14
ATOM      8  C   UNL     1       2.579   4.394  19.571  0.00  0.00    +0.000 A 
ATOM      9  C   UNL     1       1.420   3.600  19.523  0.00  0.00    +0.000 A 
ATOM     10  C   UNL     1       1.333   2.562  18.608  0.00  0.00    +0.000 A 
ATOM     11  F   UNL     1       0.215   1.827  18.538  0.00  0.00    +0.000 F 
ATOM     12  C   UNL     1       2.372   2.285  17.745  0.00  0.00    +0.000 A 
ATOM     13  C   UNL     1       3.541   3.037  17.822  0.00  0.00    +0.000 A 
ATOM     14  C   UNL     1       3.671   4.113  18.713  0.00  0.00    +0.000 A 
BRANCH   8  16
ATOM     15  O   UNL     1       1.535   6.226  20.659  0.00  0.00    +0.000 OA
ATOM     16  C   UNL     1       2.536   5.539  20.521  0.00  0.00    +0.000 C 
ENDBRANCH   8  16
ENDBRANCH   7  14
ENDBRANCH   6   7
ENDBRANCH   1   6
BRANCH   3  17
ATOM     17  C   UNL     1       7.225   5.004  13.311  0.00  0.00    +0.000 C 
BRANCH  17  18
ATOM     18  C   UNL     1       6.661   3.876  12.486  0.00  0.00    +0.000 A 
ATOM     19  C   UNL     1       7.514   2.926  11.903  0.00  0.00    +0.000 A 
ATOM     20  C   UNL     1       6.988   1.839  11.200  0.00  0.00    +0.000 A 
ATOM     21  C   UNL     1       5.608   1.685  11.082  0.00  0.00    +0.000 A 
ATOM     22  C   UNL     1       4.751   2.625  11.650  0.00  0.00    +0.000 A 
ATOM     23  C   UNL     1       5.274   3.718  12.341  0.00  0.00    +0.000 A 
ENDBRANCH  17  18
ENDBRANCH   3  17
TORSDOF 6
ENDMDL
MODEL 7
REMARK VINA RESULT:      -7.3      2.119      3.138
REMARK  Name = 
REMARK  6 active torsions:
REMARK  status: ('A' for Active; 'I' for Inactive)
REMARK    1  A    between atoms: C_2  and  C_3
REMARK    2  A    between atoms: C_9  and  O_10
REMARK    3  A    between atoms: O_10  and  C_11
REMARK    4  A    between atoms: C_11  and  C_12
REMARK    5  A    between atoms: N_14  and  C_15
REMARK    6  A    between atoms: C_15  and  C_16
REMARK                            x       y       z     vdW  Elec       q    Type
REMARK                         _______ _______ _______ _____ _____    ______ ____
ROOT
ATOM      1  C   UNL     1       4.366   6.495  17.525  0.00  0.00    +0.000 A 
ATOM      2  C   UNL     1       5.412   5.598  17.576  0.00  0.00    +0.000 A 
ATOM      3  N   UNL     1       6.112   5.849  16.433  0.00  0.00    +0.000 N 
ATOM      4  N   UNL     1       5.525   6.823  15.711  0.00  0.00    +0.000 NA
ATOM      5  N   UNL     1       4.456   7.233  16.379  0.00  0.00    +0.000 NA
ENDROOT
BRANCH   1   6
ATOM      6  C   UNL     1       3.212   6.617  18.443  0.00  0.00    +0.000 C 
BRANCH   6   7
ATOM      7  O   UNL     1       2.196   5.614  18.217  0.00  0.00    +0.000 OA
BRANCH   7  14
ATOM      8  C   UNL     1       2.229   3.277  18.894  0.00  0.00    +0.000 A 
ATOM      9  C   UNL     1       2.097   2.313  19.908  0.00  0.00    +0.000 A 
ATOM     10  C   UNL     1       1.887   2.715  21.218  0.00  0.00    +0.000 A 
ATOM     11  F   UNL     1       1.796   1.798  22.191  0.00  0.00    +0.000 F 
ATOM     12  C   UNL     1       1.794   4.052  21.547  0.00  0.00    +0.000 A 
ATOM     13  C   UNL     1       1.874   5.008  20.538  0.00  0.00    +0.000 A 
ATOM     14  C   UNL     1       2.110   4.655  19.200  0.00  0.00    +0.000 A 
BRANCH   8  16
ATOM     15  O   UNL     1       2.085   3.250  16.525  0.00  0.00    +0.000 OA
ATOM     16  C   UNL     1       2.545   2.747  17.540  0.00  0.00    +0.000 C 
ENDBRANCH   8  16
ENDBRANCH   7  14
ENDBRANCH   6   7
ENDBRANCH   1   6
BRANCH   3  17
ATOM     17  C   UNL     1       7.230   5.105  15.892  0.00  0.00    +0.000 C 
BRANCH  17  18
ATOM     18  C   UNL     1       6.979   4.631  14.483  0.00  0.00    +0.000 A 
ATOM     19  C   UNL     1       5.908   3.768  14.203  0.00  0.00    +0.000 A 
ATOM     20  C   UNL     1       5.631   3.388  12.889  0.00  0.00    +0.000 A 
ATOM     21  C   UNL     1       6.412   3.873  11.842  0.00  0.00    +0.000 A 
ATOM     22  C   UNL     1       7.482   4.724  12.107  0.00  0.00    +0.000 A 
ATOM     23  C   UNL     1       7.769   5.095  13.420  0.00  0.00    +0.000 A 
ENDBRANCH  17  18
ENDBRANCH   3  17
TORSDOF 6
ENDMDL
MODEL 8
REMARK VINA RESULT:      -7.3      6.773      9.085
REMARK  Name = 
REMARK  6 active torsions:
REMARK  status: ('A' for Active; 'I' for Inactive)
REMARK    1  A    between atoms: C_2  and  C_3
REMARK    2  A    between atoms: C_9  and  O_10
REMARK    3  A    between atoms: O_10  and  C_11
REMARK    4  A    between atoms: C_11  and  C_12
REMARK    5  A    between atoms: N_14  and  C_15
REMARK    6  A    between atoms: C_15  and  C_16
REMARK                            x       y       z     vdW  Elec       q    Type
REMARK                         _______ _______ _______ _____ _____    ______ ____
ROOT
ATOM      1  C   UNL     1       1.370   9.234  18.620  0.00  0.00    +0.000 A 
ATOM      2  C   UNL     1       1.747   8.309  19.571  0.00  0.00    +0.000 A 
ATOM      3  N   UNL     1       2.670   7.539  18.927  0.00  0.00    +0.000 N 
ATOM      4  N   UNL     1       2.837   7.947  17.654  0.00  0.00    +0.000 NA
ATOM      5  N   UNL     1       2.049   8.995  17.459  0.00  0.00    +0.000 NA
ENDROOT
BRANCH   1   6
ATOM      6  C   UNL     1       0.312  10.265  18.707  0.00  0.00    +0.000 C 
BRANCH   6   7
ATOM      7  O   UNL     1      -0.694   9.965  19.700  0.00  0.00    +0.000 OA
BRANCH   7  14
ATOM      8  C   UNL     1      -0.645  10.922  21.936  0.00  0.00    +0.000 A 
ATOM      9  C   UNL     1      -0.977  11.977  22.805  0.00  0.00    +0.000 A 
ATOM     10  C   UNL     1      -1.596  13.112  22.306  0.00  0.00    +0.000 A 
ATOM     11  F   UNL     1      -1.882  14.131  23.127  0.00  0.00    +0.000 F 
ATOM     12  C   UNL     1      -1.905  13.224  20.966  0.00  0.00    +0.000 A 
ATOM     13  C   UNL     1      -1.623  12.162  20.111  0.00  0.00    +0.000 A 
ATOM     14  C   UNL     1      -0.975  11.001  20.561  0.00  0.00    +0.000 A 
BRANCH   8  16
ATOM     15  O   UNL     1       0.269   9.711  23.760  0.00  0.00    +0.000 OA
ATOM     16  C   UNL     1       0.101   9.791  22.553  0.00  0.00    +0.000 C 
ENDBRANCH   8  16
ENDBRANCH   7  14
ENDBRANCH   6   7
ENDBRANCH   1   6
BRANCH   3  17
ATOM     17  C   UNL     1       3.297   6.321  19.398  0.00  0.00    +0.000 C 
BRANCH  17  18
ATOM     18  C   UNL     1       2.359   5.142  19.370  0.00  0.00    +0.000 A 
ATOM     19  C   UNL     1       2.069   4.493  18.160  0.00  0.00    +0.000 A 
ATOM     20  C   UNL     1       1.259   3.355  18.143  0.00  0.00    +0.000 A 
ATOM     21  C   UNL     1       0.740   2.850  19.334  0.00  0.00    +0.000 A 
ATOM     22  C   UNL     1       1.015   3.489  20.540  0.00  0.00    +0.000 A 
ATOM     23  C   UNL     1       1.813   4.633  20.558  0.00  0.00    +0.000 A 
ENDBRANCH  17  18
ENDBRANCH   3  17
TORSDOF 6
ENDMDL
MODEL 9
REMARK VINA RESULT:      -7.3      1.967      2.641
REMARK  Name = 
REMARK  6 active torsions:
REMARK  status: ('A' for Active; 'I' for Inactive)
REMARK    1  A    between atoms: C_2  and  C_3
REMARK    2  A    between atoms: C_9  and  O_10
REMARK    3  A    between atoms: O_10  and  C_11
REMARK    4  A    between atoms: C_11  and  C_12
REMARK    5  A    between atoms: N_14  and  C_15
REMARK    6  A    between atoms: C_15  and  C_16
REMARK                            x       y       z     vdW  Elec       q    Type
REMARK                         _______ _______ _______ _____ _____    ______ ____
ROOT
ATOM      1  C   UNL     1       5.719   4.644  16.526  0.00  0.00    +0.000 A 
ATOM      2  C   UNL     1       6.558   4.139  15.555  0.00  0.00    +0.000 A 
ATOM      3  N   UNL     1       6.493   5.065  14.556  0.00  0.00    +0.000 N 
ATOM      4  N   UNL     1       5.653   6.067  14.879  0.00  0.00    +0.000 NA
ATOM      5  N   UNL     1       5.179   5.822  16.093  0.00  0.00    +0.000 NA
ENDROOT
BRANCH   1   6
ATOM      6  C   UNL     1       5.303   4.017  17.801  0.00  0.00    +0.000 C 
BRANCH   6   7
ATOM      7  O   UNL     1       4.706   4.953  18.726  0.00  0.00    +0.000 OA
BRANCH   7  14
ATOM      8  C   UNL     1       2.664   5.208  20.024  0.00  0.00    +0.000 A 
ATOM      9  C   UNL     1       1.701   4.647  20.881  0.00  0.00    +0.000 A 
ATOM     10  C   UNL     1       1.776   3.304  21.218  0.00  0.00    +0.000 A 
ATOM     11  F   UNL     1       0.840   2.761  22.007  0.00  0.00    +0.000 F 
ATOM     12  C   UNL     1       2.791   2.505  20.733  0.00  0.00    +0.000 A 
ATOM     13  C   UNL     1       3.774   3.067  19.924  0.00  0.00    +0.000 A 
ATOM     14  C   UNL     1       3.731   4.415  19.534  0.00  0.00    +0.000 A 
BRANCH   8  16
ATOM     15  O   UNL     1       1.813   7.397  20.366  0.00  0.00    +0.000 OA
ATOM     16  C   UNL     1       2.441   6.631  19.650  0.00  0.00    +0.000 C 
ENDBRANCH   8  16
ENDBRANCH   7  14
ENDBRANCH   6   7
ENDBRANCH   1   6
BRANCH   3  17
ATOM     17  C   UNL     1       7.062   4.982  13.227  0.00  0.00    +0.000 C 
BRANCH  17  18
ATOM     18  C   UNL     1       6.588   3.766  12.473  0.00  0.00    +0.000 A 
ATOM     19  C   UNL     1       5.218   3.553  12.257  0.00  0.00    +0.000 A 
ATOM     20  C   UNL     1       4.782   2.467  11.495  0.00  0.00    +0.000 A 
ATOM     21  C   UNL     1       5.709   1.591  10.934  0.00  0.00    +0.000 A 
ATOM     22  C   UNL     1       7.071   1.787  11.147  0.00  0.00    +0.000 A 
ATOM     23  C   UNL     1       7.509   2.864  11.918  0.00  0.00    +0.000 A 
ENDBRANCH  17  18
ENDBRANCH   3  17
TORSDOF 6
ENDMDL
