MODEL 1
REMARK VINA RESULT:      -9.0      0.000      0.000
REMARK  Name = 
REMARK  5 active torsions:
REMARK  status: ('A' for Active; 'I' for Inactive)
REMARK    1  A    between atoms: C_1  and  N_2
REMARK    2  A    between atoms: C_5  and  C_6
REMARK    3  A    between atoms: C_8  and  C_9
REMARK    4  A    between atoms: C_17  and  C_18
REMARK    5  A    between atoms: C_23  and  O_24
REMARK                            x       y       z     vdW  Elec       q    Type
REMARK                         _______ _______ _______ _____ _____    ______ ____
ROOT
ATOM      1  C   UNL     1       0.491   2.987  19.450  0.00  0.00    +0.000 C 
ATOM      2  N   UNL     1       1.849   2.909  18.969  0.00  0.00    +0.000 N 
ATOM      3  C   UNL     1       2.448   1.731  18.620  0.00  0.00    +0.000 A 
ATOM      4  N   UNL     1       3.652   1.920  18.143  0.00  0.00    +0.000 NA
ATOM      5  C   UNL     1       3.862   3.285  18.215  0.00  0.00    +0.000 A 
ATOM      6  C   UNL     1       2.731   3.948  18.709  0.00  0.00    +0.000 A 
ENDROOT
BRANCH   6   7
ATOM      7  C   UNL     1       2.443   5.386  18.885  0.00  0.00    +0.000 A 
ATOM      8  C   UNL     1       2.428   6.249  17.771  0.00  0.00    +0.000 A 
ATOM      9  C   UNL     1       2.231   7.626  17.914  0.00  0.00    +0.000 A 
ATOM     10  C   UNL     1       1.985   8.145  19.174  0.00  0.00    +0.000 A 
ATOM     11  F   UNL     1       1.776   9.460  19.328  0.00  0.00    +0.000 F 
ATOM     12  C   UNL     1       1.957   7.310  20.282  0.00  0.00    +0.000 A 
ATOM     13  C   UNL     1       2.211   5.947  20.150  0.00  0.00    +0.000 A 
BRANCH  12  14
ATOM     14  O   UNL     1       1.684   7.804  21.526  0.00  0.00    +0.000 OA
ATOM     15  H   UNL     1       2.375   7.458  22.123  0.00  0.00    +0.000 HD
ENDBRANCH  12  14
ENDBRANCH   6   7
BRANCH   5  16
ATOM     16  C   UNL     1       5.116   3.886  17.769  0.00  0.00    +0.000 A 
ATOM     17  C   UNL     1       5.425   3.931  16.412  0.00  0.00    +0.000 A 
ATOM     18  C   UNL     1       6.590   4.592  16.010  0.00  0.00    +0.000 A 
ATOM     19  C   UNL     1       7.404   5.175  16.982  0.00  0.00    +0.000 A 
ATOM     20  C   UNL     1       7.035   5.058  18.308  0.00  0.00    +0.000 A 
ATOM     21  N   UNL     1       5.920   4.426  18.717  0.00  0.00    +0.000 NA
BRANCH  18  22
ATOM     22  C   UNL     1       6.945   4.685  14.600  0.00  0.00    +0.000 A 
ATOM     23  N   UNL     1       7.920   5.529  14.119  0.00  0.00    +0.000 NA
ATOM     24  N   UNL     1       7.972   5.349  12.807  0.00  0.00    +0.000 NA
ATOM     25  N   UNL     1       7.040   4.424  12.560  0.00  0.00    +0.000 N 
ATOM     26  N   UNL     1       6.370   3.960  13.625  0.00  0.00    +0.000 NA
ATOM     27  H   UNL     1       6.854   4.094  11.617  0.00  0.00    +0.000 HD
ENDBRANCH  18  22
ENDBRANCH   5  16
TORSDOF 4
ENDMDL
MODEL 2
REMARK VINA RESULT:      -9.0      1.019      1.029
REMARK  Name = 
REMARK  5 active torsions:
REMARK  status: ('A' for Active; 'I' for Inactive)
REMARK    1  A    between atoms: C_1  and  N_2
REMARK    2  A    between atoms: C_5  and  C_6
REMARK    3  A    between atoms: C_8  and  C_9
REMARK    4  A    between atoms: C_17  and  C_18
REMARK    5  A    between atoms: C_23  and  O_24
REMARK                            x       y       z     vdW  Elec       q    Type
REMARK                         _______ _______ _______ _____ _____    ______ ____
ROOT
ATOM      1  C   UNL     1       1.074   3.521  20.805  0.00  0.00    +0.000 C 
ATOM      2  N   UNL     1       2.422   3.476  20.291  0.00  0.00    +0.000 N 
ATOM      3  C   UNL     1       3.175   2.335  20.276  0.00  0.00    +0.000 A 
ATOM      4  N   UNL     1       4.332   2.524  19.695  0.00  0.00    +0.000 NA
ATOM      5  C   UNL     1       4.349   3.861  19.343  0.00  0.00    +0.000 A 
ATOM      6  C   UNL     1       3.144   4.491  19.681  0.00  0.00    +0.000 A 
ENDROOT
BRANCH   6   7
ATOM      7  C   UNL     1       2.659   5.864  19.434  0.00  0.00    +0.000 A 
ATOM      8  C   UNL     1       2.745   6.428  18.145  0.00  0.00    +0.000 A 
ATOM      9  C   UNL     1       2.363   7.749  17.896  0.00  0.00    +0.000 A 
ATOM     10  C   UNL     1       1.830   8.503  18.928  0.00  0.00    +0.000 A 
ATOM     11  F   UNL     1       1.440   9.766  18.705  0.00  0.00    +0.000 F 
ATOM     12  C   UNL     1       1.699   7.958  20.198  0.00  0.00    +0.000 A 
ATOM     13  C   UNL     1       2.134   6.661  20.462  0.00  0.00    +0.000 A 
BRANCH  12  14
ATOM     14  O   UNL     1       1.146   8.681  21.218  0.00  0.00    +0.000 OA
ATOM     15  H   UNL     1       0.415   9.198  20.830  0.00  0.00    +0.000 HD
ENDBRANCH  12  14
ENDBRANCH   6   7
BRANCH   5  16
ATOM     16  C   UNL     1       5.498   4.455  18.664  0.00  0.00    +0.000 A 
ATOM     17  C   UNL     1       5.650   4.306  17.288  0.00  0.00    +0.000 A 
ATOM     18  C   UNL     1       6.711   4.961  16.655  0.00  0.00    +0.000 A 
ATOM     19  C   UNL     1       7.583   5.731  17.425  0.00  0.00    +0.000 A 
ATOM     20  C   UNL     1       7.374   5.801  18.789  0.00  0.00    +0.000 A 
ATOM     21  N   UNL     1       6.361   5.178  19.418  0.00  0.00    +0.000 NA
BRANCH  18  22
ATOM     22  C   UNL     1       6.900   4.853  15.215  0.00  0.00    +0.000 A 
ATOM     23  N   UNL     1       7.852   5.565  14.521  0.00  0.00    +0.000 NA
ATOM     24  N   UNL     1       7.737   5.220  13.246  0.00  0.00    +0.000 NA
ATOM     25  N   UNL     1       6.737   4.335  13.228  0.00  0.00    +0.000 N 
ATOM     26  N   UNL     1       6.176   4.053  14.413  0.00  0.00    +0.000 NA
ATOM     27  H   UNL     1       6.422   3.903  12.364  0.00  0.00    +0.000 HD
ENDBRANCH  18  22
ENDBRANCH   5  16
TORSDOF 4
ENDMDL
MODEL 3
REMARK VINA RESULT:      -9.0      1.061      1.609
REMARK  Name = 
REMARK  5 active torsions:
REMARK  status: ('A' for Active; 'I' for Inactive)
REMARK    1  A    between atoms: C_1  and  N_2
REMARK    2  A    between atoms: C_5  and  C_6
REMARK    3  A    between atoms: C_8  and  C_9
REMARK    4  A    between atoms: C_17  and  C_18
REMARK    5  A    between atoms: C_23  and  O_24
REMARK                            x       y       z     vdW  Elec       q    Type
REMARK                         _______ _______ _______ _____ _____    ______ ____
ROOT
ATOM      1  C   UNL     1       0.678   3.214  20.212  0.00  0.00    +0.000 C 
ATOM      2  N   UNL     1       2.026   3.155  19.698  0.00  0.00    +0.000 N 
ATOM      3  C   UNL     1       2.671   1.980  19.432  0.00  0.00    +0.000 A 
ATOM      4  N   UNL     1       3.851   2.182  18.904  0.00  0.00    +0.000 NA
ATOM      5  C   UNL     1       3.997   3.556  18.852  0.00  0.00    +0.000 A 
ATOM      6  C   UNL     1       2.849   4.207  19.322  0.00  0.00    +0.000 A 
ENDROOT
BRANCH   6   7
ATOM      7  C   UNL     1       2.498   5.640  19.383  0.00  0.00    +0.000 A 
ATOM      8  C   UNL     1       1.993   6.199  20.574  0.00  0.00    +0.000 A 
ATOM      9  C   UNL     1       1.584   7.534  20.642  0.00  0.00    +0.000 A 
ATOM     10  C   UNL     1       1.733   8.342  19.527  0.00  0.00    +0.000 A 
ATOM     11  F   UNL     1       1.363   9.630  19.578  0.00  0.00    +0.000 F 
ATOM     12  C   UNL     1       2.264   7.825  18.353  0.00  0.00    +0.000 A 
ATOM     13  C   UNL     1       2.618   6.481  18.267  0.00  0.00    +0.000 A 
BRANCH  12  14
ATOM     14  O   UNL     1       2.446   8.620  17.257  0.00  0.00    +0.000 OA
ATOM     15  H   UNL     1       1.593   8.643  16.782  0.00  0.00    +0.000 HD
ENDBRANCH  12  14
ENDBRANCH   6   7
BRANCH   5  16
ATOM     16  C   UNL     1       5.208   4.172  18.318  0.00  0.00    +0.000 A 
ATOM     17  C   UNL     1       5.479   4.112  16.952  0.00  0.00    +0.000 A 
ATOM     18  C   UNL     1       6.599   4.787  16.460  0.00  0.00    +0.000 A 
ATOM     19  C   UNL     1       7.410   5.490  17.352  0.00  0.00    +0.000 A 
ATOM     20  C   UNL     1       7.082   5.474  18.694  0.00  0.00    +0.000 A 
ATOM     21  N   UNL     1       6.010   4.829  19.190  0.00  0.00    +0.000 NA
BRANCH  18  22
ATOM     22  C   UNL     1       6.913   4.771  15.037  0.00  0.00    +0.000 A 
ATOM     23  N   UNL     1       6.267   3.963  14.129  0.00  0.00    +0.000 NA
ATOM     24  N   UNL     1       6.805   4.211  12.943  0.00  0.00    +0.000 NA
ATOM     25  N   UNL     1       7.737   5.138  13.186  0.00  0.00    +0.000 N 
ATOM     26  N   UNL     1       7.853   5.539  14.460  0.00  0.00    +0.000 NA
ATOM     27  H   UNL     1       8.320   5.513  12.444  0.00  0.00    +0.000 HD
ENDBRANCH  18  22
ENDBRANCH   5  16
TORSDOF 4
ENDMDL
MODEL 4
REMARK VINA RESULT:      -8.7      1.892      2.762
REMARK  Name = 
REMARK  5 active torsions:
REMARK  status: ('A' for Active; 'I' for Inactive)
REMARK    1  A    between atoms: C_1  and  N_2
REMARK    2  A    between atoms: C_5  and  C_6
REMARK    3  A    between atoms: C_8  and  C_9
REMARK    4  A    between atoms: C_17  and  C_18
REMARK    5  A    between atoms: C_23  and  O_24
REMARK                            x       y       z     vdW  Elec       q    Type
REMARK                         _______ _______ _______ _____ _____    ______ ____
ROOT
ATOM      1  C   UNL     1       0.798   3.105  20.045  0.00  0.00    +0.000 C 
ATOM      2  N   UNL     1       2.020   3.069  19.276  0.00  0.00    +0.000 N 
ATOM      3  C   UNL     1       2.603   1.905  18.859  0.00  0.00    +0.000 A 
ATOM      4  N   UNL     1       3.657   2.128  18.116  0.00  0.00    +0.000 NA
ATOM      5  C   UNL     1       3.788   3.504  18.073  0.00  0.00    +0.000 A 
ATOM      6  C   UNL     1       2.752   4.136  18.775  0.00  0.00    +0.000 A 
ENDROOT
BRANCH   6   7
ATOM      7  C   UNL     1       2.416   5.564  18.941  0.00  0.00    +0.000 A 
ATOM      8  C   UNL     1       2.318   6.406  17.815  0.00  0.00    +0.000 A 
ATOM      9  C   UNL     1       2.074   7.777  17.944  0.00  0.00    +0.000 A 
ATOM     10  C   UNL     1       1.864   8.308  19.205  0.00  0.00    +0.000 A 
ATOM     11  F   UNL     1       1.609   9.617  19.348  0.00  0.00    +0.000 F 
ATOM     12  C   UNL     1       1.916   7.492  20.327  0.00  0.00    +0.000 A 
ATOM     13  C   UNL     1       2.218   6.138  20.205  0.00  0.00    +0.000 A 
BRANCH  12  14
ATOM     14  O   UNL     1       1.679   7.998  21.574  0.00  0.00    +0.000 OA
ATOM     15  H   UNL     1       1.079   7.371  22.021  0.00  0.00    +0.000 HD
ENDBRANCH  12  14
ENDBRANCH   6   7
BRANCH   5  16
ATOM     16  C   UNL     1       4.869   4.143  17.329  0.00  0.00    +0.000 A 
ATOM     17  C   UNL     1       5.567   5.211  17.888  0.00  0.00    +0.000 A 
ATOM     18  C   UNL     1       6.655   5.742  17.189  0.00  0.00    +0.000 A 
ATOM     19  C   UNL     1       6.997   5.191  15.954  0.00  0.00    +0.000 A 
ATOM     20  C   UNL     1       6.233   4.150  15.461  0.00  0.00    +0.000 A 
ATOM     21  N   UNL     1       5.182   3.624  16.116  0.00  0.00    +0.000 NA
BRANCH  18  22
ATOM     22  C   UNL     1       7.429   6.845  17.742  0.00  0.00    +0.000 A 
ATOM     23  N   UNL     1       7.460   8.103  17.182  0.00  0.00    +0.000 NA
ATOM     24  N   UNL     1       8.257   8.842  17.942  0.00  0.00    +0.000 NA
ATOM     25  N   UNL     1       8.665   8.011  18.905  0.00  0.00    +0.000 N 
ATOM     26  N   UNL     1       8.185   6.760  18.849  0.00  0.00    +0.000 NA
ATOM     27  H   UNL     1       9.303   8.315  19.635  0.00  0.00    +0.000 HD
ENDBRANCH  18  22
ENDBRANCH   5  16
TORSDOF 4
ENDMDL
MODEL 5
REMARK VINA RESULT:      -8.7      4.185      7.479
REMARK  Name = 
REMARK  5 active torsions:
REMARK  status: ('A' for Active; 'I' for Inactive)
REMARK    1  A    between atoms: C_1  and  N_2
REMARK    2  A    between atoms: C_5  and  C_6
REMARK    3  A    between atoms: C_8  and  C_9
REMARK    4  A    between atoms: C_17  and  C_18
REMARK    5  A    between atoms: C_23  and  O_24
REMARK                            x       y       z     vdW  Elec       q    Type
REMARK                         _______ _______ _______ _____ _____    ______ ____
ROOT
ATOM      1  C   UNL     1       5.210   4.270  17.374  0.00  0.00    +0.000 C 
ATOM      2  N   UNL     1       4.574   5.562  17.469  0.00  0.00    +0.000 N 
ATOM      3  C   UNL     1       4.975   6.645  16.738  0.00  0.00    +0.000 A 
ATOM      4  N   UNL     1       4.200   7.680  16.939  0.00  0.00    +0.000 NA
ATOM      5  C   UNL     1       3.268   7.263  17.871  0.00  0.00    +0.000 A 
ATOM      6  C   UNL     1       3.457   5.917  18.212  0.00  0.00    +0.000 A 
ENDROOT
BRANCH   6   7
ATOM      7  C   UNL     1       2.679   5.014  19.083  0.00  0.00    +0.000 A 
ATOM      8  C   UNL     1       2.824   5.076  20.484  0.00  0.00    +0.000 A 
ATOM      9  C   UNL     1       2.157   4.187  21.330  0.00  0.00    +0.000 A 
ATOM     10  C   UNL     1       1.285   3.261  20.783  0.00  0.00    +0.000 A 
ATOM     11  F   UNL     1       0.622   2.411  21.580  0.00  0.00    +0.000 F 
ATOM     12  C   UNL     1       1.095   3.204  19.409  0.00  0.00    +0.000 A 
ATOM     13  C   UNL     1       1.803   4.051  18.560  0.00  0.00    +0.000 A 
BRANCH  12  14
ATOM     14  O   UNL     1       0.214   2.316  18.859  0.00  0.00    +0.000 OA
ATOM     15  H   UNL     1      -0.260   1.895  19.602  0.00  0.00    +0.000 HD
ENDBRANCH  12  14
ENDBRANCH   6   7
BRANCH   5  16
ATOM     16  C   UNL     1       2.222   8.160  18.355  0.00  0.00    +0.000 A 
ATOM     17  C   UNL     1       1.885   8.176  19.706  0.00  0.00    +0.000 A 
ATOM     18  C   UNL     1       0.943   9.108  20.153  0.00  0.00    +0.000 A 
ATOM     19  C   UNL     1       0.369   9.981  19.229  0.00  0.00    +0.000 A 
ATOM     20  C   UNL     1       0.741   9.877  17.902  0.00  0.00    +0.000 A 
ATOM     21  N   UNL     1       1.644   8.987  17.451  0.00  0.00    +0.000 NA
BRANCH  18  22
ATOM     22  C   UNL     1       0.573   9.178  21.560  0.00  0.00    +0.000 A 
ATOM     23  N   UNL     1       1.400   9.687  22.535  0.00  0.00    +0.000 NA
ATOM     24  N   UNL     1       0.744   9.594  23.683  0.00  0.00    +0.000 NA
ATOM     25  N   UNL     1      -0.426   9.039  23.355  0.00  0.00    +0.000 N 
ATOM     26  N   UNL     1      -0.605   8.762  22.055  0.00  0.00    +0.000 NA
ATOM     27  H   UNL     1      -1.136   8.840  24.054  0.00  0.00    +0.000 HD
ENDBRANCH  18  22
ENDBRANCH   5  16
TORSDOF 4
ENDMDL
MODEL 6
REMARK VINA RESULT:      -8.5      2.073      3.061
REMARK  Name = 
REMARK  5 active torsions:
REMARK  status: ('A' for Active; 'I' for Inactive)
REMARK    1  A    between atoms: C_1  and  N_2
REMARK    2  A    between atoms: C_5  and  C_6
REMARK    3  A    between atoms: C_8  and  C_9
REMARK    4  A    between atoms: C_17  and  C_18
REMARK    5  A    between atoms: C_23  and  O_24
REMARK                            x       y       z     vdW  Elec       q    Type
REMARK                         _______ _______ _______ _____ _____    ______ ____
ROOT
ATOM      1  C   UNL     1       0.772   3.059  19.948  0.00  0.00    +0.000 C 
ATOM      2  N   UNL     1       1.974   3.039  19.149  0.00  0.00    +0.000 N 
ATOM      3  C   UNL     1       2.504   1.892  18.629  0.00  0.00    +0.000 A 
ATOM      4  N   UNL     1       3.549   2.135  17.879  0.00  0.00    +0.000 NA
ATOM      5  C   UNL     1       3.730   3.504  17.939  0.00  0.00    +0.000 A 
ATOM      6  C   UNL     1       2.735   4.115  18.713  0.00  0.00    +0.000 A 
ENDROOT
BRANCH   6   7
ATOM      7  C   UNL     1       2.457   5.537  18.997  0.00  0.00    +0.000 A 
ATOM      8  C   UNL     1       2.146   5.954  20.307  0.00  0.00    +0.000 A 
ATOM      9  C   UNL     1       1.807   7.279  20.594  0.00  0.00    +0.000 A 
ATOM     10  C   UNL     1       1.836   8.218  19.577  0.00  0.00    +0.000 A 
ATOM     11  F   UNL     1       1.532   9.498  19.835  0.00  0.00    +0.000 F 
ATOM     12  C   UNL     1       2.177   7.840  18.285  0.00  0.00    +0.000 A 
ATOM     13  C   UNL     1       2.457   6.509  17.986  0.00  0.00    +0.000 A 
BRANCH  12  14
ATOM     14  O   UNL     1       2.240   8.762  17.278  0.00  0.00    +0.000 OA
ATOM     15  H   UNL     1       1.476   8.592  16.694  0.00  0.00    +0.000 HD
ENDBRANCH  12  14
ENDBRANCH   6   7
BRANCH   5  16
ATOM     16  C   UNL     1       4.818   4.159  17.219  0.00  0.00    +0.000 A 
ATOM     17  C   UNL     1       5.524   5.200  17.818  0.00  0.00    +0.000 A 
ATOM     18  C   UNL     1       6.618   5.747  17.139  0.00  0.00    +0.000 A 
ATOM     19  C   UNL     1       6.956   5.238  15.885  0.00  0.00    +0.000 A 
ATOM     20  C   UNL     1       6.184   4.222  15.354  0.00  0.00    +0.000 A 
ATOM     21  N   UNL     1       5.127   3.683  15.989  0.00  0.00    +0.000 NA
BRANCH  18  22
ATOM     22  C   UNL     1       7.400   6.823  17.732  0.00  0.00    +0.000 A 
ATOM     23  N   UNL     1       7.457   8.095  17.209  0.00  0.00    +0.000 NA
ATOM     24  N   UNL     1       8.254   8.800  17.999  0.00  0.00    +0.000 NA
ATOM     25  N   UNL     1       8.640   7.937  18.942  0.00  0.00    +0.000 N 
ATOM     26  N   UNL     1       8.143   6.695  18.845  0.00  0.00    +0.000 NA
ATOM     27  H   UNL     1       9.273   8.210  19.688  0.00  0.00    +0.000 HD
ENDBRANCH  18  22
ENDBRANCH   5  16
TORSDOF 4
ENDMDL
MODEL 7
REMARK VINA RESULT:      -8.3      4.229      7.267
REMARK  Name = 
REMARK  5 active torsions:
REMARK  status: ('A' for Active; 'I' for Inactive)
REMARK    1  A    between atoms: C_1  and  N_2
REMARK    2  A    between atoms: C_5  and  C_6
REMARK    3  A    between atoms: C_8  and  C_9
REMARK    4  A    between atoms: C_17  and  C_18
REMARK    5  A    between atoms: C_23  and  O_24
REMARK                            x       y       z     vdW  Elec       q    Type
REMARK                         _______ _______ _______ _____ _____    ______ ____
ROOT
ATOM      1  C   UNL     1       4.395   1.944  19.957  0.00  0.00    +0.000 C 
ATOM      2  N   UNL     1       3.516   3.072  20.155  0.00  0.00    +0.000 N 
ATOM      3  C   UNL     1       2.500   3.073  21.069  0.00  0.00    +0.000 A 
ATOM      4  N   UNL     1       1.891   4.231  21.118  0.00  0.00    +0.000 NA
ATOM      5  C   UNL     1       2.519   5.014  20.167  0.00  0.00    +0.000 A 
ATOM      6  C   UNL     1       3.573   4.322  19.554  0.00  0.00    +0.000 A 
ENDROOT
BRANCH   6   7
ATOM      7  C   UNL     1       4.573   4.754  18.558  0.00  0.00    +0.000 A 
ATOM      8  C   UNL     1       4.384   4.471  17.191  0.00  0.00    +0.000 A 
ATOM      9  C   UNL     1       5.347   4.803  16.233  0.00  0.00    +0.000 A 
ATOM     10  C   UNL     1       6.487   5.480  16.631  0.00  0.00    +0.000 A 
ATOM     11  F   UNL     1       7.414   5.823  15.724  0.00  0.00    +0.000 F 
ATOM     12  C   UNL     1       6.679   5.804  17.966  0.00  0.00    +0.000 A 
ATOM     13  C   UNL     1       5.749   5.423  18.930  0.00  0.00    +0.000 A 
BRANCH  12  14
ATOM     14  O   UNL     1       7.785   6.500  18.367  0.00  0.00    +0.000 OA
ATOM     15  H   UNL     1       8.420   6.469  17.625  0.00  0.00    +0.000 HD
ENDBRANCH  12  14
ENDBRANCH   6   7
BRANCH   5  16
ATOM     16  C   UNL     1       2.108   6.394  19.926  0.00  0.00    +0.000 A 
ATOM     17  C   UNL     1       1.419   7.099  20.909  0.00  0.00    +0.000 A 
ATOM     18  C   UNL     1       1.117   8.446  20.682  0.00  0.00    +0.000 A 
ATOM     19  C   UNL     1       1.509   9.031  19.478  0.00  0.00    +0.000 A 
ATOM     20  C   UNL     1       2.165   8.249  18.547  0.00  0.00    +0.000 A 
ATOM     21  N   UNL     1       2.463   6.952  18.743  0.00  0.00    +0.000 NA
BRANCH  18  22
ATOM     22  C   UNL     1       0.416   9.232  21.689  0.00  0.00    +0.000 A 
ATOM     23  N   UNL     1       0.681  10.561  21.930  0.00  0.00    +0.000 NA
ATOM     24  N   UNL     1      -0.136  10.946  22.900  0.00  0.00    +0.000 NA
ATOM     25  N   UNL     1      -0.841   9.851  23.198  0.00  0.00    +0.000 N 
ATOM     26  N   UNL     1      -0.558   8.753  22.481  0.00  0.00    +0.000 NA
ATOM     27  H   UNL     1      -1.550   9.855  23.926  0.00  0.00    +0.000 HD
ENDBRANCH  18  22
ENDBRANCH   5  16
TORSDOF 4
ENDMDL
MODEL 8
REMARK VINA RESULT:      -8.2      4.020      7.141
REMARK  Name = 
REMARK  5 active torsions:
REMARK  status: ('A' for Active; 'I' for Inactive)
REMARK    1  A    between atoms: C_1  and  N_2
REMARK    2  A    between atoms: C_5  and  C_6
REMARK    3  A    between atoms: C_8  and  C_9
REMARK    4  A    between atoms: C_17  and  C_18
REMARK    5  A    between atoms: C_23  and  O_24
REMARK                            x       y       z     vdW  Elec       q    Type
REMARK                         _______ _______ _______ _____ _____    ______ ____
ROOT
ATOM      1  C   UNL     1       3.700   1.193  18.650  0.00  0.00    +0.000 C 
ATOM      2  N   UNL     1       2.965   2.377  19.026  0.00  0.00    +0.000 N 
ATOM      3  C   UNL     1       1.871   2.346  19.845  0.00  0.00    +0.000 A 
ATOM      4  N   UNL     1       1.422   3.548  20.102  0.00  0.00    +0.000 NA
ATOM      5  C   UNL     1       2.243   4.404  19.390  0.00  0.00    +0.000 A 
ATOM      6  C   UNL     1       3.250   3.699  18.716  0.00  0.00    +0.000 A 
ENDROOT
BRANCH   6   7
ATOM      7  C   UNL     1       4.395   4.168  17.911  0.00  0.00    +0.000 A 
ATOM      8  C   UNL     1       5.552   4.667  18.542  0.00  0.00    +0.000 A 
ATOM      9  C   UNL     1       6.622   5.185  17.807  0.00  0.00    +0.000 A 
ATOM     10  C   UNL     1       6.569   5.153  16.424  0.00  0.00    +0.000 A 
ATOM     11  F   UNL     1       7.593   5.628  15.701  0.00  0.00    +0.000 F 
ATOM     12  C   UNL     1       5.456   4.631  15.778  0.00  0.00    +0.000 A 
ATOM     13  C   UNL     1       4.364   4.168  16.508  0.00  0.00    +0.000 A 
BRANCH  12  14
ATOM     14  O   UNL     1       5.404   4.564  14.414  0.00  0.00    +0.000 OA
ATOM     15  H   UNL     1       6.325   4.468  14.103  0.00  0.00    +0.000 HD
ENDBRANCH  12  14
ENDBRANCH   6   7
BRANCH   5  16
ATOM     16  C   UNL     1       2.047   5.850  19.425  0.00  0.00    +0.000 A 
ATOM     17  C   UNL     1       1.422   6.444  20.520  0.00  0.00    +0.000 A 
ATOM     18  C   UNL     1       1.330   7.838  20.565  0.00  0.00    +0.000 A 
ATOM     19  C   UNL     1       1.857   8.584  19.510  0.00  0.00    +0.000 A 
ATOM     20  C   UNL     1       2.435   7.911  18.450  0.00  0.00    +0.000 A 
ATOM     21  N   UNL     1       2.533   6.570  18.386  0.00  0.00    +0.000 NA
BRANCH  18  22
ATOM     22  C   UNL     1       0.705   8.507  21.698  0.00  0.00    +0.000 A 
ATOM     23  N   UNL     1       1.383   9.352  22.546  0.00  0.00    +0.000 NA
ATOM     24  N   UNL     1       0.509   9.773  23.450  0.00  0.00    +0.000 NA
ATOM     25  N   UNL     1      -0.635   9.171  23.114  0.00  0.00    +0.000 N 
ATOM     26  N   UNL     1      -0.591   8.379  22.033  0.00  0.00    +0.000 NA
ATOM     27  H   UNL     1      -1.487   9.310  23.650  0.00  0.00    +0.000 HD
ENDBRANCH  18  22
ENDBRANCH   5  16
TORSDOF 4
ENDMDL
MODEL 9
REMARK VINA RESULT:      -8.2      4.038      7.333
REMARK  Name = 
REMARK  5 active torsions:
REMARK  status: ('A' for Active; 'I' for Inactive)
REMARK    1  A    between atoms: C_1  and  N_2
REMARK    2  A    between atoms: C_5  and  C_6
REMARK    3  A    between atoms: C_8  and  C_9
REMARK    4  A    between atoms: C_17  and  C_18
REMARK    5  A    between atoms: C_23  and  O_24
REMARK                            x       y       z     vdW  Elec       q    Type
REMARK                         _______ _______ _______ _____ _____    ______ ____
ROOT
ATOM      1  C   UNL     1       5.602   4.316  17.542  0.00  0.00    +0.000 C 
ATOM      2  N   UNL     1       4.932   5.593  17.621  0.00  0.00    +0.000 N 
ATOM      3  C   UNL     1       5.389   6.714  16.986  0.00  0.00    +0.000 A 
ATOM      4  N   UNL     1       4.575   7.727  17.144  0.00  0.00    +0.000 NA
ATOM      5  C   UNL     1       3.555   7.254  17.948  0.00  0.00    +0.000 A 
ATOM      6  C   UNL     1       3.733   5.897  18.249  0.00  0.00    +0.000 A 
ENDROOT
BRANCH   6   7
ATOM      7  C   UNL     1       2.881   4.943  18.988  0.00  0.00    +0.000 A 
ATOM      8  C   UNL     1       1.816   4.289  18.338  0.00  0.00    +0.000 A 
ATOM      9  C   UNL     1       0.948   3.437  19.027  0.00  0.00    +0.000 A 
ATOM     10  C   UNL     1       1.178   3.183  20.369  0.00  0.00    +0.000 A 
ATOM     11  F   UNL     1       0.368   2.354  21.044  0.00  0.00    +0.000 F 
ATOM     12  C   UNL     1       2.244   3.785  21.023  0.00  0.00    +0.000 A 
ATOM     13  C   UNL     1       3.074   4.679  20.352  0.00  0.00    +0.000 A 
BRANCH  12  14
ATOM     14  O   UNL     1       2.500   3.518  22.339  0.00  0.00    +0.000 OA
ATOM     15  H   UNL     1       2.171   2.615  22.511  0.00  0.00    +0.000 HD
ENDBRANCH  12  14
ENDBRANCH   6   7
BRANCH   5  16
ATOM     16  C   UNL     1       2.443   8.111  18.350  0.00  0.00    +0.000 A 
ATOM     17  C   UNL     1       2.028   8.139  19.679  0.00  0.00    +0.000 A 
ATOM     18  C   UNL     1       1.021   9.035  20.049  0.00  0.00    +0.000 A 
ATOM     19  C   UNL     1       0.463   9.863  19.074  0.00  0.00    +0.000 A 
ATOM     20  C   UNL     1       0.917   9.750  17.774  0.00  0.00    +0.000 A 
ATOM     21  N   UNL     1       1.883   8.893  17.395  0.00  0.00    +0.000 NA
BRANCH  18  22
ATOM     22  C   UNL     1       0.566   9.116  21.431  0.00  0.00    +0.000 A 
ATOM     23  N   UNL     1       1.291   9.723  22.432  0.00  0.00    +0.000 NA
ATOM     24  N   UNL     1       0.580   9.609  23.544  0.00  0.00    +0.000 NA
ATOM     25  N   UNL     1      -0.520   8.948  23.172  0.00  0.00    +0.000 N 
ATOM     26  N   UNL     1      -0.600   8.618  21.875  0.00  0.00    +0.000 NA
ATOM     27  H   UNL     1      -1.250   8.711  23.838  0.00  0.00    +0.000 HD
ENDBRANCH  18  22
ENDBRANCH   5  16
TORSDOF 4
ENDMDL
