MODEL 1
REMARK VINA RESULT:      -7.4      0.000      0.000
REMARK  Name = 
REMARK  8 active torsions:
REMARK  status: ('A' for Active; 'I' for Inactive)
REMARK    1  A    between atoms: C_2  and  C_3
REMARK    2  A    between atoms: C_3  and  N_4
REMARK    3  A    between atoms: C_8  and  C_9
REMARK    4  A    between atoms: C_13  and  O_14
REMARK    5  A    between atoms: O_14  and  C_15
REMARK    6  A    between atoms: C_15  and  C_16
REMARK    7  A    between atoms: C_22  and  O_23
REMARK    8  A    between atoms: O_23  and  C_24
REMARK                            x       y       z     vdW  Elec       q    Type
REMARK                         _______ _______ _______ _____ _____    ______ ____
ROOT
ATOM      1  C   UNL     1       2.877   6.352  19.272  0.00  0.00    +0.000 A 
ATOM      2  C   UNL     1       2.499   5.043  18.976  0.00  0.00    +0.000 A 
ATOM      3  C   UNL     1       3.086   4.379  17.894  0.00  0.00    +0.000 A 
ATOM      4 BR   UNL     1       2.543   2.583  17.574  0.00  0.00    +0.000 Br
ATOM      5  C   UNL     1       4.048   5.014  17.085  0.00  0.00    +0.000 A 
ATOM      6  C   UNL     1       4.443   6.332  17.411  0.00  0.00    +0.000 A 
ATOM      7  C   UNL     1       3.840   6.993  18.485  0.00  0.00    +0.000 A 
ENDROOT
BRANCH   1  12
ATOM      8  N   UNL     1       0.473  10.070  19.514  0.00  0.00    +0.000 N 
ATOM      9  C   UNL     1       1.087   8.880  19.157  0.00  0.00    +0.000 C 
ATOM     10  O   UNL     1       1.222   8.464  18.016  0.00  0.00    +0.000 OA
ATOM     11  C   UNL     1       1.568   8.165  20.372  0.00  0.00    +0.000 C 
ATOM     12  C   UNL     1       2.324   7.060  20.426  0.00  0.00    +0.000 C 
ATOM     13  S   UNL     1       1.073   9.017  21.787  0.00  0.00    +0.000 S 
ATOM     14  C   UNL     1       0.386  10.346  20.862  0.00  0.00    +0.000 C 
ATOM     15  S   UNL     1      -0.232  11.705  21.609  0.00  0.00    +0.000 S 
BRANCH   8  16
ATOM     16  C   UNL     1      -0.026  10.938  18.455  0.00  0.00    +0.000 C 
BRANCH  16  18
ATOM     17  C   UNL     1      -1.927  10.146  17.011  0.00  0.00    +0.000 C 
ATOM     18  C   UNL     1      -1.465  10.608  18.181  0.00  0.00    +0.000 C 
ENDBRANCH  16  18
ENDBRANCH   8  16
ENDBRANCH   1  12
BRANCH   6  19
ATOM     19  O   UNL     1       5.463   6.887  16.689  0.00  0.00    +0.000 OA
ATOM     20  C   UNL     1       6.665   7.263  17.337  0.00  0.00    +0.000 C 
ENDBRANCH   6  19
BRANCH   5  21
ATOM     21  O   UNL     1       4.544   4.273  16.032  0.00  0.00    +0.000 OA
BRANCH  21  22
ATOM     22  C   UNL     1       5.969   4.162  15.958  0.00  0.00    +0.000 C 
BRANCH  22  23
ATOM     23  C   UNL     1       6.524   4.269  14.561  0.00  0.00    +0.000 A 
ATOM     24  C   UNL     1       5.970   3.571  13.495  0.00  0.00    +0.000 A 
ATOM     25  C   UNL     1       6.465   3.798  12.217  0.00  0.00    +0.000 A 
ATOM     26  C   UNL     1       7.491   4.721  12.033  0.00  0.00    +0.000 A 
ATOM     27  C   UNL     1       7.986   5.376  13.140  0.00  0.00    +0.000 A 
ATOM     28  N   UNL     1       7.525   5.178  14.392  0.00  0.00    +0.000 NA
ENDBRANCH  22  23
ENDBRANCH  21  22
ENDBRANCH   5  21
TORSDOF 7
ENDMDL
MODEL 2
REMARK VINA RESULT:      -6.9      4.765     10.162
REMARK  Name = 
REMARK  8 active torsions:
REMARK  status: ('A' for Active; 'I' for Inactive)
REMARK    1  A    between atoms: C_2  and  C_3
REMARK    2  A    between atoms: C_3  and  N_4
REMARK    3  A    between atoms: C_8  and  C_9
REMARK    4  A    between atoms: C_13  and  O_14
REMARK    5  A    between atoms: O_14  and  C_15
REMARK    6  A    between atoms: C_15  and  C_16
REMARK    7  A    between atoms: C_22  and  O_23
REMARK    8  A    between atoms: O_23  and  C_24
REMARK                            x       y       z     vdW  Elec       q    Type
REMARK                         _______ _______ _______ _____ _____    ______ ____
ROOT
ATOM      1  C   UNL     1       1.249   9.844  18.550  0.00  0.00    +0.000 A 
ATOM      2  C   UNL     1      -0.071   9.946  18.113  0.00  0.00    +0.000 A 
ATOM      3  C   UNL     1      -0.929  10.878  18.706  0.00  0.00    +0.000 A 
ATOM      4 BR   UNL     1      -2.706  10.981  18.033  0.00  0.00    +0.000 Br
ATOM      5  C   UNL     1      -0.486  11.713  19.750  0.00  0.00    +0.000 A 
ATOM      6  C   UNL     1       0.861  11.620  20.166  0.00  0.00    +0.000 A 
ATOM      7  C   UNL     1       1.708  10.674  19.579  0.00  0.00    +0.000 A 
ENDROOT
BRANCH   1  12
ATOM      8  N   UNL     1       2.735   5.878  19.862  0.00  0.00    +0.000 N 
ATOM      9  C   UNL     1       2.015   7.037  19.616  0.00  0.00    +0.000 C 
ATOM     10  O   UNL     1       1.088   7.455  20.295  0.00  0.00    +0.000 OA
ATOM     11  C   UNL     1       2.534   7.714  18.396  0.00  0.00    +0.000 C 
ATOM     12  C   UNL     1       2.189   8.918  17.920  0.00  0.00    +0.000 C 
ATOM     13  S   UNL     1       3.755   6.745  17.662  0.00  0.00    +0.000 S 
ATOM     14  C   UNL     1       3.724   5.556  18.958  0.00  0.00    +0.000 C 
ATOM     15  S   UNL     1       4.797   4.277  18.999  0.00  0.00    +0.000 S 
BRANCH   8  16
ATOM     16  C   UNL     1       2.406   5.096  21.047  0.00  0.00    +0.000 C 
BRANCH  16  18
ATOM     17  C   UNL     1       1.342   2.821  21.194  0.00  0.00    +0.000 C 
ATOM     18  C   UNL     1       1.379   4.061  20.687  0.00  0.00    +0.000 C 
ENDBRANCH  16  18
ENDBRANCH   8  16
ENDBRANCH   1  12
BRANCH   6  19
ATOM     19  O   UNL     1       1.304  12.519  21.096  0.00  0.00    +0.000 OA
ATOM     20  C   UNL     1       2.260  13.500  20.733  0.00  0.00    +0.000 C 
ENDBRANCH   6  19
BRANCH   5  21
ATOM     21  O   UNL     1      -1.423  12.579  20.277  0.00  0.00    +0.000 OA
BRANCH  21  22
ATOM     22  C   UNL     1      -2.010  12.189  21.523  0.00  0.00    +0.000 C 
BRANCH  22  23
ATOM     23  C   UNL     1      -3.401  12.724  21.744  0.00  0.00    +0.000 A 
ATOM     24  C   UNL     1      -4.130  13.319  20.722  0.00  0.00    +0.000 A 
ATOM     25  C   UNL     1      -5.444  13.693  20.968  0.00  0.00    +0.000 A 
ATOM     26  C   UNL     1      -6.002  13.456  22.221  0.00  0.00    +0.000 A 
ATOM     27  C   UNL     1      -5.216  12.858  23.183  0.00  0.00    +0.000 A 
ATOM     28  N   UNL     1      -3.937  12.482  22.973  0.00  0.00    +0.000 NA
ENDBRANCH  22  23
ENDBRANCH  21  22
ENDBRANCH   5  21
TORSDOF 7
ENDMDL
MODEL 3
REMARK VINA RESULT:      -6.8      2.729      3.844
REMARK  Name = 
REMARK  8 active torsions:
REMARK  status: ('A' for Active; 'I' for Inactive)
REMARK    1  A    between atoms: C_2  and  C_3
REMARK    2  A    between atoms: C_3  and  N_4
REMARK    3  A    between atoms: C_8  and  C_9
REMARK    4  A    between atoms: C_13  and  O_14
REMARK    5  A    between atoms: O_14  and  C_15
REMARK    6  A    between atoms: C_15  and  C_16
REMARK    7  A    between atoms: C_22  and  O_23
REMARK    8  A    between atoms: O_23  and  C_24
REMARK                            x       y       z     vdW  Elec       q    Type
REMARK                         _______ _______ _______ _____ _____    ______ ____
ROOT
ATOM      1  C   UNL     1       1.474   7.520  20.687  0.00  0.00    +0.000 A 
ATOM      2  C   UNL     1       2.293   7.831  19.603  0.00  0.00    +0.000 A 
ATOM      3  C   UNL     1       2.766   6.806  18.775  0.00  0.00    +0.000 A 
ATOM      4 BR   UNL     1       3.851   7.312  17.295  0.00  0.00    +0.000 Br
ATOM      5  C   UNL     1       2.439   5.460  19.025  0.00  0.00    +0.000 A 
ATOM      6  C   UNL     1       1.586   5.160  20.111  0.00  0.00    +0.000 A 
ATOM      7  C   UNL     1       1.130   6.188  20.942  0.00  0.00    +0.000 A 
ENDROOT
BRANCH   1  12
ATOM      8  N   UNL     1      -0.860  11.154  19.684  0.00  0.00    +0.000 N 
ATOM      9  C   UNL     1      -0.264   9.904  19.737  0.00  0.00    +0.000 C 
ATOM     10  O   UNL     1      -0.121   9.144  18.791  0.00  0.00    +0.000 OA
ATOM     11  C   UNL     1       0.185   9.608  21.126  0.00  0.00    +0.000 C 
ATOM     12  C   UNL     1       0.918   8.567  21.544  0.00  0.00    +0.000 C 
ATOM     13  S   UNL     1      -0.314  10.873  22.185  0.00  0.00    +0.000 S 
ATOM     14  C   UNL     1      -0.961  11.847  20.871  0.00  0.00    +0.000 C 
ATOM     15  S   UNL     1      -1.563  13.382  21.134  0.00  0.00    +0.000 S 
BRANCH   8  16
ATOM     16  C   UNL     1      -1.327  11.645  18.394  0.00  0.00    +0.000 C 
BRANCH  16  18
ATOM     17  C   UNL     1      -3.841  11.714  18.418  0.00  0.00    +0.000 C 
ATOM     18  C   UNL     1      -2.694  11.090  18.117  0.00  0.00    +0.000 C 
ENDBRANCH  16  18
ENDBRANCH   8  16
ENDBRANCH   1  12
BRANCH   6  19
ATOM     19  O   UNL     1       1.184   3.862  20.265  0.00  0.00    +0.000 OA
ATOM     20  C   UNL     1       1.484   3.165  21.461  0.00  0.00    +0.000 C 
ENDBRANCH   6  19
BRANCH   5  21
ATOM     21  O   UNL     1       2.979   4.531  18.157  0.00  0.00    +0.000 OA
BRANCH  21  22
ATOM     22  C   UNL     1       4.043   3.728  18.679  0.00  0.00    +0.000 C 
BRANCH  22  23
ATOM     23  C   UNL     1       5.414   4.324  18.495  0.00  0.00    +0.000 A 
ATOM     24  C   UNL     1       6.061   4.313  17.266  0.00  0.00    +0.000 A 
ATOM     25  C   UNL     1       7.276   4.973  17.143  0.00  0.00    +0.000 A 
ATOM     26  C   UNL     1       7.811   5.636  18.244  0.00  0.00    +0.000 A 
ATOM     27  C   UNL     1       7.108   5.605  19.430  0.00  0.00    +0.000 A 
ATOM     28  N   UNL     1       5.925   4.974  19.579  0.00  0.00    +0.000 NA
ENDBRANCH  22  23
ENDBRANCH  21  22
ENDBRANCH   5  21
TORSDOF 7
ENDMDL
MODEL 4
REMARK VINA RESULT:      -6.8      2.315      3.614
REMARK  Name = 
REMARK  8 active torsions:
REMARK  status: ('A' for Active; 'I' for Inactive)
REMARK    1  A    between atoms: C_2  and  C_3
REMARK    2  A    between atoms: C_3  and  N_4
REMARK    3  A    between atoms: C_8  and  C_9
REMARK    4  A    between atoms: C_13  and  O_14
REMARK    5  A    between atoms: O_14  and  C_15
REMARK    6  A    between atoms: C_15  and  C_16
REMARK    7  A    between atoms: C_22  and  O_23
REMARK    8  A    between atoms: O_23  and  C_24
REMARK                            x       y       z     vdW  Elec       q    Type
REMARK                         _______ _______ _______ _____ _____    ______ ____
ROOT
ATOM      1  C   UNL     1       1.378   7.890  20.764  0.00  0.00    +0.000 A 
ATOM      2  C   UNL     1       2.140   8.128  19.622  0.00  0.00    +0.000 A 
ATOM      3  C   UNL     1       2.608   7.049  18.863  0.00  0.00    +0.000 A 
ATOM      4 BR   UNL     1       3.614   7.454  17.299  0.00  0.00    +0.000 Br
ATOM      5  C   UNL     1       2.333   5.721  19.240  0.00  0.00    +0.000 A 
ATOM      6  C   UNL     1       1.536   5.493  20.385  0.00  0.00    +0.000 A 
ATOM      7  C   UNL     1       1.085   6.576  21.146  0.00  0.00    +0.000 A 
ENDROOT
BRANCH   1  12
ATOM      8  N   UNL     1      -1.121  11.352  19.566  0.00  0.00    +0.000 N 
ATOM      9  C   UNL     1      -0.482  10.129  19.698  0.00  0.00    +0.000 C 
ATOM     10  O   UNL     1      -0.357   9.293  18.815  0.00  0.00    +0.000 OA
ATOM     11  C   UNL     1       0.042   9.970  21.083  0.00  0.00    +0.000 C 
ATOM     12  C   UNL     1       0.827   8.992  21.553  0.00  0.00    +0.000 C 
ATOM     13  S   UNL     1      -0.450  11.308  22.052  0.00  0.00    +0.000 S 
ATOM     14  C   UNL     1      -1.190  12.144  20.692  0.00  0.00    +0.000 C 
ATOM     15  S   UNL     1      -1.830  13.677  20.850  0.00  0.00    +0.000 S 
BRANCH   8  16
ATOM     16  C   UNL     1      -1.663  11.714  18.263  0.00  0.00    +0.000 C 
BRANCH  16  18
ATOM     17  C   UNL     1      -3.530  10.387  17.224  0.00  0.00    +0.000 C 
ATOM     18  C   UNL     1      -3.081  11.230  18.164  0.00  0.00    +0.000 C 
ENDBRANCH  16  18
ENDBRANCH   8  16
ENDBRANCH   1  12
BRANCH   6  19
ATOM     19  O   UNL     1       1.179   4.203  20.666  0.00  0.00    +0.000 OA
ATOM     20  C   UNL     1       1.929   3.450  21.603  0.00  0.00    +0.000 C 
ENDBRANCH   6  19
BRANCH   5  21
ATOM     21  O   UNL     1       2.863   4.736  18.431  0.00  0.00    +0.000 OA
BRANCH  21  22
ATOM     22  C   UNL     1       4.124   4.197  18.842  0.00  0.00    +0.000 C 
BRANCH  22  23
ATOM     23  C   UNL     1       5.212   4.315  17.806  0.00  0.00    +0.000 A 
ATOM     24  C   UNL     1       6.513   4.664  18.144  0.00  0.00    +0.000 A 
ATOM     25  C   UNL     1       7.488   4.651  17.156  0.00  0.00    +0.000 A 
ATOM     26  C   UNL     1       7.144   4.281  15.859  0.00  0.00    +0.000 A 
ATOM     27  C   UNL     1       5.832   3.946  15.601  0.00  0.00    +0.000 A 
ATOM     28  N   UNL     1       4.864   3.947  16.541  0.00  0.00    +0.000 NA
ENDBRANCH  22  23
ENDBRANCH  21  22
ENDBRANCH   5  21
TORSDOF 7
ENDMDL
MODEL 5
REMARK VINA RESULT:      -6.8      4.822     10.049
REMARK  Name = 
REMARK  8 active torsions:
REMARK  status: ('A' for Active; 'I' for Inactive)
REMARK    1  A    between atoms: C_2  and  C_3
REMARK    2  A    between atoms: C_3  and  N_4
REMARK    3  A    between atoms: C_8  and  C_9
REMARK    4  A    between atoms: C_13  and  O_14
REMARK    5  A    between atoms: O_14  and  C_15
REMARK    6  A    between atoms: C_15  and  C_16
REMARK    7  A    between atoms: C_22  and  O_23
REMARK    8  A    between atoms: O_23  and  C_24
REMARK                            x       y       z     vdW  Elec       q    Type
REMARK                         _______ _______ _______ _____ _____    ______ ____
ROOT
ATOM      1  C   UNL     1       1.500   9.738  18.162  0.00  0.00    +0.000 A 
ATOM      2  C   UNL     1       1.955  10.792  18.952  0.00  0.00    +0.000 A 
ATOM      3  C   UNL     1       1.038  11.703  19.489  0.00  0.00    +0.000 A 
ATOM      4 BR   UNL     1       1.733  13.097  20.584  0.00  0.00    +0.000 Br
ATOM      5  C   UNL     1      -0.342  11.581  19.236  0.00  0.00    +0.000 A 
ATOM      6  C   UNL     1      -0.794  10.492  18.457  0.00  0.00    +0.000 A 
ATOM      7  C   UNL     1       0.130   9.596  17.911  0.00  0.00    +0.000 A 
ENDROOT
BRANCH   1  12
ATOM      8  N   UNL     1       2.817   5.835  19.804  0.00  0.00    +0.000 N 
ATOM      9  C   UNL     1       2.143   6.994  19.454  0.00  0.00    +0.000 C 
ATOM     10  O   UNL     1       1.216   7.492  20.075  0.00  0.00    +0.000 OA
ATOM     11  C   UNL     1       2.713   7.561  18.200  0.00  0.00    +0.000 C 
ATOM     12  C   UNL     1       2.421   8.737  17.627  0.00  0.00    +0.000 C 
ATOM     13  S   UNL     1       3.917   6.499  17.572  0.00  0.00    +0.000 S 
ATOM     14  C   UNL     1       3.815   5.413  18.952  0.00  0.00    +0.000 C 
ATOM     15  S   UNL     1       4.841   4.107  19.116  0.00  0.00    +0.000 S 
BRANCH   8  16
ATOM     16  C   UNL     1       2.433   5.155  21.034  0.00  0.00    +0.000 C 
BRANCH  16  18
ATOM     17  C   UNL     1       1.367   2.883  21.207  0.00  0.00    +0.000 C 
ATOM     18  C   UNL     1       1.375   4.134  20.726  0.00  0.00    +0.000 C 
ENDBRANCH  16  18
ENDBRANCH   8  16
ENDBRANCH   1  12
BRANCH   6  19
ATOM     19  O   UNL     1      -2.144  10.323  18.322  0.00  0.00    +0.000 OA
ATOM     20  C   UNL     1      -2.807  10.808  17.168  0.00  0.00    +0.000 C 
ENDBRANCH   6  19
BRANCH   5  21
ATOM     21  O   UNL     1      -1.152  12.548  19.797  0.00  0.00    +0.000 OA
BRANCH  21  22
ATOM     22  C   UNL     1      -1.696  12.242  21.085  0.00  0.00    +0.000 C 
BRANCH  22  23
ATOM     23  C   UNL     1      -3.145  12.619  21.248  0.00  0.00    +0.000 A 
ATOM     24  C   UNL     1      -4.008  12.705  20.163  0.00  0.00    +0.000 A 
ATOM     25  C   UNL     1      -5.354  12.953  20.395  0.00  0.00    +0.000 A 
ATOM     26  C   UNL     1      -5.808  13.098  21.704  0.00  0.00    +0.000 A 
ATOM     27  C   UNL     1      -4.892  12.996  22.728  0.00  0.00    +0.000 A 
ATOM     28  N   UNL     1      -3.579  12.754  22.533  0.00  0.00    +0.000 NA
ENDBRANCH  22  23
ENDBRANCH  21  22
ENDBRANCH   5  21
TORSDOF 7
ENDMDL
MODEL 6
REMARK VINA RESULT:      -6.8      4.746     10.116
REMARK  Name = 
REMARK  8 active torsions:
REMARK  status: ('A' for Active; 'I' for Inactive)
REMARK    1  A    between atoms: C_2  and  C_3
REMARK    2  A    between atoms: C_3  and  N_4
REMARK    3  A    between atoms: C_8  and  C_9
REMARK    4  A    between atoms: C_13  and  O_14
REMARK    5  A    between atoms: O_14  and  C_15
REMARK    6  A    between atoms: C_15  and  C_16
REMARK    7  A    between atoms: C_22  and  O_23
REMARK    8  A    between atoms: O_23  and  C_24
REMARK                            x       y       z     vdW  Elec       q    Type
REMARK                         _______ _______ _______ _____ _____    ______ ____
ROOT
ATOM      1  C   UNL     1       1.293   9.809  18.577  0.00  0.00    +0.000 A 
ATOM      2  C   UNL     1      -0.025   9.945  18.142  0.00  0.00    +0.000 A 
ATOM      3  C   UNL     1      -0.865  10.879  18.758  0.00  0.00    +0.000 A 
ATOM      4 BR   UNL     1      -2.640  11.030  18.087  0.00  0.00    +0.000 Br
ATOM      5  C   UNL     1      -0.408  11.678  19.823  0.00  0.00    +0.000 A 
ATOM      6  C   UNL     1       0.937  11.550  20.237  0.00  0.00    +0.000 A 
ATOM      7  C   UNL     1       1.766  10.604  19.626  0.00  0.00    +0.000 A 
ENDROOT
BRANCH   1  12
ATOM      8  N   UNL     1       2.782   5.827  19.836  0.00  0.00    +0.000 N 
ATOM      9  C   UNL     1       2.063   6.990  19.611  0.00  0.00    +0.000 C 
ATOM     10  O   UNL     1       1.151   7.409  20.308  0.00  0.00    +0.000 OA
ATOM     11  C   UNL     1       2.563   7.673  18.385  0.00  0.00    +0.000 C 
ATOM     12  C   UNL     1       2.216   8.882  17.923  0.00  0.00    +0.000 C 
ATOM     13  S   UNL     1       3.766   6.702  17.623  0.00  0.00    +0.000 S 
ATOM     14  C   UNL     1       3.752   5.505  18.912  0.00  0.00    +0.000 C 
ATOM     15  S   UNL     1       4.819   4.220  18.926  0.00  0.00    +0.000 S 
BRANCH   8  16
ATOM     16  C   UNL     1       2.469   5.038  21.021  0.00  0.00    +0.000 C 
BRANCH  16  18
ATOM     17  C   UNL     1       1.327   2.799  21.083  0.00  0.00    +0.000 C 
ATOM     18  C   UNL     1       1.356   4.083  20.702  0.00  0.00    +0.000 C 
ENDBRANCH  16  18
ENDBRANCH   8  16
ENDBRANCH   1  12
BRANCH   6  19
ATOM     19  O   UNL     1       1.395  12.418  21.189  0.00  0.00    +0.000 OA
ATOM     20  C   UNL     1       2.090  13.590  20.802  0.00  0.00    +0.000 C 
ENDBRANCH   6  19
BRANCH   5  21
ATOM     21  O   UNL     1      -1.330  12.548  20.371  0.00  0.00    +0.000 OA
BRANCH  21  22
ATOM     22  C   UNL     1      -2.037  12.073  21.521  0.00  0.00    +0.000 C 
BRANCH  22  23
ATOM     23  C   UNL     1      -2.180  13.091  22.621  0.00  0.00    +0.000 A 
ATOM     24  C   UNL     1      -3.317  13.157  23.418  0.00  0.00    +0.000 A 
ATOM     25  C   UNL     1      -3.339  14.050  24.481  0.00  0.00    +0.000 A 
ATOM     26  C   UNL     1      -2.224  14.846  24.731  0.00  0.00    +0.000 A 
ATOM     27  C   UNL     1      -1.133  14.721  23.898  0.00  0.00    +0.000 A 
ATOM     28  N   UNL     1      -1.081  13.862  22.859  0.00  0.00    +0.000 NA
ENDBRANCH  22  23
ENDBRANCH  21  22
ENDBRANCH   5  21
TORSDOF 7
ENDMDL
MODEL 7
REMARK VINA RESULT:      -6.7      2.414      3.661
REMARK  Name = 
REMARK  8 active torsions:
REMARK  status: ('A' for Active; 'I' for Inactive)
REMARK    1  A    between atoms: C_2  and  C_3
REMARK    2  A    between atoms: C_3  and  N_4
REMARK    3  A    between atoms: C_8  and  C_9
REMARK    4  A    between atoms: C_13  and  O_14
REMARK    5  A    between atoms: O_14  and  C_15
REMARK    6  A    between atoms: C_15  and  C_16
REMARK    7  A    between atoms: C_22  and  O_23
REMARK    8  A    between atoms: O_23  and  C_24
REMARK                            x       y       z     vdW  Elec       q    Type
REMARK                         _______ _______ _______ _____ _____    ______ ____
ROOT
ATOM      1  C   UNL     1       1.280   8.135  20.843  0.00  0.00    +0.000 A 
ATOM      2  C   UNL     1       1.973   8.381  19.659  0.00  0.00    +0.000 A 
ATOM      3  C   UNL     1       2.528   7.314  18.945  0.00  0.00    +0.000 A 
ATOM      4 BR   UNL     1       3.431   7.726  17.321  0.00  0.00    +0.000 Br
ATOM      5  C   UNL     1       2.410   5.989  19.408  0.00  0.00    +0.000 A 
ATOM      6  C   UNL     1       1.682   5.750  20.596  0.00  0.00    +0.000 A 
ATOM      7  C   UNL     1       1.143   6.824  21.311  0.00  0.00    +0.000 A 
ENDROOT
BRANCH   1  12
ATOM      8  N   UNL     1      -1.258  11.502  19.469  0.00  0.00    +0.000 N 
ATOM      9  C   UNL     1      -0.586  10.303  19.648  0.00  0.00    +0.000 C 
ATOM     10  O   UNL     1      -0.375   9.469  18.779  0.00  0.00    +0.000 OA
ATOM     11  C   UNL     1      -0.147  10.167  21.064  0.00  0.00    +0.000 C 
ATOM     12  C   UNL     1       0.641   9.219  21.589  0.00  0.00    +0.000 C 
ATOM     13  S   UNL     1      -0.747  11.490  21.992  0.00  0.00    +0.000 S 
ATOM     14  C   UNL     1      -1.427  12.294  20.584  0.00  0.00    +0.000 C 
ATOM     15  S   UNL     1      -2.130  13.804  20.692  0.00  0.00    +0.000 S 
BRANCH   8  16
ATOM     16  C   UNL     1      -1.728  11.839  18.131  0.00  0.00    +0.000 C 
BRANCH  16  18
ATOM     17  C   UNL     1      -3.474  10.281  17.211  0.00  0.00    +0.000 C 
ATOM     18  C   UNL     1      -3.133  11.339  17.958  0.00  0.00    +0.000 C 
ENDBRANCH  16  18
ENDBRANCH   8  16
ENDBRANCH   1  12
BRANCH   6  19
ATOM     19  O   UNL     1       1.476   4.449  20.964  0.00  0.00    +0.000 OA
ATOM     20  C   UNL     1       0.712   3.591  20.135  0.00  0.00    +0.000 C 
ENDBRANCH   6  19
BRANCH   5  21
ATOM     21  O   UNL     1       3.016   5.018  18.637  0.00  0.00    +0.000 OA
BRANCH  21  22
ATOM     22  C   UNL     1       4.295   4.562  19.089  0.00  0.00    +0.000 C 
BRANCH  22  23
ATOM     23  C   UNL     1       5.327   4.438  17.999  0.00  0.00    +0.000 A 
ATOM     24  C   UNL     1       4.971   4.292  16.664  0.00  0.00    +0.000 A 
ATOM     25  C   UNL     1       5.971   4.289  15.701  0.00  0.00    +0.000 A 
ATOM     26  C   UNL     1       7.299   4.442  16.091  0.00  0.00    +0.000 A 
ATOM     27  C   UNL     1       7.572   4.585  17.434  0.00  0.00    +0.000 A 
ATOM     28  N   UNL     1       6.622   4.594  18.392  0.00  0.00    +0.000 NA
ENDBRANCH  22  23
ENDBRANCH  21  22
ENDBRANCH   5  21
TORSDOF 7
ENDMDL
MODEL 8
REMARK VINA RESULT:      -6.7      2.759      3.910
REMARK  Name = 
REMARK  8 active torsions:
REMARK  status: ('A' for Active; 'I' for Inactive)
REMARK    1  A    between atoms: C_2  and  C_3
REMARK    2  A    between atoms: C_3  and  N_4
REMARK    3  A    between atoms: C_8  and  C_9
REMARK    4  A    between atoms: C_13  and  O_14
REMARK    5  A    between atoms: O_14  and  C_15
REMARK    6  A    between atoms: C_15  and  C_16
REMARK    7  A    between atoms: C_22  and  O_23
REMARK    8  A    between atoms: O_23  and  C_24
REMARK                            x       y       z     vdW  Elec       q    Type
REMARK                         _______ _______ _______ _____ _____    ______ ____
ROOT
ATOM      1  C   UNL     1       1.457   7.187  20.671  0.00  0.00    +0.000 A 
ATOM      2  C   UNL     1       2.298   7.590  19.635  0.00  0.00    +0.000 A 
ATOM      3  C   UNL     1       2.812   6.637  18.748  0.00  0.00    +0.000 A 
ATOM      4 BR   UNL     1       3.927   7.268  17.340  0.00  0.00    +0.000 Br
ATOM      5  C   UNL     1       2.503   5.271  18.889  0.00  0.00    +0.000 A 
ATOM      6  C   UNL     1       1.627   4.878  19.926  0.00  0.00    +0.000 A 
ATOM      7  C   UNL     1       1.131   5.834  20.817  0.00  0.00    +0.000 A 
ENDROOT
BRANCH   1  12
ATOM      8  N   UNL     1      -0.012  11.312  19.968  0.00  0.00    +0.000 N 
ATOM      9  C   UNL     1       0.368   9.981  19.886  0.00  0.00    +0.000 C 
ATOM     10  O   UNL     1       0.634   9.380  18.856  0.00  0.00    +0.000 OA
ATOM     11  C   UNL     1       0.410   9.374  21.246  0.00  0.00    +0.000 C 
ATOM     12  C   UNL     1       0.859   8.159  21.586  0.00  0.00    +0.000 C 
ATOM     13  S   UNL     1      -0.153  10.512  22.412  0.00  0.00    +0.000 S 
ATOM     14  C   UNL     1      -0.307  11.799  21.223  0.00  0.00    +0.000 C 
ATOM     15  S   UNL     1      -0.731  13.353  21.664  0.00  0.00    +0.000 S 
BRANCH   8  16
ATOM     16  C   UNL     1      -0.066  12.094  18.740  0.00  0.00    +0.000 C 
BRANCH  16  18
ATOM     17  C   UNL     1       2.360  12.469  18.194  0.00  0.00    +0.000 C 
ATOM     18  C   UNL     1       1.178  12.927  18.628  0.00  0.00    +0.000 C 
ENDBRANCH  16  18
ENDBRANCH   8  16
ENDBRANCH   1  12
BRANCH   6  19
ATOM     19  O   UNL     1       1.244   3.566  19.973  0.00  0.00    +0.000 OA
ATOM     20  C   UNL     1       1.373   2.834  21.179  0.00  0.00    +0.000 C 
ENDBRANCH   6  19
BRANCH   5  21
ATOM     21  O   UNL     1       3.083   4.418  17.972  0.00  0.00    +0.000 OA
BRANCH  21  22
ATOM     22  C   UNL     1       4.159   3.608  18.458  0.00  0.00    +0.000 C 
BRANCH  22  23
ATOM     23  C   UNL     1       5.509   4.273  18.393  0.00  0.00    +0.000 A 
ATOM     24  C   UNL     1       6.219   4.379  17.203  0.00  0.00    +0.000 A 
ATOM     25  C   UNL     1       7.408   5.096  17.194  0.00  0.00    +0.000 A 
ATOM     26  C   UNL     1       7.854   5.698  18.367  0.00  0.00    +0.000 A 
ATOM     27  C   UNL     1       7.093   5.551  19.507  0.00  0.00    +0.000 A 
ATOM     28  N   UNL     1       5.934   4.862  19.546  0.00  0.00    +0.000 NA
ENDBRANCH  22  23
ENDBRANCH  21  22
ENDBRANCH   5  21
TORSDOF 7
ENDMDL
MODEL 9
REMARK VINA RESULT:      -6.7      1.412      2.179
REMARK  Name = 
REMARK  8 active torsions:
REMARK  status: ('A' for Active; 'I' for Inactive)
REMARK    1  A    between atoms: C_2  and  C_3
REMARK    2  A    between atoms: C_3  and  N_4
REMARK    3  A    between atoms: C_8  and  C_9
REMARK    4  A    between atoms: C_13  and  O_14
REMARK    5  A    between atoms: O_14  and  C_15
REMARK    6  A    between atoms: C_15  and  C_16
REMARK    7  A    between atoms: C_22  and  O_23
REMARK    8  A    between atoms: O_23  and  C_24
REMARK                            x       y       z     vdW  Elec       q    Type
REMARK                         _______ _______ _______ _____ _____    ______ ____
ROOT
ATOM      1  C   UNL     1       3.130   6.020  19.535  0.00  0.00    +0.000 A 
ATOM      2  C   UNL     1       4.361   6.500  19.091  0.00  0.00    +0.000 A 
ATOM      3  C   UNL     1       5.009   5.866  18.024  0.00  0.00    +0.000 A 
ATOM      4 BR   UNL     1       6.669   6.600  17.452  0.00  0.00    +0.000 Br
ATOM      5  C   UNL     1       4.444   4.740  17.396  0.00  0.00    +0.000 A 
ATOM      6  C   UNL     1       3.183   4.279  17.838  0.00  0.00    +0.000 A 
ATOM      7  C   UNL     1       2.550   4.908  18.914  0.00  0.00    +0.000 A 
ENDROOT
BRANCH   1  12
ATOM      8  N   UNL     1       0.737   9.753  19.540  0.00  0.00    +0.000 N 
ATOM      9  C   UNL     1       1.396   8.571  19.237  0.00  0.00    +0.000 C 
ATOM     10  O   UNL     1       1.715   8.202  18.116  0.00  0.00    +0.000 OA
ATOM     11  C   UNL     1       1.668   7.801  20.483  0.00  0.00    +0.000 C 
ATOM     12  C   UNL     1       2.399   6.686  20.612  0.00  0.00    +0.000 C 
ATOM     13  S   UNL     1       0.952   8.599  21.832  0.00  0.00    +0.000 S 
ATOM     14  C   UNL     1       0.432   9.974  20.865  0.00  0.00    +0.000 C 
ATOM     15  S   UNL     1      -0.293  11.308  21.559  0.00  0.00    +0.000 S 
BRANCH   8  16
ATOM     16  C   UNL     1       0.424  10.669  18.451  0.00  0.00    +0.000 C 
BRANCH  16  18
ATOM     17  C   UNL     1      -1.621   9.973  17.163  0.00  0.00    +0.000 C 
ATOM     18  C   UNL     1      -1.053  10.632  18.182  0.00  0.00    +0.000 C 
ENDBRANCH  16  18
ENDBRANCH   8  16
ENDBRANCH   1  12
BRANCH   6  19
ATOM     19  O   UNL     1       2.597   3.260  17.138  0.00  0.00    +0.000 OA
ATOM     20  C   UNL     1       2.329   2.025  17.778  0.00  0.00    +0.000 C 
ENDBRANCH   6  19
BRANCH   5  21
ATOM     21  O   UNL     1       5.181   4.181  16.370  0.00  0.00    +0.000 OA
BRANCH  21  22
ATOM     22  C   UNL     1       4.726   4.466  15.043  0.00  0.00    +0.000 C 
BRANCH  22  23
ATOM     23  C   UNL     1       5.787   4.327  13.984  0.00  0.00    +0.000 A 
ATOM     24  C   UNL     1       5.642   3.460  12.908  0.00  0.00    +0.000 A 
ATOM     25  C   UNL     1       6.611   3.459  11.913  0.00  0.00    +0.000 A 
ATOM     26  C   UNL     1       7.694   4.329  12.010  0.00  0.00    +0.000 A 
ATOM     27  C   UNL     1       7.767   5.162  13.107  0.00  0.00    +0.000 A 
ATOM     28  N   UNL     1       6.840   5.186  14.087  0.00  0.00    +0.000 NA
ENDBRANCH  22  23
ENDBRANCH  21  22
ENDBRANCH   5  21
TORSDOF 7
ENDMDL
