MODEL 1
REMARK VINA RESULT:      -6.5      0.000      0.000
REMARK  Name = 
REMARK  8 active torsions:
REMARK  status: ('A' for Active; 'I' for Inactive)
REMARK    1  A    between atoms: C_1  and  N_2
REMARK    2  A    between atoms: N_2  and  C_3
REMARK    3  A    between atoms: C_3  and  C_4
REMARK    4  A    between atoms: C_8  and  C_10
REMARK    5  A    between atoms: C_10  and  N_11
REMARK    6  A    between atoms: C_12  and  C_14
REMARK    7  A    between atoms: C_14  and  C_15
REMARK    8  A    between atoms: C_19  and  O_20
REMARK                            x       y       z     vdW  Elec       q    Type
REMARK                         _______ _______ _______ _____ _____    ______ ____
ROOT
ATOM      1  N   UNL     1       4.862   3.137  17.299  0.00  0.00    +0.000 N 
ATOM      2  C   UNL     1       5.230   3.858  16.183  0.00  0.00    +0.000 C 
ATOM      3  O   UNL     1       4.423   4.225  15.332  0.00  0.00    +0.000 OA
ATOM      4  H   UNL     1       5.472   3.176  18.107  0.00  0.00    +0.000 HD
ENDROOT
BRANCH   1   5
ATOM      5  C   UNL     1       3.464   2.846  17.541  0.00  0.00    +0.000 C 
BRANCH   5   8
ATOM      6  C   UNL     1       2.062   4.881  20.491  0.00  0.00    +0.000 C 
ATOM      7  N   UNL     1       2.457   4.517  19.140  0.00  0.00    +0.000 N 
ATOM      8  C   UNL     1       3.016   3.250  18.962  0.00  0.00    +0.000 C 
ATOM      9  O   UNL     1       3.093   2.444  19.891  0.00  0.00    +0.000 OA
BRANCH   7  10
ATOM     10  C   UNL     1       2.385   5.558  18.090  0.00  0.00    +0.000 C 
BRANCH  10  11
ATOM     11  C   UNL     1       3.504   6.611  18.086  0.00  0.00    +0.000 C 
ATOM     12  F   UNL     1       4.577   6.228  18.814  0.00  0.00    +0.000 F 
ATOM     13  F   UNL     1       3.933   6.866  16.831  0.00  0.00    +0.000 F 
ATOM     14  F   UNL     1       3.063   7.778  18.611  0.00  0.00    +0.000 F 
ENDBRANCH  10  11
ENDBRANCH   7  10
ENDBRANCH   5   8
ENDBRANCH   1   5
BRANCH   2  15
ATOM     15  C   UNL     1       6.718   4.141  16.077  0.00  0.00    +0.000 C 
BRANCH  15  16
ATOM     16  C   UNL     1       7.189   5.190  17.050  0.00  0.00    +0.000 A 
ATOM     17  C   UNL     1       7.254   6.538  16.665  0.00  0.00    +0.000 A 
ATOM     18  C   UNL     1       7.676   7.515  17.570  0.00  0.00    +0.000 A 
ATOM     19  C   UNL     1       8.045   7.156  18.865  0.00  0.00    +0.000 A 
ATOM     20  C   UNL     1       7.996   5.818  19.242  0.00  0.00    +0.000 A 
ATOM     21  C   UNL     1       7.577   4.837  18.349  0.00  0.00    +0.000 A 
BRANCH  20  22
ATOM     22  O   UNL     1       8.352   5.421  20.498  0.00  0.00    +0.000 OA
ATOM     23  H   UNL     1       7.973   6.048  21.136  0.00  0.00    +0.000 HD
ENDBRANCH  20  22
ENDBRANCH  15  16
ENDBRANCH   2  15
TORSDOF 7
ENDMDL
MODEL 2
REMARK VINA RESULT:      -6.2      2.451      3.159
REMARK  Name = 
REMARK  8 active torsions:
REMARK  status: ('A' for Active; 'I' for Inactive)
REMARK    1  A    between atoms: C_1  and  N_2
REMARK    2  A    between atoms: N_2  and  C_3
REMARK    3  A    between atoms: C_3  and  C_4
REMARK    4  A    between atoms: C_8  and  C_10
REMARK    5  A    between atoms: C_10  and  N_11
REMARK    6  A    between atoms: C_12  and  C_14
REMARK    7  A    between atoms: C_14  and  C_15
REMARK    8  A    between atoms: C_19  and  O_20
REMARK                            x       y       z     vdW  Elec       q    Type
REMARK                         _______ _______ _______ _____ _____    ______ ____
ROOT
ATOM      1  N   UNL     1       2.536   4.544  17.554  0.00  0.00    +0.000 N 
ATOM      2  C   UNL     1       3.456   5.567  17.653  0.00  0.00    +0.000 C 
ATOM      3  O   UNL     1       3.254   6.581  18.317  0.00  0.00    +0.000 OA
ATOM      4  H   UNL     1       2.881   3.623  17.309  0.00  0.00    +0.000 HD
ENDROOT
BRANCH   1   5
ATOM      5  C   UNL     1       1.301   4.609  18.307  0.00  0.00    +0.000 C 
BRANCH   5   8
ATOM      6  C   UNL     1       2.181   2.718  21.540  0.00  0.00    +0.000 C 
ATOM      7  N   UNL     1       2.020   3.018  20.127  0.00  0.00    +0.000 N 
ATOM      8  C   UNL     1       1.504   4.273  19.800  0.00  0.00    +0.000 C 
ATOM      9  O   UNL     1       1.278   5.122  20.664  0.00  0.00    +0.000 OA
BRANCH   7  10
ATOM     10  C   UNL     1       2.260   1.929  19.154  0.00  0.00    +0.000 C 
BRANCH  10  11
ATOM     11  C   UNL     1       3.711   1.727  18.689  0.00  0.00    +0.000 C 
ATOM     12  F   UNL     1       4.561   2.620  19.246  0.00  0.00    +0.000 F 
ATOM     13  F   UNL     1       4.158   0.491  19.000  0.00  0.00    +0.000 F 
ATOM     14  F   UNL     1       3.807   1.869  17.347  0.00  0.00    +0.000 F 
ENDBRANCH  10  11
ENDBRANCH   7  10
ENDBRANCH   5   8
ENDBRANCH   1   5
BRANCH   2  15
ATOM     15  C   UNL     1       4.730   5.349  16.856  0.00  0.00    +0.000 C 
BRANCH  15  16
ATOM     16  C   UNL     1       5.950   5.927  17.526  0.00  0.00    +0.000 A 
ATOM     17  C   UNL     1       6.578   7.065  16.998  0.00  0.00    +0.000 A 
ATOM     18  C   UNL     1       7.700   7.612  17.625  0.00  0.00    +0.000 A 
ATOM     19  C   UNL     1       8.211   7.023  18.780  0.00  0.00    +0.000 A 
ATOM     20  C   UNL     1       7.599   5.885  19.295  0.00  0.00    +0.000 A 
ATOM     21  C   UNL     1       6.481   5.333  18.678  0.00  0.00    +0.000 A 
BRANCH  20  22
ATOM     22  O   UNL     1       8.068   5.274  20.420  0.00  0.00    +0.000 OA
ATOM     23  H   UNL     1       7.994   4.313  20.300  0.00  0.00    +0.000 HD
ENDBRANCH  20  22
ENDBRANCH  15  16
ENDBRANCH   2  15
TORSDOF 7
ENDMDL
MODEL 3
REMARK VINA RESULT:      -6.2      3.956      5.511
REMARK  Name = 
REMARK  8 active torsions:
REMARK  status: ('A' for Active; 'I' for Inactive)
REMARK    1  A    between atoms: C_1  and  N_2
REMARK    2  A    between atoms: N_2  and  C_3
REMARK    3  A    between atoms: C_3  and  C_4
REMARK    4  A    between atoms: C_8  and  C_10
REMARK    5  A    between atoms: C_10  and  N_11
REMARK    6  A    between atoms: C_12  and  C_14
REMARK    7  A    between atoms: C_14  and  C_15
REMARK    8  A    between atoms: C_19  and  O_20
REMARK                            x       y       z     vdW  Elec       q    Type
REMARK                         _______ _______ _______ _____ _____    ______ ____
ROOT
ATOM      1  N   UNL     1       7.456   7.785  17.067  0.00  0.00    +0.000 N 
ATOM      2  C   UNL     1       8.167   8.494  18.011  0.00  0.00    +0.000 C 
ATOM      3  O   UNL     1       8.743   7.955  18.954  0.00  0.00    +0.000 OA
ATOM      4  H   UNL     1       7.318   8.215  16.159  0.00  0.00    +0.000 HD
ENDROOT
BRANCH   1   5
ATOM      5  C   UNL     1       7.426   6.338  17.123  0.00  0.00    +0.000 C 
BRANCH   5   8
ATOM      6  C   UNL     1       3.871   4.877  17.291  0.00  0.00    +0.000 C 
ATOM      7  N   UNL     1       5.131   5.362  16.751  0.00  0.00    +0.000 N 
ATOM      8  C   UNL     1       6.088   5.797  17.670  0.00  0.00    +0.000 C 
ATOM      9  O   UNL     1       5.909   5.694  18.884  0.00  0.00    +0.000 OA
BRANCH   7  10
ATOM     10  C   UNL     1       5.248   5.507  15.283  0.00  0.00    +0.000 C 
BRANCH  10  11
ATOM     11  C   UNL     1       5.909   4.345  14.525  0.00  0.00    +0.000 C 
ATOM     12  F   UNL     1       6.084   3.253  15.306  0.00  0.00    +0.000 F 
ATOM     13  F   UNL     1       5.168   3.969  13.461  0.00  0.00    +0.000 F 
ATOM     14  F   UNL     1       7.129   4.706  14.066  0.00  0.00    +0.000 F 
ENDBRANCH  10  11
ENDBRANCH   7  10
ENDBRANCH   5   8
ENDBRANCH   1   5
BRANCH   2  15
ATOM     15  C   UNL     1       8.162   9.999  17.806  0.00  0.00    +0.000 C 
BRANCH  15  16
ATOM     16  C   UNL     1       9.267  10.699  18.554  0.00  0.00    +0.000 A 
ATOM     17  C   UNL     1      10.448  11.070  17.893  0.00  0.00    +0.000 A 
ATOM     18  C   UNL     1      11.467  11.732  18.581  0.00  0.00    +0.000 A 
ATOM     19  C   UNL     1      11.322  12.023  19.937  0.00  0.00    +0.000 A 
ATOM     20  C   UNL     1      10.158  11.641  20.596  0.00  0.00    +0.000 A 
ATOM     21  C   UNL     1       9.136  10.981  19.920  0.00  0.00    +0.000 A 
BRANCH  20  22
ATOM     22  O   UNL     1       9.975  11.901  21.922  0.00  0.00    +0.000 OA
ATOM     23  H   UNL     1      10.019  11.061  22.408  0.00  0.00    +0.000 HD
ENDBRANCH  20  22
ENDBRANCH  15  16
ENDBRANCH   2  15
TORSDOF 7
ENDMDL
MODEL 4
REMARK VINA RESULT:      -6.1      2.524      3.532
REMARK  Name = 
REMARK  8 active torsions:
REMARK  status: ('A' for Active; 'I' for Inactive)
REMARK    1  A    between atoms: C_1  and  N_2
REMARK    2  A    between atoms: N_2  and  C_3
REMARK    3  A    between atoms: C_3  and  C_4
REMARK    4  A    between atoms: C_8  and  C_10
REMARK    5  A    between atoms: C_10  and  N_11
REMARK    6  A    between atoms: C_12  and  C_14
REMARK    7  A    between atoms: C_14  and  C_15
REMARK    8  A    between atoms: C_19  and  O_20
REMARK                            x       y       z     vdW  Elec       q    Type
REMARK                         _______ _______ _______ _____ _____    ______ ____
ROOT
ATOM      1  N   UNL     1       2.512   5.354  17.966  0.00  0.00    +0.000 N 
ATOM      2  C   UNL     1       3.018   6.627  18.112  0.00  0.00    +0.000 C 
ATOM      3  O   UNL     1       2.562   7.437  18.917  0.00  0.00    +0.000 OA
ATOM      4  H   UNL     1       3.123   4.646  17.574  0.00  0.00    +0.000 HD
ENDROOT
BRANCH   1   5
ATOM      5  C   UNL     1       1.443   4.898  18.831  0.00  0.00    +0.000 C 
BRANCH   5   8
ATOM      6  C   UNL     1       2.840   2.587  21.572  0.00  0.00    +0.000 C 
ATOM      7  N   UNL     1       2.373   3.052  20.276  0.00  0.00    +0.000 N 
ATOM      8  C   UNL     1       1.965   4.384  20.190  0.00  0.00    +0.000 C 
ATOM      9  O   UNL     1       2.076   5.155  21.145  0.00  0.00    +0.000 OA
BRANCH   7  10
ATOM     10  C   UNL     1       2.216   2.054  19.194  0.00  0.00    +0.000 C 
BRANCH  10  11
ATOM     11  C   UNL     1       3.359   1.960  18.171  0.00  0.00    +0.000 C 
ATOM     12  F   UNL     1       2.949   2.239  16.912  0.00  0.00    +0.000 F 
ATOM     13  F   UNL     1       4.359   2.815  18.473  0.00  0.00    +0.000 F 
ATOM     14  F   UNL     1       3.881   0.711  18.152  0.00  0.00    +0.000 F 
ENDBRANCH  10  11
ENDBRANCH   7  10
ENDBRANCH   5   8
ENDBRANCH   1   5
BRANCH   2  15
ATOM     15  C   UNL     1       4.171   6.959  17.181  0.00  0.00    +0.000 C 
BRANCH  15  16
ATOM     16  C   UNL     1       5.400   6.130  17.447  0.00  0.00    +0.000 A 
ATOM     17  C   UNL     1       5.939   5.315  16.439  0.00  0.00    +0.000 A 
ATOM     18  C   UNL     1       7.087   4.556  16.679  0.00  0.00    +0.000 A 
ATOM     19  C   UNL     1       7.704   4.596  17.928  0.00  0.00    +0.000 A 
ATOM     20  C   UNL     1       7.160   5.392  18.932  0.00  0.00    +0.000 A 
ATOM     21  C   UNL     1       6.017   6.151  18.704  0.00  0.00    +0.000 A 
BRANCH  20  22
ATOM     22  O   UNL     1       7.728   5.458  20.171  0.00  0.00    +0.000 OA
ATOM     23  H   UNL     1       7.051   5.747  20.803  0.00  0.00    +0.000 HD
ENDBRANCH  20  22
ENDBRANCH  15  16
ENDBRANCH   2  15
TORSDOF 7
ENDMDL
MODEL 5
REMARK VINA RESULT:      -6.1      4.489      6.006
REMARK  Name = 
REMARK  8 active torsions:
REMARK  status: ('A' for Active; 'I' for Inactive)
REMARK    1  A    between atoms: C_1  and  N_2
REMARK    2  A    between atoms: N_2  and  C_3
REMARK    3  A    between atoms: C_3  and  C_4
REMARK    4  A    between atoms: C_8  and  C_10
REMARK    5  A    between atoms: C_10  and  N_11
REMARK    6  A    between atoms: C_12  and  C_14
REMARK    7  A    between atoms: C_14  and  C_15
REMARK    8  A    between atoms: C_19  and  O_20
REMARK                            x       y       z     vdW  Elec       q    Type
REMARK                         _______ _______ _______ _____ _____    ______ ____
ROOT
ATOM      1  N   UNL     1       8.523   7.820  18.875  0.00  0.00    +0.000 N 
ATOM      2  C   UNL     1       8.512   9.128  18.441  0.00  0.00    +0.000 C 
ATOM      3  O   UNL     1       7.995   9.475  17.381  0.00  0.00    +0.000 OA
ATOM      4  H   UNL     1       8.628   7.654  19.869  0.00  0.00    +0.000 HD
ENDROOT
BRANCH   1   5
ATOM      5  C   UNL     1       7.845   6.799  18.103  0.00  0.00    +0.000 C 
BRANCH   5   8
ATOM      6  C   UNL     1       5.137   4.369  19.355  0.00  0.00    +0.000 C 
ATOM      7  N   UNL     1       5.870   5.278  18.489  0.00  0.00    +0.000 N 
ATOM      8  C   UNL     1       7.057   5.814  18.993  0.00  0.00    +0.000 C 
ATOM      9  O   UNL     1       7.508   5.467  20.085  0.00  0.00    +0.000 OA
BRANCH   7  10
ATOM     10  C   UNL     1       5.237   5.689  17.216  0.00  0.00    +0.000 C 
BRANCH  10  11
ATOM     11  C   UNL     1       5.239   4.656  16.079  0.00  0.00    +0.000 C 
ATOM     12  F   UNL     1       5.237   5.233  14.855  0.00  0.00    +0.000 F 
ATOM     13  F   UNL     1       6.323   3.853  16.148  0.00  0.00    +0.000 F 
ATOM     14  F   UNL     1       4.142   3.866  16.148  0.00  0.00    +0.000 F 
ENDBRANCH  10  11
ENDBRANCH   7  10
ENDBRANCH   5   8
ENDBRANCH   1   5
BRANCH   2  15
ATOM     15  C   UNL     1       9.211  10.106  19.370  0.00  0.00    +0.000 C 
BRANCH  15  16
ATOM     16  C   UNL     1       9.759  11.312  18.651  0.00  0.00    +0.000 A 
ATOM     17  C   UNL     1      11.089  11.328  18.203  0.00  0.00    +0.000 A 
ATOM     18  C   UNL     1      11.595  12.438  17.524  0.00  0.00    +0.000 A 
ATOM     19  C   UNL     1      10.783  13.547  17.292  0.00  0.00    +0.000 A 
ATOM     20  C   UNL     1       9.469  13.538  17.750  0.00  0.00    +0.000 A 
ATOM     21  C   UNL     1       8.955  12.437  18.428  0.00  0.00    +0.000 A 
BRANCH  20  22
ATOM     22  O   UNL     1       8.640  14.602  17.549  0.00  0.00    +0.000 OA
ATOM     23  H   UNL     1       7.923  14.559  18.202  0.00  0.00    +0.000 HD
ENDBRANCH  20  22
ENDBRANCH  15  16
ENDBRANCH   2  15
TORSDOF 7
ENDMDL
MODEL 6
REMARK VINA RESULT:      -6.1      2.473      5.394
REMARK  Name = 
REMARK  8 active torsions:
REMARK  status: ('A' for Active; 'I' for Inactive)
REMARK    1  A    between atoms: C_1  and  N_2
REMARK    2  A    between atoms: N_2  and  C_3
REMARK    3  A    between atoms: C_3  and  C_4
REMARK    4  A    between atoms: C_8  and  C_10
REMARK    5  A    between atoms: C_10  and  N_11
REMARK    6  A    between atoms: C_12  and  C_14
REMARK    7  A    between atoms: C_14  and  C_15
REMARK    8  A    between atoms: C_19  and  O_20
REMARK                            x       y       z     vdW  Elec       q    Type
REMARK                         _______ _______ _______ _____ _____    ______ ____
ROOT
ATOM      1  N   UNL     1       3.555   6.062  18.041  0.00  0.00    +0.000 N 
ATOM      2  C   UNL     1       2.638   6.422  19.005  0.00  0.00    +0.000 C 
ATOM      3  O   UNL     1       2.456   7.588  19.350  0.00  0.00    +0.000 OA
ATOM      4  H   UNL     1       3.412   5.181  17.560  0.00  0.00    +0.000 HD
ENDROOT
BRANCH   1   5
ATOM      5  C   UNL     1       4.301   7.085  17.338  0.00  0.00    +0.000 C 
BRANCH   5   8
ATOM      6  C   UNL     1       6.906   4.941  15.489  0.00  0.00    +0.000 C 
ATOM      7  N   UNL     1       6.060   5.458  16.553  0.00  0.00    +0.000 N 
ATOM      8  C   UNL     1       5.193   6.501  16.222  0.00  0.00    +0.000 C 
ATOM      9  O   UNL     1       5.086   6.907  15.064  0.00  0.00    +0.000 OA
BRANCH   7  10
ATOM     10  C   UNL     1       6.288   4.958  17.927  0.00  0.00    +0.000 C 
BRANCH  10  11
ATOM     11  C   UNL     1       7.548   5.465  18.646  0.00  0.00    +0.000 C 
ATOM     12  F   UNL     1       8.591   4.611  18.523  0.00  0.00    +0.000 F 
ATOM     13  F   UNL     1       7.942   6.662  18.160  0.00  0.00    +0.000 F 
ATOM     14  F   UNL     1       7.314   5.619  19.970  0.00  0.00    +0.000 F 
ENDBRANCH  10  11
ENDBRANCH   7  10
ENDBRANCH   5   8
ENDBRANCH   1   5
BRANCH   2  15
ATOM     15  C   UNL     1       1.885   5.257  19.626  0.00  0.00    +0.000 C 
BRANCH  15  16
ATOM     16  C   UNL     1       2.452   3.916  19.238  0.00  0.00    +0.000 A 
ATOM     17  C   UNL     1       1.874   3.175  18.196  0.00  0.00    +0.000 A 
ATOM     18  C   UNL     1       2.406   1.938  17.825  0.00  0.00    +0.000 A 
ATOM     19  C   UNL     1       3.515   1.425  18.495  0.00  0.00    +0.000 A 
ATOM     20  C   UNL     1       4.079   2.152  19.539  0.00  0.00    +0.000 A 
ATOM     21  C   UNL     1       3.556   3.385  19.917  0.00  0.00    +0.000 A 
BRANCH  20  22
ATOM     22  O   UNL     1       5.161   1.685  20.225  0.00  0.00    +0.000 OA
ATOM     23  H   UNL     1       4.970   0.779  20.519  0.00  0.00    +0.000 HD
ENDBRANCH  20  22
ENDBRANCH  15  16
ENDBRANCH   2  15
TORSDOF 7
ENDMDL
MODEL 7
REMARK VINA RESULT:      -6.1      3.645      5.476
REMARK  Name = 
REMARK  8 active torsions:
REMARK  status: ('A' for Active; 'I' for Inactive)
REMARK    1  A    between atoms: C_1  and  N_2
REMARK    2  A    between atoms: N_2  and  C_3
REMARK    3  A    between atoms: C_3  and  C_4
REMARK    4  A    between atoms: C_8  and  C_10
REMARK    5  A    between atoms: C_10  and  N_11
REMARK    6  A    between atoms: C_12  and  C_14
REMARK    7  A    between atoms: C_14  and  C_15
REMARK    8  A    between atoms: C_19  and  O_20
REMARK                            x       y       z     vdW  Elec       q    Type
REMARK                         _______ _______ _______ _____ _____    ______ ____
ROOT
ATOM      1  N   UNL     1       7.296   7.745  17.313  0.00  0.00    +0.000 N 
ATOM      2  C   UNL     1       8.174   8.476  18.084  0.00  0.00    +0.000 C 
ATOM      3  O   UNL     1       8.796   7.991  19.027  0.00  0.00    +0.000 OA
ATOM      4  H   UNL     1       7.101   8.079  16.376  0.00  0.00    +0.000 HD
ENDROOT
BRANCH   1   5
ATOM      5  C   UNL     1       7.132   6.327  17.556  0.00  0.00    +0.000 C 
BRANCH   5   8
ATOM      6  C   UNL     1       5.907   3.738  14.987  0.00  0.00    +0.000 C 
ATOM      7  N   UNL     1       6.023   4.496  16.222  0.00  0.00    +0.000 N 
ATOM      8  C   UNL     1       6.972   5.520  16.249  0.00  0.00    +0.000 C 
ATOM      9  O   UNL     1       7.620   5.825  15.247  0.00  0.00    +0.000 OA
BRANCH   7  10
ATOM     10  C   UNL     1       5.251   4.034  17.397  0.00  0.00    +0.000 C 
BRANCH  10  11
ATOM     11  C   UNL     1       3.809   4.551  17.522  0.00  0.00    +0.000 C 
ATOM     12  F   UNL     1       3.675   5.821  17.075  0.00  0.00    +0.000 F 
ATOM     13  F   UNL     1       2.950   3.780  16.822  0.00  0.00    +0.000 F 
ATOM     14  F   UNL     1       3.408   4.539  18.814  0.00  0.00    +0.000 F 
ENDBRANCH  10  11
ENDBRANCH   7  10
ENDBRANCH   5   8
ENDBRANCH   1   5
BRANCH   2  15
ATOM     15  C   UNL     1       8.292   9.938  17.690  0.00  0.00    +0.000 C 
BRANCH  15  16
ATOM     16  C   UNL     1       9.352  10.674  18.469  0.00  0.00    +0.000 A 
ATOM     17  C   UNL     1      10.531  11.098  17.838  0.00  0.00    +0.000 A 
ATOM     18  C   UNL     1      11.509  11.792  18.554  0.00  0.00    +0.000 A 
ATOM     19  C   UNL     1      11.323  12.065  19.908  0.00  0.00    +0.000 A 
ATOM     20  C   UNL     1      10.160  11.631  20.538  0.00  0.00    +0.000 A 
ATOM     21  C   UNL     1       9.181  10.938  19.834  0.00  0.00    +0.000 A 
BRANCH  20  22
ATOM     22  O   UNL     1       9.939  11.871  21.862  0.00  0.00    +0.000 OA
ATOM     23  H   UNL     1       9.221  11.290  22.163  0.00  0.00    +0.000 HD
ENDBRANCH  20  22
ENDBRANCH  15  16
ENDBRANCH   2  15
TORSDOF 7
ENDMDL
MODEL 8
REMARK VINA RESULT:      -6.1      2.835      4.058
REMARK  Name = 
REMARK  8 active torsions:
REMARK  status: ('A' for Active; 'I' for Inactive)
REMARK    1  A    between atoms: C_1  and  N_2
REMARK    2  A    between atoms: N_2  and  C_3
REMARK    3  A    between atoms: C_3  and  C_4
REMARK    4  A    between atoms: C_8  and  C_10
REMARK    5  A    between atoms: C_10  and  N_11
REMARK    6  A    between atoms: C_12  and  C_14
REMARK    7  A    between atoms: C_14  and  C_15
REMARK    8  A    between atoms: C_19  and  O_20
REMARK                            x       y       z     vdW  Elec       q    Type
REMARK                         _______ _______ _______ _____ _____    ______ ____
ROOT
ATOM      1  N   UNL     1       2.973   5.473  17.956  0.00  0.00    +0.000 N 
ATOM      2  C   UNL     1       3.079   6.844  17.864  0.00  0.00    +0.000 C 
ATOM      3  O   UNL     1       2.121   7.598  18.019  0.00  0.00    +0.000 OA
ATOM      4  H   UNL     1       3.813   4.949  18.172  0.00  0.00    +0.000 HD
ENDROOT
BRANCH   1   5
ATOM      5  C   UNL     1       1.707   4.870  18.319  0.00  0.00    +0.000 C 
BRANCH   5   8
ATOM      6  C   UNL     1       1.914   2.734  21.512  0.00  0.00    +0.000 C 
ATOM      7  N   UNL     1       1.984   3.119  20.112  0.00  0.00    +0.000 N 
ATOM      8  C   UNL     1       1.663   4.441  19.801  0.00  0.00    +0.000 C 
ATOM      9  O   UNL     1       1.416   5.268  20.681  0.00  0.00    +0.000 OA
BRANCH   7  10
ATOM     10  C   UNL     1       2.232   2.057  19.111  0.00  0.00    +0.000 C 
BRANCH  10  11
ATOM     11  C   UNL     1       3.676   1.910  18.605  0.00  0.00    +0.000 C 
ATOM     12  F   UNL     1       3.855   2.469  17.386  0.00  0.00    +0.000 F 
ATOM     13  F   UNL     1       4.554   2.489  19.452  0.00  0.00    +0.000 F 
ATOM     14  F   UNL     1       4.014   0.604  18.497  0.00  0.00    +0.000 F 
ENDBRANCH  10  11
ENDBRANCH   7  10
ENDBRANCH   5   8
ENDBRANCH   1   5
BRANCH   2  15
ATOM     15  C   UNL     1       4.473   7.348  17.530  0.00  0.00    +0.000 C 
BRANCH  15  16
ATOM     16  C   UNL     1       5.388   6.261  17.029  0.00  0.00    +0.000 A 
ATOM     17  C   UNL     1       6.369   5.715  17.869  0.00  0.00    +0.000 A 
ATOM     18  C   UNL     1       7.209   4.697  17.412  0.00  0.00    +0.000 A 
ATOM     19  C   UNL     1       7.084   4.220  16.108  0.00  0.00    +0.000 A 
ATOM     20  C   UNL     1       6.122   4.773  15.269  0.00  0.00    +0.000 A 
ATOM     21  C   UNL     1       5.280   5.787  15.715  0.00  0.00    +0.000 A 
BRANCH  20  22
ATOM     22  O   UNL     1       5.967   4.340  13.985  0.00  0.00    +0.000 OA
ATOM     23  H   UNL     1       5.312   3.623  13.980  0.00  0.00    +0.000 HD
ENDBRANCH  20  22
ENDBRANCH  15  16
ENDBRANCH   2  15
TORSDOF 7
ENDMDL
MODEL 9
REMARK VINA RESULT:      -6.0      2.521      3.002
REMARK  Name = 
REMARK  8 active torsions:
REMARK  status: ('A' for Active; 'I' for Inactive)
REMARK    1  A    between atoms: C_1  and  N_2
REMARK    2  A    between atoms: N_2  and  C_3
REMARK    3  A    between atoms: C_3  and  C_4
REMARK    4  A    between atoms: C_8  and  C_10
REMARK    5  A    between atoms: C_10  and  N_11
REMARK    6  A    between atoms: C_12  and  C_14
REMARK    7  A    between atoms: C_14  and  C_15
REMARK    8  A    between atoms: C_19  and  O_20
REMARK                            x       y       z     vdW  Elec       q    Type
REMARK                         _______ _______ _______ _____ _____    ______ ____
ROOT
ATOM      1  N   UNL     1       3.976   4.929  17.155  0.00  0.00    +0.000 N 
ATOM      2  C   UNL     1       4.780   3.853  16.844  0.00  0.00    +0.000 C 
ATOM      3  O   UNL     1       4.421   2.687  16.995  0.00  0.00    +0.000 OA
ATOM      4  H   UNL     1       4.169   5.810  16.692  0.00  0.00    +0.000 HD
ENDROOT
BRANCH   1   5
ATOM      5  C   UNL     1       2.622   4.707  17.616  0.00  0.00    +0.000 C 
BRANCH   5   8
ATOM      6  C   UNL     1       1.761   6.422  20.951  0.00  0.00    +0.000 C 
ATOM      7  N   UNL     1       2.211   5.418  20.000  0.00  0.00    +0.000 N 
ATOM      8  C   UNL     1       2.170   5.762  18.648  0.00  0.00    +0.000 C 
ATOM      9  O   UNL     1       1.850   6.894  18.281  0.00  0.00    +0.000 OA
BRANCH   7  10
ATOM     10  C   UNL     1       2.526   4.066  20.514  0.00  0.00    +0.000 C 
BRANCH  10  11
ATOM     11  C   UNL     1       1.347   3.091  20.660  0.00  0.00    +0.000 C 
ATOM     12  F   UNL     1       1.140   2.719  21.945  0.00  0.00    +0.000 F 
ATOM     13  F   UNL     1       0.199   3.638  20.205  0.00  0.00    +0.000 F 
ATOM     14  F   UNL     1       1.570   1.961  19.950  0.00  0.00    +0.000 F 
ENDBRANCH  10  11
ENDBRANCH   7  10
ENDBRANCH   5   8
ENDBRANCH   1   5
BRANCH   2  15
ATOM     15  C   UNL     1       6.157   4.225  16.320  0.00  0.00    +0.000 C 
BRANCH  15  16
ATOM     16  C   UNL     1       6.866   5.230  17.190  0.00  0.00    +0.000 A 
ATOM     17  C   UNL     1       7.113   6.529  16.719  0.00  0.00    +0.000 A 
ATOM     18  C   UNL     1       7.757   7.467  17.529  0.00  0.00    +0.000 A 
ATOM     19  C   UNL     1       8.170   7.116  18.813  0.00  0.00    +0.000 A 
ATOM     20  C   UNL     1       7.940   5.823  19.274  0.00  0.00    +0.000 A 
ATOM     21  C   UNL     1       7.299   4.882  18.476  0.00  0.00    +0.000 A 
BRANCH  20  22
ATOM     22  O   UNL     1       8.331   5.436  20.522  0.00  0.00    +0.000 OA
ATOM     23  H   UNL     1       8.357   4.465  20.547  0.00  0.00    +0.000 HD
ENDBRANCH  20  22
ENDBRANCH  15  16
ENDBRANCH   2  15
TORSDOF 7
ENDMDL
