MODEL 1
REMARK VINA RESULT:      -8.5      0.000      0.000
REMARK  Name = 
REMARK  6 active torsions:
REMARK  status: ('A' for Active; 'I' for Inactive)
REMARK    1  A    between atoms: C_1  and  O_2
REMARK    2  A    between atoms: O_2  and  C_3
REMARK    3  A    between atoms: C_12  and  C_14
REMARK    4  A    between atoms: C_14  and  C_15
REMARK    5  A    between atoms: C_23  and  C_24
REMARK    6  A    between atoms: C_24  and  N_25
REMARK                            x       y       z     vdW  Elec       q    Type
REMARK                         _______ _______ _______ _____ _____    ______ ____
ROOT
ATOM      1  C   UNL     1       6.956   5.916  17.093  0.00  0.00    +0.000 A 
ATOM      2  C   UNL     1       7.757   5.574  18.183  0.00  0.00    +0.000 A 
ATOM      3  C   UNL     1       7.190   5.263  19.420  0.00  0.00    +0.000 A 
ATOM      4  C   UNL     1       5.810   5.298  19.582  0.00  0.00    +0.000 A 
ATOM      5  C   UNL     1       4.999   5.681  18.513  0.00  0.00    +0.000 A 
ATOM      6  C   UNL     1       5.573   6.029  17.267  0.00  0.00    +0.000 A 
ATOM      7  C   UNL     1       4.626   6.501  16.187  0.00  0.00    +0.000 C 
ATOM      8  C   UNL     1       3.591   7.450  16.805  0.00  0.00    +0.000 C 
ATOM      9  N   UNL     1       3.017   7.011  18.092  0.00  0.00    +0.000 N 
ATOM     10  C   UNL     1       2.359   7.988  18.843  0.00  0.00    +0.000 C 
ATOM     11  O   UNL     1       2.192   9.130  18.410  0.00  0.00    +0.000 OA
ATOM     12  C   UNL     1       3.482   5.727  18.652  0.00  0.00    +0.000 C 
ENDROOT
BRANCH   1  14
ATOM     13  C   UNL     1       7.348   5.086  14.927  0.00  0.00    +0.000 C 
ATOM     14  O   UNL     1       7.452   6.176  15.842  0.00  0.00    +0.000 OA
ENDBRANCH   1  14
BRANCH  10  15
ATOM     15  C   UNL     1       1.821   7.623  20.223  0.00  0.00    +0.000 C 
BRANCH  15  16
ATOM     16  C   UNL     1       0.979   8.690  20.901  0.00  0.00    +0.000 A 
ATOM     17  C   UNL     1       1.004   8.896  22.285  0.00  0.00    +0.000 A 
ATOM     18  C   UNL     1       0.217   9.895  22.871  0.00  0.00    +0.000 A 
ATOM     19  C   UNL     1      -0.589  10.715  22.079  0.00  0.00    +0.000 A 
ATOM     20 CL   UNL     1      -1.546  11.916  22.871  0.00  0.00    +0.000 Cl
ATOM     21  C   UNL     1      -0.599  10.543  20.694  0.00  0.00    +0.000 A 
ATOM     22 CL   UNL     1      -1.559  11.523  19.643  0.00  0.00    +0.000 Cl
ATOM     23  C   UNL     1       0.186   9.537  20.109  0.00  0.00    +0.000 A 
ENDBRANCH  15  16
ENDBRANCH  10  15
BRANCH  12  24
ATOM     24  C   UNL     1       2.871   4.425  18.023  0.00  0.00    +0.000 C 
BRANCH  24  25
ATOM     25  N   UNL     1       2.928   3.156  18.784  0.00  0.00    +0.000 NA
ATOM     26  C   UNL     1       1.872   2.241  18.296  0.00  0.00    +0.000 C 
ATOM     27  C   UNL     1       0.627   2.579  19.099  0.00  0.00    +0.000 C 
ATOM     28  C   UNL     1       1.169   2.997  20.451  0.00  0.00    +0.000 C 
ATOM     29  C   UNL     1       2.646   3.295  20.220  0.00  0.00    +0.000 C 
ENDBRANCH  24  25
ENDBRANCH  12  24
TORSDOF 5
ENDMDL
MODEL 2
REMARK VINA RESULT:      -8.3      4.665      7.332
REMARK  Name = 
REMARK  6 active torsions:
REMARK  status: ('A' for Active; 'I' for Inactive)
REMARK    1  A    between atoms: C_1  and  O_2
REMARK    2  A    between atoms: O_2  and  C_3
REMARK    3  A    between atoms: C_12  and  C_14
REMARK    4  A    between atoms: C_14  and  C_15
REMARK    5  A    between atoms: C_23  and  C_24
REMARK    6  A    between atoms: C_24  and  N_25
REMARK                            x       y       z     vdW  Elec       q    Type
REMARK                         _______ _______ _______ _____ _____    ______ ____
ROOT
ATOM      1  C   UNL     1       3.124   5.068  19.161  0.00  0.00    +0.000 A 
ATOM      2  C   UNL     1       2.136   6.053  19.197  0.00  0.00    +0.000 A 
ATOM      3  C   UNL     1       2.300   7.257  18.510  0.00  0.00    +0.000 A 
ATOM      4  C   UNL     1       3.461   7.491  17.783  0.00  0.00    +0.000 A 
ATOM      5  C   UNL     1       4.476   6.533  17.774  0.00  0.00    +0.000 A 
ATOM      6  C   UNL     1       4.327   5.326  18.496  0.00  0.00    +0.000 A 
ATOM      7  C   UNL     1       5.504   4.378  18.491  0.00  0.00    +0.000 C 
ATOM      8  C   UNL     1       6.799   5.182  18.669  0.00  0.00    +0.000 C 
ATOM      9  N   UNL     1       6.895   6.416  17.866  0.00  0.00    +0.000 N 
ATOM     10  C   UNL     1       7.870   7.337  18.257  0.00  0.00    +0.000 C 
ATOM     11  O   UNL     1       8.663   7.087  19.168  0.00  0.00    +0.000 OA
ATOM     12  C   UNL     1       5.760   6.755  16.985  0.00  0.00    +0.000 C 
ENDROOT
BRANCH   1  14
ATOM     13  C   UNL     1       2.176   3.851  20.937  0.00  0.00    +0.000 C 
ATOM     14  O   UNL     1       2.995   3.846  19.769  0.00  0.00    +0.000 OA
ENDBRANCH   1  14
BRANCH  10  15
ATOM     15  C   UNL     1       7.963   8.672  17.527  0.00  0.00    +0.000 C 
BRANCH  15  16
ATOM     16  C   UNL     1       8.693   9.776  18.272  0.00  0.00    +0.000 A 
ATOM     17  C   UNL     1       8.911   9.730  19.653  0.00  0.00    +0.000 A 
ATOM     18  C   UNL     1       9.595  10.766  20.302  0.00  0.00    +0.000 A 
ATOM     19  C   UNL     1      10.088  11.851  19.575  0.00  0.00    +0.000 A 
ATOM     20 CL   UNL     1      10.908  13.100  20.443  0.00  0.00    +0.000 Cl
ATOM     21  C   UNL     1       9.907  11.895  18.192  0.00  0.00    +0.000 A 
ATOM     22 CL   UNL     1      10.496  13.195  17.219  0.00  0.00    +0.000 Cl
ATOM     23  C   UNL     1       9.216  10.859  17.544  0.00  0.00    +0.000 A 
ENDBRANCH  15  16
ENDBRANCH  10  15
BRANCH  12  24
ATOM     24  C   UNL     1       5.669   5.971  15.628  0.00  0.00    +0.000 C 
BRANCH  24  25
ATOM     25  N   UNL     1       6.564   4.815  15.396  0.00  0.00    +0.000 NA
ATOM     26  C   UNL     1       7.581   5.174  14.383  0.00  0.00    +0.000 C 
ATOM     27  C   UNL     1       6.952   4.862  13.035  0.00  0.00    +0.000 C 
ATOM     28  C   UNL     1       6.068   3.664  13.315  0.00  0.00    +0.000 C 
ATOM     29  C   UNL     1       5.895   3.633  14.829  0.00  0.00    +0.000 C 
ENDBRANCH  24  25
ENDBRANCH  12  24
TORSDOF 5
ENDMDL
MODEL 3
REMARK VINA RESULT:      -8.2      4.433      8.439
REMARK  Name = 
REMARK  6 active torsions:
REMARK  status: ('A' for Active; 'I' for Inactive)
REMARK    1  A    between atoms: C_1  and  O_2
REMARK    2  A    between atoms: O_2  and  C_3
REMARK    3  A    between atoms: C_12  and  C_14
REMARK    4  A    between atoms: C_14  and  C_15
REMARK    5  A    between atoms: C_23  and  C_24
REMARK    6  A    between atoms: C_24  and  N_25
REMARK                            x       y       z     vdW  Elec       q    Type
REMARK                         _______ _______ _______ _____ _____    ______ ____
ROOT
ATOM      1  C   UNL     1       1.994  14.082  20.963  0.00  0.00    +0.000 A 
ATOM      2  C   UNL     1       2.921  14.700  20.122  0.00  0.00    +0.000 A 
ATOM      3  C   UNL     1       3.126  14.240  18.820  0.00  0.00    +0.000 A 
ATOM      4  C   UNL     1       2.407  13.149  18.347  0.00  0.00    +0.000 A 
ATOM      5  C   UNL     1       1.508  12.495  19.190  0.00  0.00    +0.000 A 
ATOM      6  C   UNL     1       1.323  12.938  20.520  0.00  0.00    +0.000 A 
ATOM      7  C   UNL     1       0.385  12.128  21.386  0.00  0.00    +0.000 C 
ATOM      8  C   UNL     1       0.639  10.634  21.141  0.00  0.00    +0.000 C 
ATOM      9  N   UNL     1       0.797  10.241  19.728  0.00  0.00    +0.000 N 
ATOM     10  C   UNL     1       1.372   8.989  19.493  0.00  0.00    +0.000 C 
ATOM     11  O   UNL     1       1.646   8.223  20.418  0.00  0.00    +0.000 OA
ATOM     12  C   UNL     1       0.699  11.299  18.703  0.00  0.00    +0.000 C 
ENDROOT
BRANCH   1  14
ATOM     13  C   UNL     1       1.655  15.943  22.362  0.00  0.00    +0.000 C 
ATOM     14  O   UNL     1       1.711  14.524  22.229  0.00  0.00    +0.000 OA
ENDBRANCH   1  14
BRANCH  10  15
ATOM     15  C   UNL     1       1.648   8.559  18.056  0.00  0.00    +0.000 C 
BRANCH  15  16
ATOM     16  C   UNL     1       2.491   7.306  17.898  0.00  0.00    +0.000 A 
ATOM     17  C   UNL     1       1.956   6.021  18.044  0.00  0.00    +0.000 A 
ATOM     18  C   UNL     1       2.766   4.890  17.884  0.00  0.00    +0.000 A 
ATOM     19  C   UNL     1       4.116   5.028  17.555  0.00  0.00    +0.000 A 
ATOM     20 CL   UNL     1       5.059   3.589  17.389  0.00  0.00    +0.000 Cl
ATOM     21  C   UNL     1       4.655   6.302  17.374  0.00  0.00    +0.000 A 
ATOM     22 CL   UNL     1       6.312   6.558  16.954  0.00  0.00    +0.000 Cl
ATOM     23  C   UNL     1       3.844   7.435  17.540  0.00  0.00    +0.000 A 
ENDBRANCH  15  16
ENDBRANCH  10  15
BRANCH  12  24
ATOM     24  C   UNL     1      -0.747  11.778  18.327  0.00  0.00    +0.000 C 
BRANCH  24  25
ATOM     25  N   UNL     1      -1.869  10.813  18.385  0.00  0.00    +0.000 NA
ATOM     26  C   UNL     1      -1.820   9.927  17.201  0.00  0.00    +0.000 C 
ATOM     27  C   UNL     1      -2.595  10.648  16.111  0.00  0.00    +0.000 C 
ATOM     28  C   UNL     1      -3.672  11.399  16.867  0.00  0.00    +0.000 C 
ATOM     29  C   UNL     1      -3.203  11.428  18.317  0.00  0.00    +0.000 C 
ENDBRANCH  24  25
ENDBRANCH  12  24
TORSDOF 5
ENDMDL
MODEL 4
REMARK VINA RESULT:      -8.2      4.406      8.363
REMARK  Name = 
REMARK  6 active torsions:
REMARK  status: ('A' for Active; 'I' for Inactive)
REMARK    1  A    between atoms: C_1  and  O_2
REMARK    2  A    between atoms: O_2  and  C_3
REMARK    3  A    between atoms: C_12  and  C_14
REMARK    4  A    between atoms: C_14  and  C_15
REMARK    5  A    between atoms: C_23  and  C_24
REMARK    6  A    between atoms: C_24  and  N_25
REMARK                            x       y       z     vdW  Elec       q    Type
REMARK                         _______ _______ _______ _____ _____    ______ ____
ROOT
ATOM      1  C   UNL     1       2.114  14.110  20.819  0.00  0.00    +0.000 A 
ATOM      2  C   UNL     1       2.992  14.710  19.915  0.00  0.00    +0.000 A 
ATOM      3  C   UNL     1       3.114  14.230  18.609  0.00  0.00    +0.000 A 
ATOM      4  C   UNL     1       2.362  13.138  18.196  0.00  0.00    +0.000 A 
ATOM      5  C   UNL     1       1.512  12.501  19.102  0.00  0.00    +0.000 A 
ATOM      6  C   UNL     1       1.411  12.963  20.434  0.00  0.00    +0.000 A 
ATOM      7  C   UNL     1       0.523  12.171  21.367  0.00  0.00    +0.000 C 
ATOM      8  C   UNL     1       0.754  10.673  21.128  0.00  0.00    +0.000 C 
ATOM      9  N   UNL     1       0.824  10.259  19.713  0.00  0.00    +0.000 N 
ATOM     10  C   UNL     1       1.376   9.001  19.462  0.00  0.00    +0.000 C 
ATOM     11  O   UNL     1       1.702   8.245  20.379  0.00  0.00    +0.000 OA
ATOM     12  C   UNL     1       0.669  11.304  18.682  0.00  0.00    +0.000 C 
ENDROOT
BRANCH   1  14
ATOM     13  C   UNL     1       2.810  15.602  22.499  0.00  0.00    +0.000 C 
ATOM     14  O   UNL     1       1.912  14.570  22.094  0.00  0.00    +0.000 OA
ENDBRANCH   1  14
BRANCH  10  15
ATOM     15  C   UNL     1       1.561   8.549  18.017  0.00  0.00    +0.000 C 
BRANCH  15  16
ATOM     16  C   UNL     1       2.426   7.316  17.822  0.00  0.00    +0.000 A 
ATOM     17  C   UNL     1       3.791   7.399  17.527  0.00  0.00    +0.000 A 
ATOM     18  C   UNL     1       4.556   6.237  17.362  0.00  0.00    +0.000 A 
ATOM     19  C   UNL     1       3.970   4.978  17.507  0.00  0.00    +0.000 A 
ATOM     20 CL   UNL     1       4.970   3.589  17.272  0.00  0.00    +0.000 Cl
ATOM     21  C   UNL     1       2.616   4.881  17.832  0.00  0.00    +0.000 A 
ATOM     22 CL   UNL     1       1.819   3.363  18.042  0.00  0.00    +0.000 Cl
ATOM     23  C   UNL     1       1.850   6.046  17.993  0.00  0.00    +0.000 A 
ENDBRANCH  15  16
ENDBRANCH  10  15
BRANCH  12  24
ATOM     24  C   UNL     1      -0.795  11.786  18.388  0.00  0.00    +0.000 C 
BRANCH  24  25
ATOM     25  N   UNL     1      -1.903  10.804  18.413  0.00  0.00    +0.000 NA
ATOM     26  C   UNL     1      -1.815   9.931  17.221  0.00  0.00    +0.000 C 
ATOM     27  C   UNL     1      -2.580  10.651  16.123  0.00  0.00    +0.000 C 
ATOM     28  C   UNL     1      -3.684  11.376  16.865  0.00  0.00    +0.000 C 
ATOM     29  C   UNL     1      -3.245  11.398  18.324  0.00  0.00    +0.000 C 
ENDBRANCH  24  25
ENDBRANCH  12  24
TORSDOF 5
ENDMDL
MODEL 5
REMARK VINA RESULT:      -8.1      0.752      1.395
REMARK  Name = 
REMARK  6 active torsions:
REMARK  status: ('A' for Active; 'I' for Inactive)
REMARK    1  A    between atoms: C_1  and  O_2
REMARK    2  A    between atoms: O_2  and  C_3
REMARK    3  A    between atoms: C_12  and  C_14
REMARK    4  A    between atoms: C_14  and  C_15
REMARK    5  A    between atoms: C_23  and  C_24
REMARK    6  A    between atoms: C_24  and  N_25
REMARK                            x       y       z     vdW  Elec       q    Type
REMARK                         _______ _______ _______ _____ _____    ______ ____
ROOT
ATOM      1  C   UNL     1       7.056   5.707  17.000  0.00  0.00    +0.000 A 
ATOM      2  C   UNL     1       7.766   5.450  18.174  0.00  0.00    +0.000 A 
ATOM      3  C   UNL     1       7.107   5.340  19.400  0.00  0.00    +0.000 A 
ATOM      4  C   UNL     1       5.728   5.492  19.465  0.00  0.00    +0.000 A 
ATOM      5  C   UNL     1       5.010   5.792  18.306  0.00  0.00    +0.000 A 
ATOM      6  C   UNL     1       5.678   5.937  17.068  0.00  0.00    +0.000 A 
ATOM      7  C   UNL     1       4.834   6.334  15.878  0.00  0.00    +0.000 C 
ATOM      8  C   UNL     1       3.842   7.423  16.307  0.00  0.00    +0.000 C 
ATOM      9  N   UNL     1       3.164   7.192  17.597  0.00  0.00    +0.000 N 
ATOM     10  C   UNL     1       2.542   8.301  18.178  0.00  0.00    +0.000 C 
ATOM     11  O   UNL     1       2.490   9.387  17.599  0.00  0.00    +0.000 OA
ATOM     12  C   UNL     1       3.496   5.961  18.339  0.00  0.00    +0.000 C 
ENDROOT
BRANCH   1  14
ATOM     13  C   UNL     1       7.319   4.680  14.900  0.00  0.00    +0.000 C 
ATOM     14  O   UNL     1       7.641   5.771  15.762  0.00  0.00    +0.000 OA
ENDBRANCH   1  14
BRANCH  10  15
ATOM     15  C   UNL     1       1.901   8.153  19.554  0.00  0.00    +0.000 C 
BRANCH  15  16
ATOM     16  C   UNL     1       0.893   9.226  19.925  0.00  0.00    +0.000 A 
ATOM     17  C   UNL     1       0.311  10.068  18.971  0.00  0.00    +0.000 A 
ATOM     18  C   UNL     1      -0.621  11.042  19.354  0.00  0.00    +0.000 A 
ATOM     19  C   UNL     1      -0.997  11.172  20.692  0.00  0.00    +0.000 A 
ATOM     20 CL   UNL     1      -2.139  12.406  21.093  0.00  0.00    +0.000 Cl
ATOM     21  C   UNL     1      -0.449  10.318  21.649  0.00  0.00    +0.000 A 
ATOM     22 CL   UNL     1      -0.872  10.406  23.323  0.00  0.00    +0.000 Cl
ATOM     23  C   UNL     1       0.488   9.347  21.266  0.00  0.00    +0.000 A 
ENDBRANCH  15  16
ENDBRANCH  10  15
BRANCH  12  24
ATOM     24  C   UNL     1       2.822   4.636  17.836  0.00  0.00    +0.000 C 
BRANCH  24  25
ATOM     25  N   UNL     1       2.971   3.397  18.633  0.00  0.00    +0.000 NA
ATOM     26  C   UNL     1       2.072   2.352  18.094  0.00  0.00    +0.000 C 
ATOM     27  C   UNL     1       0.738   2.553  18.795  0.00  0.00    +0.000 C 
ATOM     28  C   UNL     1       1.123   3.058  20.171  0.00  0.00    +0.000 C 
ATOM     29  C   UNL     1       2.567   3.528  20.041  0.00  0.00    +0.000 C 
ENDBRANCH  24  25
ENDBRANCH  12  24
TORSDOF 5
ENDMDL
MODEL 6
REMARK VINA RESULT:      -8.1      4.213      8.636
REMARK  Name = 
REMARK  6 active torsions:
REMARK  status: ('A' for Active; 'I' for Inactive)
REMARK    1  A    between atoms: C_1  and  O_2
REMARK    2  A    between atoms: O_2  and  C_3
REMARK    3  A    between atoms: C_12  and  C_14
REMARK    4  A    between atoms: C_14  and  C_15
REMARK    5  A    between atoms: C_23  and  C_24
REMARK    6  A    between atoms: C_24  and  N_25
REMARK                            x       y       z     vdW  Elec       q    Type
REMARK                         _______ _______ _______ _____ _____    ______ ____
ROOT
ATOM      1  C   UNL     1       0.742  13.933  21.314  0.00  0.00    +0.000 A 
ATOM      2  C   UNL     1       1.401  14.780  20.422  0.00  0.00    +0.000 A 
ATOM      3  C   UNL     1       1.579  14.415  19.086  0.00  0.00    +0.000 A 
ATOM      4  C   UNL     1       1.103  13.193  18.629  0.00  0.00    +0.000 A 
ATOM      5  C   UNL     1       0.480  12.317  19.520  0.00  0.00    +0.000 A 
ATOM      6  C   UNL     1       0.328  12.668  20.881  0.00  0.00    +0.000 A 
ATOM      7  C   UNL     1      -0.292  11.632  21.790  0.00  0.00    +0.000 C 
ATOM      8  C   UNL     1       0.292  10.253  21.451  0.00  0.00    +0.000 C 
ATOM      9  N   UNL     1       0.398   9.945  20.012  0.00  0.00    +0.000 N 
ATOM     10  C   UNL     1       1.233   8.880  19.666  0.00  0.00    +0.000 C 
ATOM     11  O   UNL     1       1.778   8.183  20.524  0.00  0.00    +0.000 OA
ATOM     12  C   UNL     1      -0.058  10.970  19.053  0.00  0.00    +0.000 C 
ENDROOT
BRANCH   1  14
ATOM     13  C   UNL     1      -0.528  15.245  22.797  0.00  0.00    +0.000 C 
ATOM     14  O   UNL     1       0.489  14.260  22.621  0.00  0.00    +0.000 OA
ENDBRANCH   1  14
BRANCH  10  15
ATOM     15  C   UNL     1       1.459   8.565  18.191  0.00  0.00    +0.000 C 
BRANCH  15  16
ATOM     16  C   UNL     1       2.373   7.387  17.905  0.00  0.00    +0.000 A 
ATOM     17  C   UNL     1       3.712   7.552  17.532  0.00  0.00    +0.000 A 
ATOM     18  C   UNL     1       4.524   6.438  17.283  0.00  0.00    +0.000 A 
ATOM     19  C   UNL     1       4.015   5.146  17.423  0.00  0.00    +0.000 A 
ATOM     20 CL   UNL     1       5.069   3.820  17.084  0.00  0.00    +0.000 Cl
ATOM     21  C   UNL     1       2.691   4.966  17.826  0.00  0.00    +0.000 A 
ATOM     22 CL   UNL     1       1.988   3.401  18.035  0.00  0.00    +0.000 Cl
ATOM     23  C   UNL     1       1.876   6.083  18.070  0.00  0.00    +0.000 A 
ENDBRANCH  15  16
ENDBRANCH  10  15
BRANCH  12  24
ATOM     24  C   UNL     1      -1.608  11.085  18.835  0.00  0.00    +0.000 C 
BRANCH  24  25
ATOM     25  N   UNL     1      -2.318  10.019  18.092  0.00  0.00    +0.000 NA
ATOM     26  C   UNL     1      -1.821   9.974  16.698  0.00  0.00    +0.000 C 
ATOM     27  C   UNL     1      -2.666  10.973  15.925  0.00  0.00    +0.000 C 
ATOM     28  C   UNL     1      -4.019  10.905  16.603  0.00  0.00    +0.000 C 
ATOM     29  C   UNL     1      -3.765  10.238  17.949  0.00  0.00    +0.000 C 
ENDBRANCH  24  25
ENDBRANCH  12  24
TORSDOF 5
ENDMDL
MODEL 7
REMARK VINA RESULT:      -8.0      4.139      8.380
REMARK  Name = 
REMARK  6 active torsions:
REMARK  status: ('A' for Active; 'I' for Inactive)
REMARK    1  A    between atoms: C_1  and  O_2
REMARK    2  A    between atoms: O_2  and  C_3
REMARK    3  A    between atoms: C_12  and  C_14
REMARK    4  A    between atoms: C_14  and  C_15
REMARK    5  A    between atoms: C_23  and  C_24
REMARK    6  A    between atoms: C_24  and  N_25
REMARK                            x       y       z     vdW  Elec       q    Type
REMARK                         _______ _______ _______ _____ _____    ______ ____
ROOT
ATOM      1  C   UNL     1       1.394  13.285  20.628  0.00  0.00    +0.000 A 
ATOM      2  C   UNL     1       2.114  14.002  19.671  0.00  0.00    +0.000 A 
ATOM      3  C   UNL     1       2.344  13.471  18.401  0.00  0.00    +0.000 A 
ATOM      4  C   UNL     1       1.859  12.210  18.076  0.00  0.00    +0.000 A 
ATOM      5  C   UNL     1       1.174  11.464  19.037  0.00  0.00    +0.000 A 
ATOM      6  C   UNL     1       0.969  11.985  20.335  0.00  0.00    +0.000 A 
ATOM      7  C   UNL     1       0.283  11.082  21.334  0.00  0.00    +0.000 C 
ATOM      8  C   UNL     1       0.847   9.661  21.197  0.00  0.00    +0.000 C 
ATOM      9  N   UNL     1       1.011   9.174  19.814  0.00  0.00    +0.000 N 
ATOM     10  C   UNL     1       1.834   8.058  19.642  0.00  0.00    +0.000 C 
ATOM     11  O   UNL     1       2.322   7.464  20.606  0.00  0.00    +0.000 OA
ATOM     12  C   UNL     1       0.625  10.080  18.714  0.00  0.00    +0.000 C 
ENDROOT
BRANCH   1  14
ATOM     13  C   UNL     1       1.507  15.124  22.091  0.00  0.00    +0.000 C 
ATOM     14  O   UNL     1       1.090  13.778  21.871  0.00  0.00    +0.000 OA
ENDBRANCH   1  14
BRANCH  10  15
ATOM     15  C   UNL     1       2.119   7.558  18.230  0.00  0.00    +0.000 C 
BRANCH  15  16
ATOM     16  C   UNL     1       2.510   6.095  18.120  0.00  0.00    +0.000 A 
ATOM     17  C   UNL     1       3.787   5.690  17.712  0.00  0.00    +0.000 A 
ATOM     18  C   UNL     1       4.110   4.330  17.630  0.00  0.00    +0.000 A 
ATOM     19  C   UNL     1       3.169   3.358  17.973  0.00  0.00    +0.000 A 
ATOM     20 CL   UNL     1       3.632   1.699  17.831  0.00  0.00    +0.000 Cl
ATOM     21  C   UNL     1       1.903   3.747  18.412  0.00  0.00    +0.000 A 
ATOM     22 CL   UNL     1       0.687   2.607  18.867  0.00  0.00    +0.000 Cl
ATOM     23  C   UNL     1       1.578   5.110  18.489  0.00  0.00    +0.000 A 
ENDBRANCH  15  16
ENDBRANCH  10  15
BRANCH  12  24
ATOM     24  C   UNL     1      -0.910  10.197  18.408  0.00  0.00    +0.000 C 
BRANCH  24  25
ATOM     25  N   UNL     1      -1.451  11.471  17.882  0.00  0.00    +0.000 NA
ATOM     26  C   UNL     1      -2.435  12.022  18.841  0.00  0.00    +0.000 C 
ATOM     27  C   UNL     1      -3.768  11.392  18.474  0.00  0.00    +0.000 C 
ATOM     28  C   UNL     1      -3.688  11.220  16.971  0.00  0.00    +0.000 C 
ATOM     29  C   UNL     1      -2.207  11.338  16.628  0.00  0.00    +0.000 C 
ENDBRANCH  24  25
ENDBRANCH  12  24
TORSDOF 5
ENDMDL
MODEL 8
REMARK VINA RESULT:      -7.9      0.861      1.173
REMARK  Name = 
REMARK  6 active torsions:
REMARK  status: ('A' for Active; 'I' for Inactive)
REMARK    1  A    between atoms: C_1  and  O_2
REMARK    2  A    between atoms: O_2  and  C_3
REMARK    3  A    between atoms: C_12  and  C_14
REMARK    4  A    between atoms: C_14  and  C_15
REMARK    5  A    between atoms: C_23  and  C_24
REMARK    6  A    between atoms: C_24  and  N_25
REMARK                            x       y       z     vdW  Elec       q    Type
REMARK                         _______ _______ _______ _____ _____    ______ ____
ROOT
ATOM      1  C   UNL     1       6.943   5.704  17.061  0.00  0.00    +0.000 A 
ATOM      2  C   UNL     1       7.644   5.380  18.223  0.00  0.00    +0.000 A 
ATOM      3  C   UNL     1       6.979   5.232  19.442  0.00  0.00    +0.000 A 
ATOM      4  C   UNL     1       5.604   5.415  19.512  0.00  0.00    +0.000 A 
ATOM      5  C   UNL     1       4.897   5.782  18.366  0.00  0.00    +0.000 A 
ATOM      6  C   UNL     1       5.571   5.965  17.136  0.00  0.00    +0.000 A 
ATOM      7  C   UNL     1       4.740   6.433  15.964  0.00  0.00    +0.000 C 
ATOM      8  C   UNL     1       3.774   7.527  16.437  0.00  0.00    +0.000 C 
ATOM      9  N   UNL     1       3.087   7.257  17.715  0.00  0.00    +0.000 N 
ATOM     10  C   UNL     1       2.491   8.353  18.343  0.00  0.00    +0.000 C 
ATOM     11  O   UNL     1       2.466   9.465  17.811  0.00  0.00    +0.000 OA
ATOM     12  C   UNL     1       3.387   5.986  18.404  0.00  0.00    +0.000 C 
ENDROOT
BRANCH   1  14
ATOM     13  C   UNL     1       7.207   4.751  14.926  0.00  0.00    +0.000 C 
ATOM     14  O   UNL     1       7.533   5.808  15.827  0.00  0.00    +0.000 OA
ENDBRANCH   1  14
BRANCH  10  15
ATOM     15  C   UNL     1       1.843   8.161  19.710  0.00  0.00    +0.000 C 
BRANCH  15  16
ATOM     16  C   UNL     1       0.894   9.264  20.145  0.00  0.00    +0.000 A 
ATOM     17  C   UNL     1       0.878   9.766  21.451  0.00  0.00    +0.000 A 
ATOM     18  C   UNL     1      -0.008  10.789  21.811  0.00  0.00    +0.000 A 
ATOM     19  C   UNL     1      -0.877  11.336  20.865  0.00  0.00    +0.000 A 
ATOM     20 CL   UNL     1      -1.955  12.583  21.384  0.00  0.00    +0.000 Cl
ATOM     21  C   UNL     1      -0.851  10.868  19.551  0.00  0.00    +0.000 A 
ATOM     22 CL   UNL     1      -1.884  11.500  18.319  0.00  0.00    +0.000 Cl
ATOM     23  C   UNL     1       0.034   9.840  19.194  0.00  0.00    +0.000 A 
ENDBRANCH  15  16
ENDBRANCH  10  15
BRANCH  12  24
ATOM     24  C   UNL     1       2.682   4.701  17.842  0.00  0.00    +0.000 C 
BRANCH  24  25
ATOM     25  N   UNL     1       1.479   4.176  18.526  0.00  0.00    +0.000 NA
ATOM     26  C   UNL     1       1.557   4.489  19.971  0.00  0.00    +0.000 C 
ATOM     27  C   UNL     1       2.325   3.340  20.602  0.00  0.00    +0.000 C 
ATOM     28  C   UNL     1       1.935   2.138  19.766  0.00  0.00    +0.000 C 
ATOM     29  C   UNL     1       1.346   2.712  18.483  0.00  0.00    +0.000 C 
ENDBRANCH  24  25
ENDBRANCH  12  24
TORSDOF 5
ENDMDL
MODEL 9
REMARK VINA RESULT:      -7.9      4.094      8.775
REMARK  Name = 
REMARK  6 active torsions:
REMARK  status: ('A' for Active; 'I' for Inactive)
REMARK    1  A    between atoms: C_1  and  O_2
REMARK    2  A    between atoms: O_2  and  C_3
REMARK    3  A    between atoms: C_12  and  C_14
REMARK    4  A    between atoms: C_14  and  C_15
REMARK    5  A    between atoms: C_23  and  C_24
REMARK    6  A    between atoms: C_24  and  N_25
REMARK                            x       y       z     vdW  Elec       q    Type
REMARK                         _______ _______ _______ _____ _____    ______ ____
ROOT
ATOM      1  C   UNL     1       0.248  13.086  21.726  0.00  0.00    +0.000 A 
ATOM      2  C   UNL     1       0.883  14.116  21.029  0.00  0.00    +0.000 A 
ATOM      3  C   UNL     1       1.262  13.951  19.696  0.00  0.00    +0.000 A 
ATOM      4  C   UNL     1       1.016  12.748  19.046  0.00  0.00    +0.000 A 
ATOM      5  C   UNL     1       0.421  11.695  19.742  0.00  0.00    +0.000 A 
ATOM      6  C   UNL     1       0.066  11.847  21.103  0.00  0.00    +0.000 A 
ATOM      7  C   UNL     1      -0.506  10.634  21.800  0.00  0.00    +0.000 C 
ATOM      8  C   UNL     1       0.297   9.393  21.388  0.00  0.00    +0.000 C 
ATOM      9  N   UNL     1       0.610   9.288  19.950  0.00  0.00    +0.000 N 
ATOM     10  C   UNL     1       1.618   8.387  19.599  0.00  0.00    +0.000 C 
ATOM     11  O   UNL     1       2.152   7.657  20.438  0.00  0.00    +0.000 OA
ATOM     12  C   UNL     1       0.132  10.364  19.060  0.00  0.00    +0.000 C 
ENDROOT
BRANCH   1  14
ATOM     13  C   UNL     1      -1.074  14.313  23.236  0.00  0.00    +0.000 C 
ATOM     14  O   UNL     1      -0.196  13.209  23.017  0.00  0.00    +0.000 OA
ENDBRANCH   1  14
BRANCH  10  15
ATOM     15  C   UNL     1       2.054   8.295  18.140  0.00  0.00    +0.000 C 
BRANCH  15  16
ATOM     16  C   UNL     1       2.868   7.066  17.776  0.00  0.00    +0.000 A 
ATOM     17  C   UNL     1       4.213   7.144  17.398  0.00  0.00    +0.000 A 
ATOM     18  C   UNL     1       4.932   5.985  17.076  0.00  0.00    +0.000 A 
ATOM     19  C   UNL     1       4.320   4.732  17.147  0.00  0.00    +0.000 A 
ATOM     20 CL   UNL     1       5.262   3.348  16.720  0.00  0.00    +0.000 Cl
ATOM     21  C   UNL     1       2.989   4.636  17.554  0.00  0.00    +0.000 A 
ATOM     22 CL   UNL     1       2.163   3.123  17.681  0.00  0.00    +0.000 Cl
ATOM     23  C   UNL     1       2.269   5.798  17.871  0.00  0.00    +0.000 A 
ENDBRANCH  15  16
ENDBRANCH  10  15
BRANCH  12  24
ATOM     24  C   UNL     1      -1.384  10.315  18.655  0.00  0.00    +0.000 C 
BRANCH  24  25
ATOM     25  N   UNL     1      -1.992  11.483  17.977  0.00  0.00    +0.000 NA
ATOM     26  C   UNL     1      -3.192  11.918  18.726  0.00  0.00    +0.000 C 
ATOM     27  C   UNL     1      -4.345  11.094  18.177  0.00  0.00    +0.000 C 
ATOM     28  C   UNL     1      -3.983  10.889  16.720  0.00  0.00    +0.000 C 
ATOM     29  C   UNL     1      -2.495  11.206  16.624  0.00  0.00    +0.000 C 
ENDBRANCH  24  25
ENDBRANCH  12  24
TORSDOF 5
ENDMDL
